MODEL 1
REMARK VINA RESULT:      -3.8      0.000      0.000
REMARK  5 active torsions:
REMARK  status: ('A' for Active; 'I' for Inactive)
REMARK    1  A    between atoms: C2_3  and  O1_2 
REMARK    2  A    between atoms: C4_7  and  O2_4 
REMARK    3  A    between atoms: C12_18  and  O5_10 
REMARK    4  A    between atoms: C13_19  and  O6_12 
REMARK    5  A    between atoms: C10_16  and  C9_15 
ROOT
ATOM      1  C1  LU2 d          22.664  43.823  41.683  0.00  0.00    -0.017 A 
ATOM      2  C2  LU2 d          22.299  43.542  42.977  0.00  0.00     0.071 A 
ATOM      3  C3  LU2 d          21.414  42.495  43.252  0.00  0.00    -0.018 A 
ATOM      4  O3  LU2 d          19.936  40.417  39.965  0.00  0.00    -0.287 OA
ATOM      5  C4  LU2 d          20.910  41.734  42.214  0.00  0.00     0.085 A 
ATOM      6  O4  LU2 d          22.536  43.389  39.429  0.00  0.00    -0.309 OA
ATOM      7  C5  LU2 d          21.276  42.018  40.895  0.00  0.00     0.081 A 
ATOM      8  C6  LU2 d          22.136  43.060  40.658  0.00  0.00     0.095 A 
ATOM      9  C7  LU2 d          20.778  41.304  39.830  0.00  0.00     0.190 A 
ATOM     10  C8  LU2 d          21.123  41.703  38.562  0.00  0.00    -0.000 A 
ATOM     11  C9  LU2 d          22.039  42.715  38.393  0.00  0.00     0.090 A 
ATOM     12  H1  LU2 d          23.354  44.632  41.469  0.00  0.00     0.092 H 
ATOM     13  H4  LU2 d          21.125  42.281  44.274  0.00  0.00     0.092 H 
ATOM     14  H7  LU2 d          20.674  41.220  37.694  0.00  0.00     0.094 H 
ENDROOT
BRANCH  11  15
ATOM     15  C10 LU2 d          22.430  43.131  37.162  0.00  0.00     0.001 A 
ATOM     16  C11 LU2 d          21.877  42.602  35.967  0.00  0.00    -0.036 A 
ATOM     17  C12 LU2 d          22.308  43.025  34.720  0.00  0.00     0.099 A 
ATOM     18  H8  LU2 d          21.099  41.850  36.032  0.00  0.00     0.089 H 
ATOM     19  C13 LU2 d          23.300  43.996  34.802  0.00  0.00     0.098 A 
ATOM     20  C14 LU2 d          23.854  44.525  35.956  0.00  0.00    -0.047 A 
ATOM     21  C15 LU2 d          23.421  44.090  37.161  0.00  0.00    -0.068 A 
ATOM     22  H9  LU2 d          24.628  45.282  35.893  0.00  0.00     0.087 H 
ATOM     23  H10 LU2 d          23.835  44.478  38.084  0.00  0.00     0.085 H 
BRANCH  17  24
ATOM     24  O5  LU2 d          21.850  42.545  33.441  0.00  0.00    -0.358 OA
ATOM     25  H5  LU2 d          22.516  42.715  32.784  0.00  0.00     0.217 HD
ENDBRANCH  17  24
BRANCH  19  26
ATOM     26  O6  LU2 d          23.778  44.472  33.669  0.00  0.00    -0.358 OA
ATOM     27  H6  LU2 d          23.552  43.882  32.959  0.00  0.00     0.217 HD
ENDBRANCH  19  26
ENDBRANCH  11  15
BRANCH   2  28
ATOM     28  O1  LU2 d          22.771  44.302  43.954  0.00  0.00    -0.361 OA
ATOM     29  H2  LU2 d          22.755  43.814  44.770  0.00  0.00     0.217 HD
ENDBRANCH   2  28
BRANCH   5  30
ATOM     30  O2  LU2 d          20.072  40.734  42.505  0.00  0.00    -0.360 OA
ATOM     31  H3  LU2 d          19.175  41.033  42.405  0.00  0.00     0.217 HD
ENDBRANCH   5  30
TORSDOF 5
ENDMDL
MODEL 2
REMARK VINA RESULT:      -3.1      1.874      7.019
REMARK  5 active torsions:
REMARK  status: ('A' for Active; 'I' for Inactive)
REMARK    1  A    between atoms: C2_3  and  O1_2 
REMARK    2  A    between atoms: C4_7  and  O2_4 
REMARK    3  A    between atoms: C12_18  and  O5_10 
REMARK    4  A    between atoms: C13_19  and  O6_12 
REMARK    5  A    between atoms: C10_16  and  C9_15 
ROOT
ATOM      1  C1  LU2 d          19.679  40.540  36.410  0.00  0.00    -0.017 A 
ATOM      2  C2  LU2 d          19.539  40.461  35.046  0.00  0.00     0.071 A 
ATOM      3  C3  LU2 d          20.344  41.235  34.205  0.00  0.00    -0.018 A 
ATOM      4  O3  LU2 d          23.048  43.786  36.074  0.00  0.00    -0.287 OA
ATOM      5  C4  LU2 d          21.293  42.079  34.752  0.00  0.00     0.085 A 
ATOM      6  O4  LU2 d          20.704  41.425  38.268  0.00  0.00    -0.309 OA
ATOM      7  C5  LU2 d          21.438  42.165  36.139  0.00  0.00     0.081 A 
ATOM      8  C6  LU2 d          20.623  41.402  36.937  0.00  0.00     0.095 A 
ATOM      9  C7  LU2 d          22.350  43.011  36.726  0.00  0.00     0.190 A 
ATOM     10  C8  LU2 d          22.368  43.096  38.098  0.00  0.00    -0.000 A 
ATOM     11  C9  LU2 d          21.571  42.259  38.842  0.00  0.00     0.090 A 
ATOM     12  H1  LU2 d          19.058  39.937  37.063  0.00  0.00     0.092 H 
ATOM     13  H4  LU2 d          20.226  41.173  33.130  0.00  0.00     0.092 H 
ATOM     14  H7  LU2 d          23.011  43.823  38.593  0.00  0.00     0.094 H 
ENDROOT
BRANCH  11  15
ATOM     15  C10 LU2 d          21.568  42.288  40.198  0.00  0.00     0.001 A 
ATOM     16  C11 LU2 d          21.287  41.141  40.985  0.00  0.00    -0.036 A 
ATOM     17  C12 LU2 d          21.266  41.199  42.369  0.00  0.00     0.099 A 
ATOM     18  H8  LU2 d          21.085  40.197  40.491  0.00  0.00     0.089 H 
ATOM     19  C13 LU2 d          21.552  42.472  42.852  0.00  0.00     0.098 A 
ATOM     20  C14 LU2 d          21.828  43.604  42.103  0.00  0.00    -0.047 A 
ATOM     21  C15 LU2 d          21.835  43.522  40.753  0.00  0.00    -0.068 A 
ATOM     22  H9  LU2 d          22.036  44.547  42.595  0.00  0.00     0.087 H 
ATOM     23  H10 LU2 d          22.041  44.388  40.135  0.00  0.00     0.085 H 
BRANCH  17  24
ATOM     24  O5  LU2 d          20.966  40.119  43.273  0.00  0.00    -0.358 OA
ATOM     25  H5  LU2 d          20.109  40.258  43.658  0.00  0.00     0.217 HD
ENDBRANCH  17  24
BRANCH  19  26
ATOM     26  O6  LU2 d          21.563  42.636  44.159  0.00  0.00    -0.358 OA
ATOM     27  H6  LU2 d          22.330  43.139  44.408  0.00  0.00     0.217 HD
ENDBRANCH  19  26
ENDBRANCH  11  15
BRANCH   2  28
ATOM     28  O1  LU2 d          18.605  39.667  34.544  0.00  0.00    -0.361 OA
ATOM     29  H2  LU2 d          18.185  40.099  33.808  0.00  0.00     0.217 HD
ENDBRANCH   2  28
BRANCH   5  30
ATOM     30  O2  LU2 d          22.056  42.802  33.925  0.00  0.00    -0.360 OA
ATOM     31  H3  LU2 d          22.390  42.242  33.233  0.00  0.00     0.217 HD
ENDBRANCH   5  30
TORSDOF 5
ENDMDL
MODEL 3
REMARK VINA RESULT:      -2.9      2.213      3.277
REMARK  5 active torsions:
REMARK  status: ('A' for Active; 'I' for Inactive)
REMARK    1  A    between atoms: C2_3  and  O1_2 
REMARK    2  A    between atoms: C4_7  and  O2_4 
REMARK    3  A    between atoms: C12_18  and  O5_10 
REMARK    4  A    between atoms: C13_19  and  O6_12 
REMARK    5  A    between atoms: C10_16  and  C9_15 
ROOT
ATOM      1  C1  LU2 d          22.561  43.240  39.477  0.00  0.00    -0.017 A 
ATOM      2  C2  LU2 d          22.897  43.592  40.761  0.00  0.00     0.071 A 
ATOM      3  C3  LU2 d          22.234  43.018  41.849  0.00  0.00    -0.018 A 
ATOM      4  O3  LU2 d          19.199  40.319  40.948  0.00  0.00    -0.287 OA
ATOM      5  C4  LU2 d          21.239  42.084  41.630  0.00  0.00     0.085 A 
ATOM      6  O4  LU2 d          21.282  42.020  38.006  0.00  0.00    -0.309 OA
ATOM      7  C5  LU2 d          20.891  41.724  40.325  0.00  0.00     0.081 A 
ATOM      8  C6  LU2 d          21.552  42.315  39.278  0.00  0.00     0.095 A 
ATOM      9  C7  LU2 d          19.890  40.819  40.060  0.00  0.00     0.190 A 
ATOM     10  C8  LU2 d          19.555  40.585  38.748  0.00  0.00    -0.000 A 
ATOM     11  C9  LU2 d          20.298  41.161  37.744  0.00  0.00     0.090 A 
ATOM     12  H1  LU2 d          23.078  43.681  38.631  0.00  0.00     0.092 H 
ATOM     13  H4  LU2 d          22.499  43.304  42.861  0.00  0.00     0.092 H 
ATOM     14  H7  LU2 d          18.706  39.947  38.505  0.00  0.00     0.094 H 
ENDROOT
BRANCH  11  15
ATOM     15  C10 LU2 d          20.022  40.945  36.434  0.00  0.00     0.001 A 
ATOM     16  C11 LU2 d          20.788  41.523  35.388  0.00  0.00    -0.036 A 
ATOM     17  C12 LU2 d          20.474  41.309  34.056  0.00  0.00     0.099 A 
ATOM     18  H8  LU2 d          21.639  42.147  35.639  0.00  0.00     0.089 H 
ATOM     19  C13 LU2 d          19.366  40.484  33.897  0.00  0.00     0.098 A 
ATOM     20  C14 LU2 d          18.604  39.910  34.902  0.00  0.00    -0.047 A 
ATOM     21  C15 LU2 d          18.927  40.141  36.195  0.00  0.00    -0.068 A 
ATOM     22  H9  LU2 d          17.756  39.281  34.654  0.00  0.00     0.087 H 
ATOM     23  H10 LU2 d          18.351  39.713  37.007  0.00  0.00     0.085 H 
BRANCH  17  24
ATOM     24  O5  LU2 d          21.151  41.861  32.911  0.00  0.00    -0.358 OA
ATOM     25  H5  LU2 d          22.088  41.870  33.073  0.00  0.00     0.217 HD
ENDBRANCH  17  24
BRANCH  19  26
ATOM     26  O6  LU2 d          18.984  40.211  32.666  0.00  0.00    -0.358 OA
ATOM     27  H6  LU2 d          18.063  40.421  32.567  0.00  0.00     0.217 HD
ENDBRANCH  19  26
ENDBRANCH  11  15
BRANCH   2  28
ATOM     28  O1  LU2 d          23.834  44.511  40.948  0.00  0.00    -0.361 OA
ATOM     29  H2  LU2 d          24.431  44.219  41.627  0.00  0.00     0.217 HD
ENDBRANCH   2  28
BRANCH   5  30
ATOM     30  O2  LU2 d          20.626  41.544  42.689  0.00  0.00    -0.360 OA
ATOM     31  H3  LU2 d          21.278  41.269  43.324  0.00  0.00     0.217 HD
ENDBRANCH   5  30
TORSDOF 5
ENDMDL
MODEL 4
REMARK VINA RESULT:      -2.2      1.320      6.622
REMARK  5 active torsions:
REMARK  status: ('A' for Active; 'I' for Inactive)
REMARK    1  A    between atoms: C2_3  and  O1_2 
REMARK    2  A    between atoms: C4_7  and  O2_4 
REMARK    3  A    between atoms: C12_18  and  O5_10 
REMARK    4  A    between atoms: C13_19  and  O6_12 
REMARK    5  A    between atoms: C10_16  and  C9_15 
ROOT
ATOM      1  C1  LU2 d          22.999  43.738  36.175  0.00  0.00    -0.017 A 
ATOM      2  C2  LU2 d          22.997  43.743  34.802  0.00  0.00     0.071 A 
ATOM      3  C3  LU2 d          22.130  42.906  34.092  0.00  0.00    -0.018 A 
ATOM      4  O3  LU2 d          19.700  40.410  36.367  0.00  0.00    -0.287 OA
ATOM      5  C4  LU2 d          21.265  42.074  34.780  0.00  0.00     0.085 A 
ATOM      6  O4  LU2 d          22.193  42.939  38.175  0.00  0.00    -0.309 OA
ATOM      7  C5  LU2 d          21.265  42.064  36.177  0.00  0.00     0.081 A 
ATOM      8  C6  LU2 d          22.137  42.888  36.844  0.00  0.00     0.095 A 
ATOM      9  C7  LU2 d          20.440  41.235  36.901  0.00  0.00     0.190 A 
ATOM     10  C8  LU2 d          20.564  41.227  38.269  0.00  0.00    -0.000 A 
ATOM     11  C9  LU2 d          21.412  42.122  38.880  0.00  0.00     0.090 A 
ATOM     12  H1  LU2 d          23.667  44.390  36.727  0.00  0.00     0.092 H 
ATOM     13  H4  LU2 d          22.136  42.909  33.009  0.00  0.00     0.092 H 
ATOM     14  H7  LU2 d          19.995  40.517  38.867  0.00  0.00     0.094 H 
ENDROOT
BRANCH  11  15
ATOM     15  C10 LU2 d          21.554  42.170  40.228  0.00  0.00     0.001 A 
ATOM     16  C11 LU2 d          21.155  41.103  41.075  0.00  0.00    -0.036 A 
ATOM     17  C12 LU2 d          21.287  41.183  42.452  0.00  0.00     0.099 A 
ATOM     18  H8  LU2 d          20.737  40.205  40.634  0.00  0.00     0.089 H 
ATOM     19  C13 LU2 d          21.845  42.388  42.863  0.00  0.00     0.098 A 
ATOM     20  C14 LU2 d          22.241  43.441  42.055  0.00  0.00    -0.047 A 
ATOM     21  C15 LU2 d          22.094  43.342  40.714  0.00  0.00    -0.068 A 
ATOM     22  H9  LU2 d          22.665  44.338  42.494  0.00  0.00     0.087 H 
ATOM     23  H10 LU2 d          22.388  44.147  40.052  0.00  0.00     0.085 H 
BRANCH  17  24
ATOM     24  O5  LU2 d          20.894  40.187  43.415  0.00  0.00    -0.358 OA
ATOM     25  H5  LU2 d          21.635  39.625  43.609  0.00  0.00     0.217 HD
ENDBRANCH  17  24
BRANCH  19  26
ATOM     26  O6  LU2 d          22.020  42.566  44.157  0.00  0.00    -0.358 OA
ATOM     27  H6  LU2 d          22.806  43.079  44.302  0.00  0.00     0.217 HD
ENDBRANCH  19  26
ENDBRANCH  11  15
BRANCH   2  28
ATOM     28  O1  LU2 d          23.854  44.525  34.163  0.00  0.00    -0.361 OA
ATOM     29  H2  LU2 d          24.180  45.190  34.760  0.00  0.00     0.217 HD
ENDBRANCH   2  28
BRANCH   5  30
ATOM     30  O2  LU2 d          20.441  41.291  34.076  0.00  0.00    -0.360 OA
ATOM     31  H3  LU2 d          20.214  41.722  33.260  0.00  0.00     0.217 HD
ENDBRANCH   5  30
TORSDOF 5
ENDMDL
MODEL 5
REMARK VINA RESULT:      -1.9      1.375      6.688
REMARK  5 active torsions:
REMARK  status: ('A' for Active; 'I' for Inactive)
REMARK    1  A    between atoms: C2_3  and  O1_2 
REMARK    2  A    between atoms: C4_7  and  O2_4 
REMARK    3  A    between atoms: C12_18  and  O5_10 
REMARK    4  A    between atoms: C13_19  and  O6_12 
REMARK    5  A    between atoms: C10_16  and  C9_15 
ROOT
ATOM      1  C1  LU2 d          22.931  43.714  36.144  0.00  0.00    -0.017 A 
ATOM      2  C2  LU2 d          22.975  43.681  34.772  0.00  0.00     0.071 A 
ATOM      3  C3  LU2 d          22.134  42.824  34.056  0.00  0.00    -0.018 A 
ATOM      4  O3  LU2 d          19.629  40.387  36.313  0.00  0.00    -0.287 OA
ATOM      5  C4  LU2 d          21.247  42.010  34.736  0.00  0.00     0.085 A 
ATOM      6  O4  LU2 d          22.057  42.968  38.136  0.00  0.00    -0.309 OA
ATOM      7  C5  LU2 d          21.199  42.038  36.132  0.00  0.00     0.081 A 
ATOM      8  C6  LU2 d          22.047  42.881  36.805  0.00  0.00     0.095 A 
ATOM      9  C7  LU2 d          20.350  41.228  36.849  0.00  0.00     0.190 A 
ATOM     10  C8  LU2 d          20.427  41.257  38.221  0.00  0.00    -0.000 A 
ATOM     11  C9  LU2 d          21.253  42.169  38.836  0.00  0.00     0.090 A 
ATOM     12  H1  LU2 d          23.579  44.382  36.700  0.00  0.00     0.092 H 
ATOM     13  H4  LU2 d          22.177  42.798  32.974  0.00  0.00     0.092 H 
ATOM     14  H7  LU2 d          19.838  40.562  38.818  0.00  0.00     0.094 H 
ENDROOT
BRANCH  11  15
ATOM     15  C10 LU2 d          21.349  42.254  40.186  0.00  0.00     0.001 A 
ATOM     16  C11 LU2 d          21.887  43.391  40.842  0.00  0.00    -0.036 A 
ATOM     17  C12 LU2 d          21.998  43.446  42.223  0.00  0.00     0.099 A 
ATOM     18  H8  LU2 d          22.219  44.236  40.250  0.00  0.00     0.089 H 
ATOM     19  C13 LU2 d          21.525  42.294  42.840  0.00  0.00     0.098 A 
ATOM     20  C14 LU2 d          20.997  41.173  42.220  0.00  0.00    -0.047 A 
ATOM     21  C15 LU2 d          20.906  41.141  40.871  0.00  0.00    -0.068 A 
ATOM     22  H9  LU2 d          20.659  40.329  42.811  0.00  0.00     0.087 H 
ATOM     23  H10 LU2 d          20.504  40.280  40.352  0.00  0.00     0.085 H 
BRANCH  17  24
ATOM     24  O5  LU2 d          22.551  44.525  43.000  0.00  0.00    -0.358 OA
ATOM     25  H5  LU2 d          23.185  45.000  42.475  0.00  0.00     0.217 HD
ENDBRANCH  17  24
BRANCH  19  26
ATOM     26  O6  LU2 d          21.580  42.245  44.156  0.00  0.00    -0.358 OA
ATOM     27  H6  LU2 d          21.342  41.373  44.450  0.00  0.00     0.217 HD
ENDBRANCH  19  26
ENDBRANCH  11  15
BRANCH   2  28
ATOM     28  O1  LU2 d          23.853  44.448  34.142  0.00  0.00    -0.361 OA
ATOM     29  H2  LU2 d          23.753  44.337  33.203  0.00  0.00     0.217 HD
ENDBRANCH   2  28
BRANCH   5  30
ATOM     30  O2  LU2 d          20.447  41.206  34.026  0.00  0.00    -0.360 OA
ATOM     31  H3  LU2 d          20.977  40.602  33.519  0.00  0.00     0.217 HD
ENDBRANCH   5  30
TORSDOF 5
ENDMDL
