MODEL 1
REMARK VINA RESULT:      -7.4      0.000      0.000
REMARK  11 active torsions:
REMARK  status: ('A' for Active; 'I' for Inactive)
REMARK    1  A    between atoms: CAB_1  and  CAR_2 
REMARK    2  A    between atoms: CAR_2  and  CAC_3 
REMARK    3  A    between atoms: CAG_4  and  CAN_5 
REMARK    4  A    between atoms: CAN_5  and  CAX_6 
REMARK    5  A    between atoms: CAW_7  and  OAQ_9 
REMARK    6  A    between atoms: OAQ_9  and  CAA_10 
REMARK    7  A    between atoms: CAU_11  and  OAF_12 
REMARK    8  A    between atoms: CAY_13  and  CAS_14 
REMARK    9  A    between atoms: CAV_17  and  CAP_18 
REMARK   10  A    between atoms: CAP_18  and  CAO_19 
REMARK   11  A    between atoms: CAO_19  and  CAT_20 
ROOT
ATOM      1  CAX YFE d          17.050  20.351  47.810  0.00  0.00     0.013 A 
ATOM      2  CAW YFE d          15.698  20.699  47.826  0.00  0.00     0.078 A 
ATOM      3  CAM YFE d          15.269  21.979  48.178  0.00  0.00    -0.043 A 
ATOM      4  CAU YFE d          17.953  21.345  48.188  0.00  0.00     0.092 A 
ATOM      5  CAY YFE d          17.539  22.632  48.541  0.00  0.00     0.080 A 
ATOM      6  CAV YFE d          16.174  22.959  48.557  0.00  0.00    -0.035 A 
ATOM      7  H10 YFE d          14.211  22.212  48.156  0.00  0.00     0.088 H 
ENDROOT
BRANCH   6   8
ATOM      8  CAP YFE d          15.574  24.333  48.905  0.00  0.00    -0.036 C 
ATOM      9  H15 YFE d          15.026  24.703  48.026  0.00  0.00     0.040 H 
ATOM     10  H16 YFE d          16.400  25.021  49.139  0.00  0.00     0.040 H 
BRANCH   8  11
ATOM     11  CAO YFE d          14.622  24.314  50.087  0.00  0.00    -0.037 C 
ATOM     12  H17 YFE d          14.534  23.280  50.454  0.00  0.00     0.040 H 
ATOM     13  H18 YFE d          13.636  24.670  49.753  0.00  0.00     0.040 H 
BRANCH  11  14
ATOM     14  CAT YFE d          15.107  25.211  51.243  0.00  0.00    -0.058 A 
ATOM     15  CAK YFE d          16.457  25.316  51.571  0.00  0.00    -0.077 A 
ATOM     16  CAI YFE d          16.871  26.142  52.624  0.00  0.00    -0.082 A 
ATOM     17  H19 YFE d          17.193  24.754  51.007  0.00  0.00     0.084 H 
ATOM     18  CAH YFE d          15.923  26.861  53.351  0.00  0.00    -0.083 A 
ATOM     19  H20 YFE d          17.923  26.222  52.872  0.00  0.00     0.083 H 
ATOM     20  CAJ YFE d          14.562  26.760  53.027  0.00  0.00    -0.082 A 
ATOM     21  H21 YFE d          16.239  27.499  54.169  0.00  0.00     0.083 H 
ATOM     22  CAL YFE d          14.163  25.935  51.976  0.00  0.00    -0.077 A 
ATOM     23  H22 YFE d          13.825  27.321  53.590  0.00  0.00     0.083 H 
ATOM     24  H23 YFE d          13.111  25.853  51.726  0.00  0.00     0.084 H 
ENDBRANCH  11  14
ENDBRANCH   8  11
ENDBRANCH   6   8
BRANCH   5  25
ATOM     25  CAS YFE d          18.619  23.657  48.941  0.00  0.00     0.212 C 
ATOM     26  OAE YFE d          18.892  24.549  48.103  0.00  0.00    -0.644 OA
ATOM     27  OAD YFE d          19.188  23.535  50.050  0.00  0.00    -0.644 OA
ENDBRANCH   5  25
BRANCH   2  28
ATOM     28  OAQ YFE d          14.760  19.770  47.493  0.00  0.00    -0.355 OA
BRANCH  28  29
ATOM     29  CAA YFE d          13.430  20.244  47.844  0.00  0.00     0.010 C 
ATOM     30  H11 YFE d          13.238  21.203  47.340  0.00  0.00     0.066 H 
ATOM     31  H12 YFE d          13.366  20.384  48.933  0.00  0.00     0.066 H 
ATOM     32  H13 YFE d          12.681  19.505  47.525  0.00  0.00     0.066 H 
ENDBRANCH  28  29
ENDBRANCH   2  28
BRANCH   4  33
ATOM     33  OAF YFE d          19.282  21.062  48.200  0.00  0.00    -0.359 OA
ATOM     34  H14 YFE d          19.471  20.461  48.911  0.00  0.00     0.217 HD
ENDBRANCH   4  33
BRANCH   1  35
ATOM     35  CAN YFE d          17.544  18.934  47.396  0.00  0.00    -0.020 C 
ATOM     36  H8  YFE d          18.479  18.699  47.925  0.00  0.00     0.046 H 
ATOM     37  H9  YFE d          16.779  18.187  47.653  0.00  0.00     0.046 H 
BRANCH  35  38
ATOM     38  CAG YFE d          17.771  18.920  46.008  0.00  0.00    -0.097 C 
ATOM     39  CAR YFE d          17.128  18.304  44.913  0.00  0.00    -0.091 C 
ATOM     40  H7  YFE d          18.634  19.516  45.714  0.00  0.00     0.077 H 
BRANCH  39  41
ATOM     41  CAB YFE d          15.867  17.429  45.036  0.00  0.00    -0.055 C 
ATOM     42  H1  YFE d          16.127  16.380  44.831  0.00  0.00     0.033 H 
ATOM     43  H2  YFE d          15.113  17.769  44.310  0.00  0.00     0.033 H 
ATOM     44  H3  YFE d          15.460  17.513  46.054  0.00  0.00     0.033 H 
ENDBRANCH  39  41
BRANCH  39  45
ATOM     45  CAC YFE d          17.691  18.535  43.491  0.00  0.00    -0.055 C 
ATOM     46  H4  YFE d          18.709  18.125  43.428  0.00  0.00     0.033 H 
ATOM     47  H5  YFE d          17.716  19.614  43.278  0.00  0.00     0.033 H 
ATOM     48  H6  YFE d          17.048  18.030  42.756  0.00  0.00     0.033 H 
ENDBRANCH  39  45
ENDBRANCH  35  38
ENDBRANCH   1  35
TORSDOF 11
ENDMDL
MODEL 2
REMARK VINA RESULT:      -6.9      1.413      3.556
REMARK  11 active torsions:
REMARK  status: ('A' for Active; 'I' for Inactive)
REMARK    1  A    between atoms: CAB_1  and  CAR_2 
REMARK    2  A    between atoms: CAR_2  and  CAC_3 
REMARK    3  A    between atoms: CAG_4  and  CAN_5 
REMARK    4  A    between atoms: CAN_5  and  CAX_6 
REMARK    5  A    between atoms: CAW_7  and  OAQ_9 
REMARK    6  A    between atoms: OAQ_9  and  CAA_10 
REMARK    7  A    between atoms: CAU_11  and  OAF_12 
REMARK    8  A    between atoms: CAY_13  and  CAS_14 
REMARK    9  A    between atoms: CAV_17  and  CAP_18 
REMARK   10  A    between atoms: CAP_18  and  CAO_19 
REMARK   11  A    between atoms: CAO_19  and  CAT_20 
ROOT
ATOM      1  CAX YFE d          17.161  19.850  47.269  0.00  0.00     0.013 A 
ATOM      2  CAW YFE d          17.529  21.178  47.498  0.00  0.00     0.078 A 
ATOM      3  CAM YFE d          16.710  22.060  48.202  0.00  0.00    -0.043 A 
ATOM      4  CAU YFE d          15.917  19.456  47.764  0.00  0.00     0.092 A 
ATOM      5  CAY YFE d          15.087  20.327  48.473  0.00  0.00     0.080 A 
ATOM      6  CAV YFE d          15.473  21.660  48.685  0.00  0.00    -0.035 A 
ATOM      7  H10 YFE d          17.045  23.076  48.375  0.00  0.00     0.088 H 
ENDROOT
BRANCH   6   8
ATOM      8  CAP YFE d          14.675  22.724  49.460  0.00  0.00    -0.036 C 
ATOM      9  H15 YFE d          14.767  22.510  50.535  0.00  0.00     0.040 H 
ATOM     10  H16 YFE d          13.619  22.650  49.161  0.00  0.00     0.040 H 
BRANCH   8  11
ATOM     11  CAO YFE d          15.139  24.149  49.216  0.00  0.00    -0.037 C 
ATOM     12  H17 YFE d          14.380  24.670  48.613  0.00  0.00     0.040 H 
ATOM     13  H18 YFE d          16.090  24.122  48.665  0.00  0.00     0.040 H 
BRANCH  11  14
ATOM     14  CAT YFE d          15.348  24.928  50.530  0.00  0.00    -0.058 A 
ATOM     15  CAK YFE d          14.282  25.506  51.216  0.00  0.00    -0.077 A 
ATOM     16  CAI YFE d          14.501  26.205  52.410  0.00  0.00    -0.082 A 
ATOM     17  H19 YFE d          13.276  25.415  50.823  0.00  0.00     0.084 H 
ATOM     18  CAH YFE d          15.795  26.326  52.913  0.00  0.00    -0.083 A 
ATOM     19  H20 YFE d          13.666  26.650  52.941  0.00  0.00     0.083 H 
ATOM     20  CAJ YFE d          16.874  25.746  52.227  0.00  0.00    -0.082 A 
ATOM     21  H21 YFE d          15.969  26.869  53.835  0.00  0.00     0.083 H 
ATOM     22  CAL YFE d          16.643  25.053  51.040  0.00  0.00    -0.077 A 
ATOM     23  H22 YFE d          17.880  25.837  52.619  0.00  0.00     0.083 H 
ATOM     24  H23 YFE d          17.475  24.607  50.508  0.00  0.00     0.084 H 
ENDBRANCH  11  14
ENDBRANCH   8  11
ENDBRANCH   6   8
BRANCH   5  25
ATOM     25  CAS YFE d          13.733  19.790  48.978  0.00  0.00     0.212 C 
ATOM     26  OAE YFE d          13.713  19.295  50.129  0.00  0.00    -0.644 OA
ATOM     27  OAD YFE d          12.740  19.840  48.216  0.00  0.00    -0.644 OA
ENDBRANCH   5  25
BRANCH   2  28
ATOM     28  OAQ YFE d          18.719  21.637  47.021  0.00  0.00    -0.355 OA
BRANCH  28  29
ATOM     29  CAA YFE d          19.640  21.891  48.118  0.00  0.00     0.010 C 
ATOM     30  H11 YFE d          20.109  20.946  48.429  0.00  0.00     0.066 H 
ATOM     31  H12 YFE d          19.089  22.325  48.966  0.00  0.00     0.066 H 
ATOM     32  H13 YFE d          20.418  22.596  47.788  0.00  0.00     0.066 H 
ENDBRANCH  28  29
ENDBRANCH   2  28
BRANCH   4  33
ATOM     33  OAF YFE d          15.500  18.177  47.564  0.00  0.00    -0.359 OA
ATOM     34  H14 YFE d          15.395  17.744  48.403  0.00  0.00     0.217 HD
ENDBRANCH   4  33
BRANCH   1  35
ATOM     35  CAN YFE d          18.075  18.848  46.506  0.00  0.00    -0.020 C 
ATOM     36  H8  YFE d          19.053  19.313  46.314  0.00  0.00     0.046 H 
ATOM     37  H9  YFE d          18.213  17.940  47.110  0.00  0.00     0.046 H 
BRANCH  35  38
ATOM     38  CAG YFE d          17.464  18.515  45.284  0.00  0.00    -0.097 C 
ATOM     39  CAR YFE d          17.857  17.753  44.163  0.00  0.00    -0.091 C 
ATOM     40  H7  YFE d          16.465  18.939  45.180  0.00  0.00     0.077 H 
BRANCH  39  41
ATOM     41  CAB YFE d          19.205  17.017  44.054  0.00  0.00    -0.055 C 
ATOM     42  H1  YFE d          19.073  16.097  43.466  0.00  0.00     0.033 H 
ATOM     43  H2  YFE d          19.567  16.762  45.061  0.00  0.00     0.033 H 
ATOM     44  H3  YFE d          19.939  17.667  43.555  0.00  0.00     0.033 H 
ENDBRANCH  39  41
BRANCH  39  45
ATOM     45  CAC YFE d          16.876  17.611  42.976  0.00  0.00    -0.055 C 
ATOM     46  H4  YFE d          15.842  17.648  43.348  0.00  0.00     0.033 H 
ATOM     47  H5  YFE d          17.051  16.650  42.470  0.00  0.00     0.033 H 
ATOM     48  H6  YFE d          17.039  18.434  42.265  0.00  0.00     0.033 H 
ENDBRANCH  39  45
ENDBRANCH  35  38
ENDBRANCH   1  35
TORSDOF 11
ENDMDL
MODEL 3
REMARK VINA RESULT:      -6.7      1.244      8.224
REMARK  11 active torsions:
REMARK  status: ('A' for Active; 'I' for Inactive)
REMARK    1  A    between atoms: CAB_1  and  CAR_2 
REMARK    2  A    between atoms: CAR_2  and  CAC_3 
REMARK    3  A    between atoms: CAG_4  and  CAN_5 
REMARK    4  A    between atoms: CAN_5  and  CAX_6 
REMARK    5  A    between atoms: CAW_7  and  OAQ_9 
REMARK    6  A    between atoms: OAQ_9  and  CAA_10 
REMARK    7  A    between atoms: CAU_11  and  OAF_12 
REMARK    8  A    between atoms: CAY_13  and  CAS_14 
REMARK    9  A    between atoms: CAV_17  and  CAP_18 
REMARK   10  A    between atoms: CAP_18  and  CAO_19 
REMARK   11  A    between atoms: CAO_19  and  CAT_20 
ROOT
ATOM      1  CAX YFE d          16.178  22.929  48.583  0.00  0.00     0.013 A 
ATOM      2  CAW YFE d          17.447  22.508  48.178  0.00  0.00     0.078 A 
ATOM      3  CAM YFE d          17.721  21.173  47.877  0.00  0.00    -0.043 A 
ATOM      4  CAU YFE d          15.201  21.940  48.692  0.00  0.00     0.092 A 
ATOM      5  CAY YFE d          15.458  20.601  48.392  0.00  0.00     0.080 A 
ATOM      6  CAV YFE d          16.743  20.197  47.994  0.00  0.00    -0.035 A 
ATOM      7  H10 YFE d          18.714  20.894  47.546  0.00  0.00     0.088 H 
ENDROOT
BRANCH   6   8
ATOM      8  CAP YFE d          17.168  18.767  47.615  0.00  0.00    -0.036 C 
ATOM      9  H15 YFE d          16.262  18.183  47.398  0.00  0.00     0.040 H 
ATOM     10  H16 YFE d          17.692  18.324  48.475  0.00  0.00     0.040 H 
BRANCH   8  11
ATOM     11  CAO YFE d          18.085  18.690  46.408  0.00  0.00    -0.037 C 
ATOM     12  H17 YFE d          18.951  18.060  46.661  0.00  0.00     0.040 H 
ATOM     13  H18 YFE d          18.431  19.705  46.161  0.00  0.00     0.040 H 
BRANCH  11  14
ATOM     14  CAT YFE d          17.380  18.092  45.175  0.00  0.00    -0.058 A 
ATOM     15  CAK YFE d          18.019  17.996  43.940  0.00  0.00    -0.077 A 
ATOM     16  CAI YFE d          17.356  17.445  42.837  0.00  0.00    -0.082 A 
ATOM     17  H19 YFE d          19.038  18.351  43.833  0.00  0.00     0.084 H 
ATOM     18  CAH YFE d          16.044  16.993  42.975  0.00  0.00    -0.083 A 
ATOM     19  H20 YFE d          17.860  17.370  41.881  0.00  0.00     0.083 H 
ATOM     20  CAJ YFE d          15.394  17.086  44.215  0.00  0.00    -0.082 A 
ATOM     21  H21 YFE d          15.526  16.568  42.123  0.00  0.00     0.083 H 
ATOM     22  CAL YFE d          16.065  17.637  45.305  0.00  0.00    -0.077 A 
ATOM     23  H22 YFE d          14.375  16.732  44.324  0.00  0.00     0.083 H 
ATOM     24  H23 YFE d          15.563  17.713  46.263  0.00  0.00     0.084 H 
ENDBRANCH  11  14
ENDBRANCH   8  11
ENDBRANCH   6   8
BRANCH   5  25
ATOM     25  CAS YFE d          14.306  19.588  48.544  0.00  0.00     0.212 C 
ATOM     26  OAE YFE d          13.744  19.206  47.490  0.00  0.00    -0.644 OA
ATOM     27  OAD YFE d          13.967  19.225  49.694  0.00  0.00    -0.644 OA
ENDBRANCH   5  25
BRANCH   2  28
ATOM     28  OAQ YFE d          18.456  23.416  48.075  0.00  0.00    -0.355 OA
BRANCH  28  29
ATOM     29  CAA YFE d          19.735  22.737  47.933  0.00  0.00     0.010 C 
ATOM     30  H11 YFE d          20.507  23.466  47.641  0.00  0.00     0.066 H 
ATOM     31  H12 YFE d          19.654  21.959  47.160  0.00  0.00     0.066 H 
ATOM     32  H13 YFE d          20.013  22.274  48.892  0.00  0.00     0.066 H 
ENDBRANCH  28  29
ENDBRANCH   2  28
BRANCH   4  33
ATOM     33  OAF YFE d          13.948  22.289  49.090  0.00  0.00    -0.359 OA
ATOM     34  H14 YFE d          13.631  21.658  49.726  0.00  0.00     0.217 HD
ENDBRANCH   4  33
BRANCH   1  35
ATOM     35  CAN YFE d          15.853  24.418  48.899  0.00  0.00    -0.020 C 
ATOM     36  H8  YFE d          16.596  25.069  48.414  0.00  0.00     0.046 H 
ATOM     37  H9  YFE d          14.849  24.664  48.523  0.00  0.00     0.046 H 
BRANCH  35  38
ATOM     38  CAG YFE d          15.897  24.607  50.291  0.00  0.00    -0.097 C 
ATOM     39  CAR YFE d          15.265  25.501  51.182  0.00  0.00    -0.091 C 
ATOM     40  H7  YFE d          16.566  23.909  50.793  0.00  0.00     0.077 H 
BRANCH  39  41
ATOM     41  CAB YFE d          14.249  26.574  50.749  0.00  0.00    -0.055 C 
ATOM     42  H1  YFE d          13.879  27.108  51.637  0.00  0.00     0.033 H 
ATOM     43  H2  YFE d          13.406  26.092  50.232  0.00  0.00     0.033 H 
ATOM     44  H3  YFE d          14.736  27.288  50.069  0.00  0.00     0.033 H 
ENDBRANCH  39  41
BRANCH  39  45
ATOM     45  CAC YFE d          15.577  25.393  52.694  0.00  0.00    -0.055 C 
ATOM     46  H4  YFE d          15.522  26.391  53.152  0.00  0.00     0.033 H 
ATOM     47  H5  YFE d          16.588  24.981  52.831  0.00  0.00     0.033 H 
ATOM     48  H6  YFE d          14.842  24.729  53.173  0.00  0.00     0.033 H 
ENDBRANCH  39  45
ENDBRANCH  35  38
ENDBRANCH   1  35
TORSDOF 11
ENDMDL
MODEL 4
REMARK VINA RESULT:      -6.3      1.843      8.022
REMARK  11 active torsions:
REMARK  status: ('A' for Active; 'I' for Inactive)
REMARK    1  A    between atoms: CAB_1  and  CAR_2 
REMARK    2  A    between atoms: CAR_2  and  CAC_3 
REMARK    3  A    between atoms: CAG_4  and  CAN_5 
REMARK    4  A    between atoms: CAN_5  and  CAX_6 
REMARK    5  A    between atoms: CAW_7  and  OAQ_9 
REMARK    6  A    between atoms: OAQ_9  and  CAA_10 
REMARK    7  A    between atoms: CAU_11  and  OAF_12 
REMARK    8  A    between atoms: CAY_13  and  CAS_14 
REMARK    9  A    between atoms: CAV_17  and  CAP_18 
REMARK   10  A    between atoms: CAP_18  and  CAO_19 
REMARK   11  A    between atoms: CAO_19  and  CAT_20 
ROOT
ATOM      1  CAX YFE d          16.876  25.641  49.501  0.00  0.00     0.013 A 
ATOM      2  CAW YFE d          18.183  25.287  49.160  0.00  0.00     0.078 A 
ATOM      3  CAM YFE d          18.521  23.987  48.780  0.00  0.00    -0.043 A 
ATOM      4  CAU YFE d          15.926  24.620  49.464  0.00  0.00     0.092 A 
ATOM      5  CAY YFE d          16.248  23.316  49.084  0.00  0.00     0.080 A 
ATOM      6  CAV YFE d          17.569  22.979  48.751  0.00  0.00    -0.035 A 
ATOM      7  H10 YFE d          19.544  23.762  48.502  0.00  0.00     0.088 H 
ENDROOT
BRANCH   6   8
ATOM      8  CAP YFE d          18.067  21.595  48.298  0.00  0.00    -0.036 C 
ATOM      9  H15 YFE d          17.537  20.829  48.884  0.00  0.00     0.040 H 
ATOM     10  H16 YFE d          19.146  21.531  48.504  0.00  0.00     0.040 H 
BRANCH   8  11
ATOM     11  CAO YFE d          17.846  21.306  46.824  0.00  0.00    -0.037 C 
ATOM     12  H17 YFE d          18.817  21.336  46.308  0.00  0.00     0.040 H 
ATOM     13  H18 YFE d          17.185  22.081  46.407  0.00  0.00     0.040 H 
BRANCH  11  14
ATOM     14  CAT YFE d          17.202  19.926  46.590  0.00  0.00    -0.058 A 
ATOM     15  CAK YFE d          16.559  19.234  47.615  0.00  0.00    -0.077 A 
ATOM     16  CAI YFE d          15.978  17.982  47.373  0.00  0.00    -0.082 A 
ATOM     17  H19 YFE d          16.508  19.668  48.607  0.00  0.00     0.084 H 
ATOM     18  CAH YFE d          16.048  17.424  46.097  0.00  0.00    -0.083 A 
ATOM     19  H20 YFE d          15.477  17.451  48.174  0.00  0.00     0.083 H 
ATOM     20  CAJ YFE d          16.694  18.114  45.060  0.00  0.00    -0.082 A 
ATOM     21  H21 YFE d          15.603  16.454  45.906  0.00  0.00     0.083 H 
ATOM     22  CAL YFE d          17.268  19.359  45.314  0.00  0.00    -0.077 A 
ATOM     23  H22 YFE d          16.746  17.682  44.068  0.00  0.00     0.083 H 
ATOM     24  H23 YFE d          17.769  19.893  44.515  0.00  0.00     0.084 H 
ENDBRANCH  11  14
ENDBRANCH   8  11
ENDBRANCH   6   8
BRANCH   5  25
ATOM     25  CAS YFE d          15.122  22.263  49.075  0.00  0.00     0.212 C 
ATOM     26  OAE YFE d          14.876  21.686  50.161  0.00  0.00    -0.644 OA
ATOM     27  OAD YFE d          14.536  22.011  47.997  0.00  0.00    -0.644 OA
ENDBRANCH   5  25
BRANCH   2  28
ATOM     28  OAQ YFE d          19.167  26.228  49.198  0.00  0.00    -0.355 OA
BRANCH  28  29
ATOM     29  CAA YFE d          19.523  26.644  47.851  0.00  0.00     0.010 C 
ATOM     30  H11 YFE d          18.618  26.968  47.316  0.00  0.00     0.066 H 
ATOM     31  H12 YFE d          19.982  25.799  47.315  0.00  0.00     0.066 H 
ATOM     32  H13 YFE d          20.238  27.478  47.901  0.00  0.00     0.066 H 
ENDBRANCH  28  29
ENDBRANCH   2  28
BRANCH   4  33
ATOM     33  OAF YFE d          14.638  24.903  49.796  0.00  0.00    -0.359 OA
ATOM     34  H14 YFE d          14.236  25.410  49.100  0.00  0.00     0.217 HD
ENDBRANCH   4  33
BRANCH   1  35
ATOM     35  CAN YFE d          16.481  27.092  49.904  0.00  0.00    -0.020 C 
ATOM     36  H8  YFE d          16.935  27.806  49.202  0.00  0.00     0.046 H 
ATOM     37  H9  YFE d          15.387  27.197  49.878  0.00  0.00     0.046 H 
BRANCH  35  38
ATOM     38  CAG YFE d          16.950  27.345  51.205  0.00  0.00    -0.097 C 
ATOM     39  CAR YFE d          16.448  27.086  52.498  0.00  0.00    -0.091 C 
ATOM     40  H7  YFE d          17.913  27.855  51.217  0.00  0.00     0.077 H 
BRANCH  39  41
ATOM     41  CAB YFE d          15.122  26.355  52.777  0.00  0.00    -0.055 C 
ATOM     42  H1  YFE d          15.072  25.442  52.166  0.00  0.00     0.033 H 
ATOM     43  H2  YFE d          14.279  27.014  52.522  0.00  0.00     0.033 H 
ATOM     44  H3  YFE d          15.068  26.086  53.842  0.00  0.00     0.033 H 
ENDBRANCH  39  41
BRANCH  39  45
ATOM     45  CAC YFE d          17.281  27.530  53.725  0.00  0.00    -0.055 C 
ATOM     46  H4  YFE d          18.298  27.119  53.644  0.00  0.00     0.033 H 
ATOM     47  H5  YFE d          16.806  27.156  54.644  0.00  0.00     0.033 H 
ATOM     48  H6  YFE d          17.331  28.627  53.757  0.00  0.00     0.033 H 
ENDBRANCH  39  45
ENDBRANCH  35  38
ENDBRANCH   1  35
TORSDOF 11
ENDMDL
MODEL 5
REMARK VINA RESULT:      -5.9      1.996      3.361
REMARK  11 active torsions:
REMARK  status: ('A' for Active; 'I' for Inactive)
REMARK    1  A    between atoms: CAB_1  and  CAR_2 
REMARK    2  A    between atoms: CAR_2  and  CAC_3 
REMARK    3  A    between atoms: CAG_4  and  CAN_5 
REMARK    4  A    between atoms: CAN_5  and  CAX_6 
REMARK    5  A    between atoms: CAW_7  and  OAQ_9 
REMARK    6  A    between atoms: OAQ_9  and  CAA_10 
REMARK    7  A    between atoms: CAU_11  and  OAF_12 
REMARK    8  A    between atoms: CAY_13  and  CAS_14 
REMARK    9  A    between atoms: CAV_17  and  CAP_18 
REMARK   10  A    between atoms: CAP_18  and  CAO_19 
REMARK   11  A    between atoms: CAO_19  and  CAT_20 
ROOT
ATOM      1  CAX YFE d          16.444  22.015  48.273  0.00  0.00     0.013 A 
ATOM      2  CAW YFE d          17.796  22.219  47.987  0.00  0.00     0.078 A 
ATOM      3  CAM YFE d          18.433  23.431  48.253  0.00  0.00    -0.043 A 
ATOM      4  CAU YFE d          15.755  23.098  48.819  0.00  0.00     0.092 A 
ATOM      5  CAY YFE d          16.379  24.318  49.093  0.00  0.00     0.080 A 
ATOM      6  CAV YFE d          17.737  24.503  48.791  0.00  0.00    -0.035 A 
ATOM      7  H10 YFE d          19.489  23.537  48.035  0.00  0.00     0.088 H 
ENDROOT
BRANCH   6   8
ATOM      8  CAP YFE d          18.559  25.778  49.052  0.00  0.00    -0.036 C 
ATOM      9  H15 YFE d          17.864  26.626  49.136  0.00  0.00     0.040 H 
ATOM     10  H16 YFE d          19.231  25.938  48.196  0.00  0.00     0.040 H 
BRANCH   8  11
ATOM     11  CAO YFE d          19.402  25.727  50.314  0.00  0.00    -0.037 C 
ATOM     12  H17 YFE d          20.268  26.394  50.188  0.00  0.00     0.040 H 
ATOM     13  H18 YFE d          19.753  24.695  50.463  0.00  0.00     0.040 H 
BRANCH  11  14
ATOM     14  CAT YFE d          18.613  26.168  51.562  0.00  0.00    -0.058 A 
ATOM     15  CAK YFE d          18.478  25.338  52.674  0.00  0.00    -0.077 A 
ATOM     16  CAI YFE d          17.759  25.765  53.797  0.00  0.00    -0.082 A 
ATOM     17  H19 YFE d          18.933  24.354  52.669  0.00  0.00     0.084 H 
ATOM     18  CAH YFE d          17.170  27.029  53.801  0.00  0.00    -0.083 A 
ATOM     19  H20 YFE d          17.661  25.116  54.660  0.00  0.00     0.083 H 
ATOM     20  CAJ YFE d          17.302  27.870  52.685  0.00  0.00    -0.082 A 
ATOM     21  H21 YFE d          16.610  27.363  54.667  0.00  0.00     0.083 H 
ATOM     22  CAL YFE d          18.020  27.433  51.573  0.00  0.00    -0.077 A 
ATOM     23  H22 YFE d          16.847  28.854  52.688  0.00  0.00     0.083 H 
ATOM     24  H23 YFE d          18.120  28.080  50.709  0.00  0.00     0.084 H 
ENDBRANCH  11  14
ENDBRANCH   8  11
ENDBRANCH   6   8
BRANCH   5  25
ATOM     25  CAS YFE d          15.526  25.450  49.698  0.00  0.00     0.212 C 
ATOM     26  OAE YFE d          15.241  26.411  48.945  0.00  0.00    -0.644 OA
ATOM     27  OAD YFE d          15.191  25.378  50.903  0.00  0.00    -0.644 OA
ENDBRANCH   5  25
BRANCH   2  28
ATOM     28  OAQ YFE d          18.524  21.212  47.429  0.00  0.00    -0.355 OA
BRANCH  28  29
ATOM     29  CAA YFE d          19.777  21.036  48.146  0.00  0.00     0.010 C 
ATOM     30  H11 YFE d          20.443  20.380  47.567  0.00  0.00     0.066 H 
ATOM     31  H12 YFE d          19.578  20.581  49.128  0.00  0.00     0.066 H 
ATOM     32  H13 YFE d          20.260  22.015  48.288  0.00  0.00     0.066 H 
ENDBRANCH  28  29
ENDBRANCH   2  28
BRANCH   4  33
ATOM     33  OAF YFE d          14.433  22.963  49.109  0.00  0.00    -0.359 OA
ATOM     34  H14 YFE d          14.337  22.534  49.951  0.00  0.00     0.217 HD
ENDBRANCH   4  33
BRANCH   1  35
ATOM     35  CAN YFE d          15.727  20.660  48.004  0.00  0.00    -0.020 C 
ATOM     36  H8  YFE d          15.860  19.994  48.869  0.00  0.00     0.046 H 
ATOM     37  H9  YFE d          14.654  20.837  47.839  0.00  0.00     0.046 H 
BRANCH  35  38
ATOM     38  CAG YFE d          16.290  20.068  46.860  0.00  0.00    -0.097 C 
ATOM     39  CAR YFE d          16.483  18.735  46.438  0.00  0.00    -0.091 C 
ATOM     40  H7  YFE d          16.660  20.799  46.142  0.00  0.00     0.077 H 
BRANCH  39  41
ATOM     41  CAB YFE d          16.031  17.503  47.243  0.00  0.00    -0.055 C 
ATOM     42  H1  YFE d          16.910  16.901  47.516  0.00  0.00     0.033 H 
ATOM     43  H2  YFE d          15.347  16.896  46.631  0.00  0.00     0.033 H 
ATOM     44  H3  YFE d          15.513  17.831  48.156  0.00  0.00     0.033 H 
ENDBRANCH  39  41
BRANCH  39  45
ATOM     45  CAC YFE d          17.160  18.476  45.071  0.00  0.00    -0.055 C 
ATOM     46  H4  YFE d          17.082  19.377  44.446  0.00  0.00     0.033 H 
ATOM     47  H5  YFE d          16.659  17.636  44.567  0.00  0.00     0.033 H 
ATOM     48  H6  YFE d          18.220  18.230  45.228  0.00  0.00     0.033 H 
ENDBRANCH  39  45
ENDBRANCH  35  38
ENDBRANCH   1  35
TORSDOF 11
ENDMDL
MODEL 6
REMARK VINA RESULT:      -5.5      1.930      8.222
REMARK  11 active torsions:
REMARK  status: ('A' for Active; 'I' for Inactive)
REMARK    1  A    between atoms: CAB_1  and  CAR_2 
REMARK    2  A    between atoms: CAR_2  and  CAC_3 
REMARK    3  A    between atoms: CAG_4  and  CAN_5 
REMARK    4  A    between atoms: CAN_5  and  CAX_6 
REMARK    5  A    between atoms: CAW_7  and  OAQ_9 
REMARK    6  A    between atoms: OAQ_9  and  CAA_10 
REMARK    7  A    between atoms: CAU_11  and  OAF_12 
REMARK    8  A    between atoms: CAY_13  and  CAS_14 
REMARK    9  A    between atoms: CAV_17  and  CAP_18 
REMARK   10  A    between atoms: CAP_18  and  CAO_19 
REMARK   11  A    between atoms: CAO_19  and  CAT_20 
ROOT
ATOM      1  CAX YFE d          16.703  22.768  49.200  0.00  0.00     0.013 A 
ATOM      2  CAW YFE d          17.919  22.201  48.813  0.00  0.00     0.078 A 
ATOM      3  CAM YFE d          17.992  20.939  48.223  0.00  0.00    -0.043 A 
ATOM      4  CAU YFE d          15.562  21.995  48.987  0.00  0.00     0.092 A 
ATOM      5  CAY YFE d          15.617  20.731  48.396  0.00  0.00     0.080 A 
ATOM      6  CAV YFE d          16.851  20.176  48.020  0.00  0.00    -0.035 A 
ATOM      7  H10 YFE d          18.955  20.547  47.919  0.00  0.00     0.088 H 
ENDROOT
BRANCH   6   8
ATOM      8  CAP YFE d          17.065  18.810  47.346  0.00  0.00    -0.036 C 
ATOM      9  H15 YFE d          16.080  18.349  47.179  0.00  0.00     0.040 H 
ATOM     10  H16 YFE d          17.655  18.177  48.026  0.00  0.00     0.040 H 
BRANCH   8  11
ATOM     11  CAO YFE d          17.789  18.880  46.014  0.00  0.00    -0.037 C 
ATOM     12  H17 YFE d          18.810  18.491  46.145  0.00  0.00     0.040 H 
ATOM     13  H18 YFE d          17.835  19.931  45.691  0.00  0.00     0.040 H 
BRANCH  11  14
ATOM     14  CAT YFE d          17.082  18.057  44.919  0.00  0.00    -0.058 A 
ATOM     15  CAK YFE d          15.743  17.687  45.032  0.00  0.00    -0.077 A 
ATOM     16  CAI YFE d          15.123  16.942  44.021  0.00  0.00    -0.082 A 
ATOM     17  H19 YFE d          15.176  17.979  45.909  0.00  0.00     0.084 H 
ATOM     18  CAH YFE d          15.854  16.564  42.895  0.00  0.00    -0.083 A 
ATOM     19  H20 YFE d          14.080  16.661  44.112  0.00  0.00     0.083 H 
ATOM     20  CAJ YFE d          17.203  16.932  42.775  0.00  0.00    -0.082 A 
ATOM     21  H21 YFE d          15.380  15.984  42.111  0.00  0.00     0.083 H 
ATOM     22  CAL YFE d          17.808  17.674  43.789  0.00  0.00    -0.077 A 
ATOM     23  H22 YFE d          17.771  16.641  41.899  0.00  0.00     0.083 H 
ATOM     24  H23 YFE d          18.850  17.956  43.699  0.00  0.00     0.084 H 
ENDBRANCH  11  14
ENDBRANCH   8  11
ENDBRANCH   6   8
BRANCH   5  25
ATOM     25  CAS YFE d          14.296  19.960  48.204  0.00  0.00     0.212 C 
ATOM     26  OAE YFE d          14.190  18.860  48.796  0.00  0.00    -0.644 OA
ATOM     27  OAD YFE d          13.418  20.442  47.451  0.00  0.00    -0.644 OA
ENDBRANCH   5  25
BRANCH   2  28
ATOM     28  OAQ YFE d          19.077  22.890  49.015  0.00  0.00    -0.355 OA
BRANCH  28  29
ATOM     29  CAA YFE d          19.843  22.966  47.781  0.00  0.00     0.010 C 
ATOM     30  H11 YFE d          20.535  22.113  47.725  0.00  0.00     0.066 H 
ATOM     31  H12 YFE d          20.416  23.905  47.762  0.00  0.00     0.066 H 
ATOM     32  H13 YFE d          19.157  22.939  46.921  0.00  0.00     0.066 H 
ENDBRANCH  28  29
ENDBRANCH   2  28
BRANCH   4  33
ATOM     33  OAF YFE d          14.349  22.490  49.352  0.00  0.00    -0.359 OA
ATOM     34  H14 YFE d          14.329  22.615  50.294  0.00  0.00     0.217 HD
ENDBRANCH   4  33
BRANCH   1  35
ATOM     35  CAN YFE d          16.606  24.185  49.837  0.00  0.00    -0.020 C 
ATOM     36  H8  YFE d          15.549  24.459  49.967  0.00  0.00     0.046 H 
ATOM     37  H9  YFE d          17.108  24.185  50.816  0.00  0.00     0.046 H 
BRANCH  35  38
ATOM     38  CAG YFE d          17.232  25.110  48.984  0.00  0.00    -0.097 C 
ATOM     39  CAR YFE d          18.164  26.152  49.179  0.00  0.00    -0.091 C 
ATOM     40  H7  YFE d          16.932  24.998  47.942  0.00  0.00     0.077 H 
BRANCH  39  41
ATOM     41  CAB YFE d          18.779  26.513  50.543  0.00  0.00    -0.055 C 
ATOM     42  H1  YFE d          18.044  27.074  51.140  0.00  0.00     0.033 H 
ATOM     43  H2  YFE d          19.676  27.132  50.389  0.00  0.00     0.033 H 
ATOM     44  H3  YFE d          19.057  25.592  51.076  0.00  0.00     0.033 H 
ENDBRANCH  39  41
BRANCH  39  45
ATOM     45  CAC YFE d          18.632  26.974  47.954  0.00  0.00    -0.055 C 
ATOM     46  H4  YFE d          18.767  26.303  47.093  0.00  0.00     0.033 H 
ATOM     47  H5  YFE d          19.587  27.467  48.188  0.00  0.00     0.033 H 
ATOM     48  H6  YFE d          17.876  27.734  47.711  0.00  0.00     0.033 H 
ENDBRANCH  39  45
ENDBRANCH  35  38
ENDBRANCH   1  35
TORSDOF 11
ENDMDL
