MODEL 1
REMARK VINA RESULT:      -9.3      0.000      0.000
REMARK  7 active torsions:
REMARK  status: ('A' for Active; 'I' for Inactive)
REMARK    1  A    between atoms: C1_1  and  C6_6 
REMARK    2  A    between atoms: C7_7  and  C2_2 
REMARK    3  A    between atoms: N4_4  and  C33_33 
REMARK       I    between atoms: C6_6  and  N11_11 
REMARK       I    between atoms: N8_8  and  C7_7 
REMARK    4  A    between atoms: C19_19  and  N8_8 
REMARK    5  A    between atoms: N11_11  and  C12_12 
REMARK    6  A    between atoms: N25_25  and  C21_21 
REMARK    7  A    between atoms: C33_33  and  C34_34 
ROOT
ATOM      1  C1  XBV d           8.375  67.785   4.121  0.00  0.00     0.060 C 
ATOM      2  C2  XBV d           7.565  67.244   2.933  0.00  0.00     0.060 C 
ATOM      3  C3  XBV d           6.486  68.319   2.678  0.00  0.00     0.096 C 
ATOM      4  N4  XBV d           7.207  69.574   3.060  0.00  0.00    -0.064 N 
ATOM      5  C5  XBV d           8.013  69.277   4.270  0.00  0.00     0.096 C 
ATOM      6  H1  XBV d           8.048  67.262   5.031  0.00  0.00     0.058 H 
ATOM      7  H2  XBV d           8.205  67.120   2.047  0.00  0.00     0.058 H 
ATOM      8  H3  XBV d           5.602  68.156   3.311  0.00  0.00     0.077 H 
ATOM      9  H4  XBV d           6.183  68.338   1.620  0.00  0.00     0.077 H 
ATOM     10  H5  XBV d           7.816  69.853   2.308  0.00  0.00     0.280 HD
ATOM     11  H6  XBV d           8.921  69.899   4.296  0.00  0.00     0.077 H 
ATOM     12  H7  XBV d           7.425  69.448   5.183  0.00  0.00     0.077 H 
ENDROOT
BRANCH   2  13
ATOM     13  C7  XBV d           6.940  65.913   3.294  0.00  0.00     0.229 C 
ATOM     14  N8  XBV d           7.675  64.875   2.997  0.00  0.00    -0.324 N 
ATOM     15  H8  XBV d           8.580  65.053   2.609  0.00  0.00     0.169 HD
ATOM     16  O9  XBV d           5.868  65.815   3.870  0.00  0.00    -0.273 OA
BRANCH  14  17
ATOM     17  C19 XBV d           7.305  63.524   3.173  0.00  0.00     0.073 A 
ATOM     18  C20 XBV d           6.938  62.963   4.401  0.00  0.00    -0.052 A 
ATOM     19  C23 XBV d           6.642  61.597   4.444  0.00  0.00    -0.054 A 
ATOM     20  H13 XBV d           6.883  63.571   5.296  0.00  0.00     0.087 H 
ATOM     21  C21 XBV d           6.771  60.836   3.278  0.00  0.00     0.045 A 
ATOM     22  H15 XBV d           6.318  61.134   5.369  0.00  0.00     0.087 H 
ATOM     23  C22 XBV d           7.147  61.404   2.052  0.00  0.00    -0.017 A 
ATOM     24  C24 XBV d           7.372  62.787   2.024  0.00  0.00     0.145 A 
ATOM     25  H14 XBV d           7.259  60.798   1.161  0.00  0.00     0.091 H 
ATOM     26  F32 XBV d           7.757  63.355   0.871  0.00  0.00    -0.204 F 
BRANCH  21  27
ATOM     27  N25 XBV d           6.491  59.436   3.254  0.00  0.00    -0.290 N 
ATOM     28  C26 XBV d           7.417  58.530   3.793  0.00  0.00    -0.011 A 
ATOM     29  C29 XBV d           7.183  57.189   3.752  0.00  0.00    -0.067 A 
ATOM     30  H16 XBV d           8.333  58.904   4.249  0.00  0.00     0.112 H 
ATOM     31  C27 XBV d           6.002  56.691   3.188  0.00  0.00    -0.076 A 
ATOM     32  H19 XBV d           7.920  56.499   4.161  0.00  0.00     0.085 H 
ATOM     33  C28 XBV d           5.077  57.563   2.656  0.00  0.00    -0.017 A 
ATOM     34  H17 XBV d           5.816  55.619   3.170  0.00  0.00     0.083 H 
ATOM     35  C30 XBV d           5.297  58.986   2.677  0.00  0.00     0.252 A 
ATOM     36  H18 XBV d           4.163  57.169   2.213  0.00  0.00     0.092 H 
ATOM     37  O31 XBV d           4.494  59.790   2.187  0.00  0.00    -0.268 OA
ENDBRANCH  21  27
ENDBRANCH  14  17
ENDBRANCH   2  13
BRANCH   1  38
ATOM     38  C6  XBV d           9.855  67.533   3.974  0.00  0.00     0.230 C 
ATOM     39  O10 XBV d          10.642  68.419   3.678  0.00  0.00    -0.273 OA
ATOM     40  N11 XBV d          10.269  66.288   4.303  0.00  0.00    -0.311 N 
ATOM     41  H9  XBV d           9.585  65.704   4.739  0.00  0.00     0.170 HD
BRANCH  40  42
ATOM     42  C12 XBV d          11.523  65.711   4.116  0.00  0.00     0.129 A 
ATOM     43  N13 XBV d          12.391  65.679   5.140  0.00  0.00    -0.242 NA
ATOM     44  C16 XBV d          13.682  65.281   4.978  0.00  0.00     0.025 A 
ATOM     45  C14 XBV d          14.156  64.931   3.699  0.00  0.00     0.051 A 
ATOM     46  H11 XBV d          14.345  65.234   5.834  0.00  0.00     0.117 H 
ATOM     47  C15 XBV d          13.268  64.978   2.607  0.00  0.00    -0.057 A 
ATOM     48 CL1  XBV d          15.821  64.519   3.427  0.00  0.00    -0.083 Cl
ATOM     49  C17 XBV d          11.949  65.389   2.818  0.00  0.00    -0.037 A 
ATOM     50  H10 XBV d          13.602  64.698   1.614  0.00  0.00     0.086 H 
ATOM     51  H12 XBV d          11.260  65.461   1.985  0.00  0.00     0.089 H 
ENDBRANCH  40  42
ENDBRANCH   1  38
BRANCH   4  52
ATOM     52  C33 XBV d           6.257  70.665   3.333  0.00  0.00     0.137 C 
ATOM     53  H20 XBV d           5.915  70.589   4.376  0.00  0.00     0.084 H 
ATOM     54  H21 XBV d           5.396  70.567   2.657  0.00  0.00     0.084 H 
BRANCH  52  55
ATOM     55  C34 XBV d           6.903  72.036   3.121  0.00  0.00     0.231 C 
ATOM     56  F35 XBV d           7.389  72.590   4.309  0.00  0.00    -0.213 F 
ATOM     57  F36 XBV d           8.016  71.836   2.332  0.00  0.00    -0.213 F 
ATOM     58  H22 XBV d           6.186  72.721   2.644  0.00  0.00     0.147 H 
ENDBRANCH  52  55
ENDBRANCH   4  52
TORSDOF 7
ENDMDL
MODEL 2
REMARK VINA RESULT:      -7.8      3.588      5.839
REMARK  7 active torsions:
REMARK  status: ('A' for Active; 'I' for Inactive)
REMARK    1  A    between atoms: C1_1  and  C6_6 
REMARK    2  A    between atoms: C7_7  and  C2_2 
REMARK    3  A    between atoms: N4_4  and  C33_33 
REMARK       I    between atoms: C6_6  and  N11_11 
REMARK       I    between atoms: N8_8  and  C7_7 
REMARK    4  A    between atoms: C19_19  and  N8_8 
REMARK    5  A    between atoms: N11_11  and  C12_12 
REMARK    6  A    between atoms: N25_25  and  C21_21 
REMARK    7  A    between atoms: C33_33  and  C34_34 
ROOT
ATOM      1  C1  XBV d          10.105  66.203   2.049  0.00  0.00     0.060 C 
ATOM      2  C2  XBV d           9.986  65.450   3.383  0.00  0.00     0.060 C 
ATOM      3  C3  XBV d          11.322  64.686   3.516  0.00  0.00     0.096 C 
ATOM      4  N4  XBV d          12.278  65.618   2.839  0.00  0.00    -0.064 N 
ATOM      5  C5  XBV d          11.593  66.174   1.646  0.00  0.00     0.096 C 
ATOM      6  H1  XBV d           9.534  65.651   1.288  0.00  0.00     0.058 H 
ATOM      7  H2  XBV d           9.858  66.154   4.219  0.00  0.00     0.058 H 
ATOM      8  H3  XBV d          11.279  63.714   3.003  0.00  0.00     0.077 H 
ATOM      9  H4  XBV d          11.592  64.533   4.571  0.00  0.00     0.077 H 
ATOM     10  H5  XBV d          12.519  66.367   3.469  0.00  0.00     0.280 HD
ATOM     11  H6  XBV d          11.958  67.188   1.423  0.00  0.00     0.077 H 
ATOM     12  H7  XBV d          11.749  65.528   0.769  0.00  0.00     0.077 H 
ENDROOT
BRANCH   2  13
ATOM     13  C7  XBV d           8.810  64.498   3.340  0.00  0.00     0.229 C 
ATOM     14  N8  XBV d           9.128  63.241   3.492  0.00  0.00    -0.324 N 
ATOM     15  H8  XBV d          10.092  63.033   3.665  0.00  0.00     0.169 HD
ATOM     16  O9  XBV d           7.653  64.874   3.234  0.00  0.00    -0.273 OA
BRANCH  14  17
ATOM     17  C19 XBV d           8.234  62.150   3.435  0.00  0.00     0.073 A 
ATOM     18  C20 XBV d           7.354  61.799   4.465  0.00  0.00    -0.052 A 
ATOM     19  C23 XBV d           6.557  60.663   4.298  0.00  0.00    -0.054 A 
ATOM     20  H13 XBV d           7.292  62.393   5.369  0.00  0.00     0.087 H 
ATOM     21  C21 XBV d           6.702  59.895   3.138  0.00  0.00     0.045 A 
ATOM     22  H15 XBV d           5.837  60.381   5.056  0.00  0.00     0.087 H 
ATOM     23  C22 XBV d           7.591  60.249   2.113  0.00  0.00    -0.017 A 
ATOM     24  C24 XBV d           8.329  61.429   2.278  0.00  0.00     0.145 A 
ATOM     25  H14 XBV d           7.704  59.634   1.228  0.00  0.00     0.091 H 
ATOM     26  F32 XBV d           9.207  61.780   1.326  0.00  0.00    -0.204 F 
BRANCH  21  27
ATOM     27  N25 XBV d           5.924  58.721   2.907  0.00  0.00    -0.290 N 
ATOM     28  C26 XBV d           4.701  58.818   2.225  0.00  0.00    -0.011 A 
ATOM     29  C29 XBV d           3.929  57.714   2.021  0.00  0.00    -0.067 A 
ATOM     30  H16 XBV d           4.366  59.786   1.855  0.00  0.00     0.112 H 
ATOM     31  C27 XBV d           4.353  56.458   2.471  0.00  0.00    -0.076 A 
ATOM     32  H19 XBV d           2.975  57.810   1.504  0.00  0.00     0.085 H 
ATOM     33  C28 XBV d           5.552  56.339   3.139  0.00  0.00    -0.017 A 
ATOM     34  H17 XBV d           3.736  55.578   2.294  0.00  0.00     0.083 H 
ATOM     35  C30 XBV d           6.388  57.487   3.378  0.00  0.00     0.252 A 
ATOM     36  H18 XBV d           5.873  55.360   3.493  0.00  0.00     0.092 H 
ATOM     37  O31 XBV d           7.459  57.413   3.994  0.00  0.00    -0.268 OA
ENDBRANCH  21  27
ENDBRANCH  14  17
ENDBRANCH   2  13
BRANCH   1  38
ATOM     38  C6  XBV d           9.522  67.592   2.117  0.00  0.00     0.230 C 
ATOM     39  O10 XBV d          10.217  68.585   2.277  0.00  0.00    -0.273 OA
ATOM     40  N11 XBV d           8.195  67.681   1.872  0.00  0.00    -0.311 N 
ATOM     41  H9  XBV d           7.759  66.846   1.538  0.00  0.00     0.170 HD
BRANCH  40  42
ATOM     42  C12 XBV d           7.354  68.781   2.024  0.00  0.00     0.129 A 
ATOM     43  N13 XBV d           7.165  69.300   3.249  0.00  0.00    -0.242 NA
ATOM     44  C16 XBV d           6.235  70.262   3.488  0.00  0.00     0.025 A 
ATOM     45  C14 XBV d           5.402  70.712   2.444  0.00  0.00     0.051 A 
ATOM     46  H11 XBV d           6.134  70.684   4.481  0.00  0.00     0.117 H 
ATOM     47  C15 XBV d           5.568  70.165   1.157  0.00  0.00    -0.057 A 
ATOM     48 CL1  XBV d           4.131  71.862   2.726  0.00  0.00    -0.083 Cl
ATOM     49  C17 XBV d           6.538  69.180   0.955  0.00  0.00    -0.037 A 
ATOM     50  H10 XBV d           4.951  70.505   0.333  0.00  0.00     0.086 H 
ATOM     51  H12 XBV d           6.660  68.727  -0.022  0.00  0.00     0.089 H 
ENDBRANCH  40  42
ENDBRANCH   1  38
BRANCH   4  52
ATOM     52  C33 XBV d          13.508  64.915   2.441  0.00  0.00     0.137 C 
ATOM     53  H20 XBV d          13.912  65.386   1.533  0.00  0.00     0.084 H 
ATOM     54  H21 XBV d          13.267  63.863   2.232  0.00  0.00     0.084 H 
BRANCH  52  55
ATOM     55  C34 XBV d          14.568  64.973   3.543  0.00  0.00     0.231 C 
ATOM     56  F35 XBV d          14.104  65.605   4.701  0.00  0.00    -0.213 F 
ATOM     57  F36 XBV d          14.826  63.671   3.919  0.00  0.00    -0.213 F 
ATOM     58  H22 XBV d          15.474  65.473   3.170  0.00  0.00     0.147 H 
ENDBRANCH  52  55
ENDBRANCH   4  52
TORSDOF 7
ENDMDL
MODEL 3
REMARK VINA RESULT:      -6.8      3.343      7.468
REMARK  7 active torsions:
REMARK  status: ('A' for Active; 'I' for Inactive)
REMARK    1  A    between atoms: C1_1  and  C6_6 
REMARK    2  A    between atoms: C7_7  and  C2_2 
REMARK    3  A    between atoms: N4_4  and  C33_33 
REMARK       I    between atoms: C6_6  and  N11_11 
REMARK       I    between atoms: N8_8  and  C7_7 
REMARK    4  A    between atoms: C19_19  and  N8_8 
REMARK    5  A    between atoms: N11_11  and  C12_12 
REMARK    6  A    between atoms: N25_25  and  C21_21 
REMARK    7  A    between atoms: C33_33  and  C34_34 
ROOT
ATOM      1  C1  XBV d           5.661  66.232   1.123  0.00  0.00     0.060 C 
ATOM      2  C2  XBV d           5.509  66.930   2.484  0.00  0.00     0.060 C 
ATOM      3  C3  XBV d           5.199  68.401   2.132  0.00  0.00     0.096 C 
ATOM      4  N4  XBV d           4.428  68.256   0.857  0.00  0.00    -0.064 N 
ATOM      5  C5  XBV d           5.074  67.184   0.061  0.00  0.00     0.096 C 
ATOM      6  H1  XBV d           6.734  66.108   0.916  0.00  0.00     0.058 H 
ATOM      7  H2  XBV d           4.682  66.487   3.060  0.00  0.00     0.058 H 
ATOM      8  H3  XBV d           6.122  68.979   1.979  0.00  0.00     0.077 H 
ATOM      9  H4  XBV d           4.592  68.880   2.915  0.00  0.00     0.077 H 
ATOM     10  H5  XBV d           3.477  67.994   1.068  0.00  0.00     0.280 HD
ATOM     11  H6  XBV d           4.335  66.663  -0.566  0.00  0.00     0.077 H 
ATOM     12  H7  XBV d           5.870  67.597  -0.577  0.00  0.00     0.077 H 
ENDROOT
BRANCH   2  13
ATOM     13  C7  XBV d           6.794  66.812   3.275  0.00  0.00     0.229 C 
ATOM     14  N8  XBV d           7.867  66.678   2.543  0.00  0.00    -0.324 N 
ATOM     15  H8  XBV d           7.748  66.711   1.550  0.00  0.00     0.169 HD
ATOM     16  O9  XBV d           6.836  66.897   4.493  0.00  0.00    -0.273 OA
BRANCH  14  17
ATOM     17  C19 XBV d           9.180  66.492   3.028  0.00  0.00     0.073 A 
ATOM     18  C20 XBV d          10.024  67.531   3.434  0.00  0.00    -0.052 A 
ATOM     19  C23 XBV d          11.320  67.210   3.847  0.00  0.00    -0.054 A 
ATOM     20  H13 XBV d           9.682  68.559   3.428  0.00  0.00     0.087 H 
ATOM     21  C21 XBV d          11.741  65.877   3.794  0.00  0.00     0.045 A 
ATOM     22  H15 XBV d          11.991  67.983   4.204  0.00  0.00     0.087 H 
ATOM     23  C22 XBV d          10.891  64.841   3.379  0.00  0.00    -0.017 A 
ATOM     24  C24 XBV d           9.577  65.183   3.034  0.00  0.00     0.145 A 
ATOM     25  H14 XBV d          11.237  63.815   3.327  0.00  0.00     0.091 H 
ATOM     26  F32 XBV d           8.748  64.218   2.609  0.00  0.00    -0.204 F 
BRANCH  21  27
ATOM     27  N25 XBV d          13.052  65.481   4.195  0.00  0.00    -0.290 N 
ATOM     28  C26 XBV d          13.412  65.534   5.550  0.00  0.00    -0.011 A 
ATOM     29  C29 XBV d          14.667  65.189   5.951  0.00  0.00    -0.067 A 
ATOM     30  H16 XBV d          12.679  65.853   6.290  0.00  0.00     0.112 H 
ATOM     31  C27 XBV d          15.617  64.757   5.017  0.00  0.00    -0.076 A 
ATOM     32  H19 XBV d          14.935  65.250   7.005  0.00  0.00     0.085 H 
ATOM     33  C28 XBV d          15.284  64.694   3.681  0.00  0.00    -0.017 A 
ATOM     34  H17 XBV d          16.615  64.472   5.345  0.00  0.00     0.083 H 
ATOM     35  C30 XBV d          13.967  65.058   3.224  0.00  0.00     0.252 A 
ATOM     36  H18 XBV d          16.029  64.363   2.959  0.00  0.00     0.092 H 
ATOM     37  O31 XBV d          13.648  65.032   2.028  0.00  0.00    -0.268 OA
ENDBRANCH  21  27
ENDBRANCH  14  17
ENDBRANCH   2  13
BRANCH   1  38
ATOM     38  C6  XBV d           5.046  64.855   1.108  0.00  0.00     0.230 C 
ATOM     39  O10 XBV d           3.851  64.676   0.932  0.00  0.00    -0.273 OA
ATOM     40  N11 XBV d           5.920  63.825   1.187  0.00  0.00    -0.311 N 
ATOM     41  H9  XBV d           6.886  64.070   1.109  0.00  0.00     0.170 HD
BRANCH  40  42
ATOM     42  C12 XBV d           5.653  62.470   1.363  0.00  0.00     0.129 A 
ATOM     43  N13 XBV d           5.223  61.744   0.317  0.00  0.00    -0.242 NA
ATOM     44  C16 XBV d           4.790  60.463   0.460  0.00  0.00     0.025 A 
ATOM     45  C14 XBV d           4.739  59.874   1.739  0.00  0.00     0.051 A 
ATOM     46  H11 XBV d           4.483  59.895  -0.411  0.00  0.00     0.117 H 
ATOM     47  C15 XBV d           5.165  60.625   2.852  0.00  0.00    -0.057 A 
ATOM     48 CL1  XBV d           4.095  58.279   1.981  0.00  0.00    -0.083 Cl
ATOM     49  C17 XBV d           5.605  61.937   2.660  0.00  0.00    -0.037 A 
ATOM     50  H10 XBV d           5.151  60.191   3.845  0.00  0.00     0.086 H 
ATOM     51  H12 XBV d           5.908  62.540   3.508  0.00  0.00     0.089 H 
ENDBRANCH  40  42
ENDBRANCH   1  38
BRANCH   4  52
ATOM     52  C33 XBV d           4.416  69.519   0.101  0.00  0.00     0.137 C 
ATOM     53  H20 XBV d           3.456  69.610  -0.428  0.00  0.00     0.084 H 
ATOM     54  H21 XBV d           5.237  69.505  -0.630  0.00  0.00     0.084 H 
BRANCH  52  55
ATOM     55  C34 XBV d           4.591  70.727   1.024  0.00  0.00     0.231 C 
ATOM     56  F35 XBV d           5.796  71.401   0.802  0.00  0.00    -0.213 F 
ATOM     57  F36 XBV d           3.603  71.630   0.693  0.00  0.00    -0.213 F 
ATOM     58  H22 XBV d           4.515  70.412   2.075  0.00  0.00     0.147 H 
ENDBRANCH  52  55
ENDBRANCH   4  52
TORSDOF 7
ENDMDL
MODEL 4
REMARK VINA RESULT:      -6.8      2.050      2.483
REMARK  7 active torsions:
REMARK  status: ('A' for Active; 'I' for Inactive)
REMARK    1  A    between atoms: C1_1  and  C6_6 
REMARK    2  A    between atoms: C7_7  and  C2_2 
REMARK    3  A    between atoms: N4_4  and  C33_33 
REMARK       I    between atoms: C6_6  and  N11_11 
REMARK       I    between atoms: N8_8  and  C7_7 
REMARK    4  A    between atoms: C19_19  and  N8_8 
REMARK    5  A    between atoms: N11_11  and  C12_12 
REMARK    6  A    between atoms: N25_25  and  C21_21 
REMARK    7  A    between atoms: C33_33  and  C34_34 
ROOT
ATOM      1  C1  XBV d           7.855  66.991   3.612  0.00  0.00     0.060 C 
ATOM      2  C2  XBV d           7.409  66.808   2.154  0.00  0.00     0.060 C 
ATOM      3  C3  XBV d           6.107  67.630   2.041  0.00  0.00     0.096 C 
ATOM      4  N4  XBV d           6.366  68.750   2.999  0.00  0.00    -0.064 N 
ATOM      5  C5  XBV d           7.053  68.178   4.183  0.00  0.00     0.096 C 
ATOM      6  H1  XBV d           7.577  66.088   4.175  0.00  0.00     0.058 H 
ATOM      7  H2  XBV d           8.171  67.195   1.460  0.00  0.00     0.058 H 
ATOM      8  H3  XBV d           5.232  67.037   2.347  0.00  0.00     0.077 H 
ATOM      9  H4  XBV d           5.956  68.005   1.018  0.00  0.00     0.077 H 
ATOM     10  H5  XBV d           6.963  69.435   2.561  0.00  0.00     0.280 HD
ATOM     11  H6  XBV d           7.725  68.920   4.641  0.00  0.00     0.077 H 
ATOM     12  H7  XBV d           6.323  67.834   4.930  0.00  0.00     0.077 H 
ENDROOT
BRANCH   2  13
ATOM     13  C7  XBV d           7.162  65.343   1.865  0.00  0.00     0.229 C 
ATOM     14  N8  XBV d           7.044  64.597   2.930  0.00  0.00    -0.324 N 
ATOM     15  H8  XBV d           7.081  65.059   3.817  0.00  0.00     0.169 HD
ATOM     16  O9  XBV d           7.022  64.902   0.735  0.00  0.00    -0.273 OA
BRANCH  14  17
ATOM     17  C19 XBV d           6.868  63.196   2.941  0.00  0.00     0.073 A 
ATOM     18  C20 XBV d           7.912  62.271   2.826  0.00  0.00    -0.052 A 
ATOM     19  C23 XBV d           7.593  60.911   2.800  0.00  0.00    -0.054 A 
ATOM     20  H13 XBV d           8.942  62.602   2.757  0.00  0.00     0.087 H 
ATOM     21  C21 XBV d           6.249  60.526   2.841  0.00  0.00     0.045 A 
ATOM     22  H15 XBV d           8.376  60.163   2.750  0.00  0.00     0.087 H 
ATOM     23  C22 XBV d           5.207  61.459   2.950  0.00  0.00    -0.017 A 
ATOM     24  C24 XBV d           5.560  62.812   3.040  0.00  0.00     0.145 A 
ATOM     25  H14 XBV d           4.170  61.146   2.963  0.00  0.00     0.091 H 
ATOM     26  F32 XBV d           4.585  63.730   3.120  0.00  0.00    -0.204 F 
BRANCH  21  27
ATOM     27  N25 XBV d           5.854  59.155   2.813  0.00  0.00    -0.290 N 
ATOM     28  C26 XBV d           4.638  58.792   2.214  0.00  0.00    -0.011 A 
ATOM     29  C29 XBV d           4.228  57.493   2.203  0.00  0.00    -0.067 A 
ATOM     30  H16 XBV d           4.016  59.557   1.751  0.00  0.00     0.112 H 
ATOM     31  C27 XBV d           5.024  56.492   2.775  0.00  0.00    -0.076 A 
ATOM     32  H19 XBV d           3.274  57.230   1.747  0.00  0.00     0.085 H 
ATOM     33  C28 XBV d           6.223  56.825   3.366  0.00  0.00    -0.017 A 
ATOM     34  H17 XBV d           4.695  55.455   2.752  0.00  0.00     0.083 H 
ATOM     35  C30 XBV d           6.683  58.191   3.400  0.00  0.00     0.252 A 
ATOM     36  H18 XBV d           6.834  56.044   3.814  0.00  0.00     0.092 H 
ATOM     37  O31 XBV d           7.745  58.521   3.943  0.00  0.00    -0.268 OA
ENDBRANCH  21  27
ENDBRANCH  14  17
ENDBRANCH   2  13
BRANCH   1  38
ATOM     38  C6  XBV d           9.349  67.150   3.743  0.00  0.00     0.230 C 
ATOM     39  O10 XBV d           9.876  68.235   3.942  0.00  0.00    -0.273 OA
ATOM     40  N11 XBV d          10.061  66.000   3.742  0.00  0.00    -0.311 N 
ATOM     41  H9  XBV d           9.524  65.158   3.794  0.00  0.00     0.170 HD
BRANCH  40  42
ATOM     42  C12 XBV d          11.442  65.831   3.679  0.00  0.00     0.129 A 
ATOM     43  N13 XBV d          12.019  65.571   2.494  0.00  0.00    -0.242 NA
ATOM     44  C16 XBV d          13.332  65.234   2.391  0.00  0.00     0.025 A 
ATOM     45  C14 XBV d          14.120  65.105   3.552  0.00  0.00     0.051 A 
ATOM     46  H11 XBV d          13.773  65.065   1.415  0.00  0.00     0.117 H 
ATOM     47  C15 XBV d          13.530  65.352   4.806  0.00  0.00    -0.057 A 
ATOM     48 CL1  XBV d          15.772  64.576   3.475  0.00  0.00    -0.083 Cl
ATOM     49  C17 XBV d          12.177  65.699   4.866  0.00  0.00    -0.037 A 
ATOM     50  H10 XBV d          14.117  65.276   5.714  0.00  0.00     0.086 H 
ATOM     51  H12 XBV d          11.699  65.863   5.825  0.00  0.00     0.089 H 
ENDBRANCH  40  42
ENDBRANCH   1  38
BRANCH   4  52
ATOM     52  C33 XBV d           5.110  69.403   3.402  0.00  0.00     0.137 C 
ATOM     53  H20 XBV d           4.655  69.878   2.521  0.00  0.00     0.084 H 
ATOM     54  H21 XBV d           5.332  70.170   4.159  0.00  0.00     0.084 H 
BRANCH  52  55
ATOM     55  C34 XBV d           4.119  68.397   3.991  0.00  0.00     0.231 C 
ATOM     56  F35 XBV d           4.556  67.075   3.861  0.00  0.00    -0.213 F 
ATOM     57  F36 XBV d           4.069  68.631   5.349  0.00  0.00    -0.213 F 
ATOM     58  H22 XBV d           3.131  68.522   3.523  0.00  0.00     0.147 H 
ENDBRANCH  52  55
ENDBRANCH   4  52
TORSDOF 7
ENDMDL
