MODEL 1
REMARK VINA RESULT:      -7.3      0.000      0.000
REMARK  5 active torsions:
REMARK  status: ('A' for Active; 'I' for Inactive)
REMARK    1  A    between atoms: C1_1  and  O4_4 
REMARK    2  A    between atoms: C2_2  and  O5_5 
REMARK    3  A    between atoms: C3_3  and  O7_7 
REMARK    4  A    between atoms: C8_8  and  C9_9 
REMARK    5  A    between atoms: C9_9  and  O11_11 
ROOT
ATOM      1  C1  MNM d          27.788  47.338   0.061  0.00  0.00     0.110 C 
ATOM      2  C2  MNM d          27.528  45.929  -0.496  0.00  0.00     0.217 C 
ATOM      3  C3  MNM d          27.327  48.426  -0.931  0.00  0.00     0.071 C 
ATOM      4  N6  MNM d          27.801  45.840  -1.926  0.00  0.00    -0.046 N 
ATOM      5  C8  MNM d          26.408  47.890  -2.065  0.00  0.00     0.017 C 
ATOM      6  C10 MNM d          27.199  46.824  -2.838  0.00  0.00     0.092 C 
ATOM      7  H1  MNM d          27.216  47.450   0.994  0.00  0.00     0.093 H 
ATOM      8  H2  MNM d          26.469  45.694  -0.314  0.00  0.00     0.133 H 
ATOM      9  H3  MNM d          28.231  48.821  -1.417  0.00  0.00     0.087 H 
ATOM     10  H6  MNM d          27.490  44.930  -2.229  0.00  0.00     0.280 HD
ATOM     11  H7  MNM d          28.800  45.908  -2.038  0.00  0.00     0.280 HD
ATOM     12  H9  MNM d          25.539  47.404  -1.598  0.00  0.00     0.049 H 
ATOM     13  H12 MNM d          26.518  46.304  -3.528  0.00  0.00     0.076 H 
ATOM     14  H13 MNM d          27.997  47.316  -3.412  0.00  0.00     0.076 H 
ENDROOT
BRANCH   5  15
ATOM     15  C9  MNM d          25.867  49.005  -2.997  0.00  0.00     0.024 C 
ATOM     16  H10 MNM d          25.027  49.514  -2.501  0.00  0.00     0.074 H 
ATOM     17  H11 MNM d          25.518  48.552  -3.936  0.00  0.00     0.074 H 
BRANCH  15  18
ATOM     18  O11 MNM d          26.887  49.956  -3.286  0.00  0.00    -0.400 OA
ATOM     19  H14 MNM d          26.786  50.710  -2.716  0.00  0.00     0.209 HD
ENDBRANCH  15  18
ENDBRANCH   5  15
BRANCH   3  20
ATOM     20  O7  MNM d          26.710  49.515  -0.223  0.00  0.00    -0.392 OA
ATOM     21  H8  MNM d          27.252  49.757   0.518  0.00  0.00     0.210 HD
ENDBRANCH   3  20
BRANCH   1  22
ATOM     22  O4  MNM d          29.182  47.519   0.354  0.00  0.00    -0.389 OA
ATOM     23  H4  MNM d          29.275  48.128   1.077  0.00  0.00     0.210 HD
ENDBRANCH   1  22
BRANCH   2  24
ATOM     24  O5  MNM d          28.332  44.912   0.089  0.00  0.00    -0.368 OA
ATOM     25  H5  MNM d          28.104  44.072  -0.291  0.00  0.00     0.212 HD
ENDBRANCH   2  24
TORSDOF 5
ENDMDL
MODEL 2
REMARK VINA RESULT:      -5.9      1.759      2.557
REMARK  5 active torsions:
REMARK  status: ('A' for Active; 'I' for Inactive)
REMARK    1  A    between atoms: C1_1  and  O4_4 
REMARK    2  A    between atoms: C2_2  and  O5_5 
REMARK    3  A    between atoms: C3_3  and  O7_7 
REMARK    4  A    between atoms: C8_8  and  C9_9 
REMARK    5  A    between atoms: C9_9  and  O11_11 
ROOT
ATOM      1  C1  MNM d          28.537  46.071  -1.219  0.00  0.00     0.110 C 
ATOM      2  C2  MNM d          28.948  47.184  -0.241  0.00  0.00     0.217 C 
ATOM      3  C3  MNM d          27.442  46.557  -2.193  0.00  0.00     0.071 C 
ATOM      4  N6  MNM d          27.808  47.977   0.206  0.00  0.00    -0.046 N 
ATOM      5  C8  MNM d          27.265  48.101  -2.212  0.00  0.00     0.017 C 
ATOM      6  C10 MNM d          26.888  48.544  -0.791  0.00  0.00     0.092 C 
ATOM      7  H1  MNM d          29.422  45.781  -1.804  0.00  0.00     0.093 H 
ATOM      8  H2  MNM d          29.659  47.837  -0.768  0.00  0.00     0.133 H 
ATOM      9  H3  MNM d          26.490  46.133  -1.842  0.00  0.00     0.087 H 
ATOM     10  H6  MNM d          28.178  48.749   0.737  0.00  0.00     0.280 HD
ATOM     11  H7  MNM d          27.259  47.386   0.810  0.00  0.00     0.280 HD
ATOM     12  H9  MNM d          28.234  48.553  -2.470  0.00  0.00     0.049 H 
ATOM     13  H12 MNM d          26.931  49.641  -0.734  0.00  0.00     0.076 H 
ATOM     14  H13 MNM d          25.865  48.205  -0.569  0.00  0.00     0.076 H 
ENDROOT
BRANCH   5  15
ATOM     15  C9  MNM d          26.237  48.589  -3.266  0.00  0.00     0.024 C 
ATOM     16  H10 MNM d          25.814  47.717  -3.789  0.00  0.00     0.074 H 
ATOM     17  H11 MNM d          26.745  49.240  -3.992  0.00  0.00     0.074 H 
BRANCH  15  18
ATOM     18  O11 MNM d          25.183  49.316  -2.641  0.00  0.00    -0.400 OA
ATOM     19  H14 MNM d          24.632  48.716  -2.153  0.00  0.00     0.209 HD
ENDBRANCH  15  18
ENDBRANCH   5  15
BRANCH   3  20
ATOM     20  O7  MNM d          27.684  46.037  -3.511  0.00  0.00    -0.392 OA
ATOM     21  H8  MNM d          27.161  46.518  -4.141  0.00  0.00     0.210 HD
ENDBRANCH   3  20
BRANCH   1  22
ATOM     22  O4  MNM d          28.063  44.919  -0.505  0.00  0.00    -0.389 OA
ATOM     23  H4  MNM d          27.771  44.261  -1.127  0.00  0.00     0.210 HD
ENDBRANCH   1  22
BRANCH   2  24
ATOM     24  O5  MNM d          29.554  46.715   0.957  0.00  0.00    -0.368 OA
ATOM     25  H5  MNM d          30.312  46.185   0.740  0.00  0.00     0.212 HD
ENDBRANCH   2  24
TORSDOF 5
ENDMDL
MODEL 3
REMARK VINA RESULT:      -5.7      1.780      4.250
REMARK  5 active torsions:
REMARK  status: ('A' for Active; 'I' for Inactive)
REMARK    1  A    between atoms: C1_1  and  O4_4 
REMARK    2  A    between atoms: C2_2  and  O5_5 
REMARK    3  A    between atoms: C3_3  and  O7_7 
REMARK    4  A    between atoms: C8_8  and  C9_9 
REMARK    5  A    between atoms: C9_9  and  O11_11 
ROOT
ATOM      1  C1  MNM d          27.457  47.952  -3.254  0.00  0.00     0.110 C 
ATOM      2  C2  MNM d          26.490  48.980  -2.645  0.00  0.00     0.217 C 
ATOM      3  C3  MNM d          27.963  46.958  -2.187  0.00  0.00     0.071 C 
ATOM      4  N6  MNM d          26.909  49.415  -1.318  0.00  0.00    -0.046 N 
ATOM      5  C8  MNM d          27.140  46.986  -0.868  0.00  0.00     0.017 C 
ATOM      6  C10 MNM d          27.228  48.407  -0.295  0.00  0.00     0.092 C 
ATOM      7  H1  MNM d          26.917  47.388  -4.029  0.00  0.00     0.093 H 
ATOM      8  H2  MNM d          25.503  48.501  -2.574  0.00  0.00     0.133 H 
ATOM      9  H3  MNM d          28.988  47.261  -1.927  0.00  0.00     0.087 H 
ATOM     10  H6  MNM d          26.166  49.985  -0.947  0.00  0.00     0.280 HD
ATOM     11  H7  MNM d          27.735  49.979  -1.441  0.00  0.00     0.280 HD
ATOM     12  H9  MNM d          26.089  46.777  -1.117  0.00  0.00     0.049 H 
ATOM     13  H12 MNM d          26.515  48.503   0.537  0.00  0.00     0.076 H 
ATOM     14  H13 MNM d          28.248  48.582   0.075  0.00  0.00     0.076 H 
ENDROOT
BRANCH   5  15
ATOM     15  C9  MNM d          27.590  45.914   0.159  0.00  0.00     0.024 C 
ATOM     16  H10 MNM d          27.318  44.916  -0.216  0.00  0.00     0.074 H 
ATOM     17  H11 MNM d          27.081  46.096   1.117  0.00  0.00     0.074 H 
BRANCH  15  18
ATOM     18  O11 MNM d          28.999  45.971   0.359  0.00  0.00    -0.400 OA
ATOM     19  H14 MNM d          29.442  45.666  -0.424  0.00  0.00     0.209 HD
ENDBRANCH  15  18
ENDBRANCH   5  15
BRANCH   3  20
ATOM     20  O7  MNM d          28.034  45.632  -2.737  0.00  0.00    -0.392 OA
ATOM     21  H8  MNM d          28.266  45.017  -2.051  0.00  0.00     0.210 HD
ENDBRANCH   3  20
BRANCH   1  22
ATOM     22  O4  MNM d          28.579  48.608  -3.864  0.00  0.00    -0.389 OA
ATOM     23  H4  MNM d          28.932  48.054  -4.551  0.00  0.00     0.210 HD
ENDBRANCH   1  22
BRANCH   2  24
ATOM     24  O5  MNM d          26.366  50.182  -3.396  0.00  0.00    -0.368 OA
ATOM     25  H5  MNM d          25.814  50.793  -2.924  0.00  0.00     0.212 HD
ENDBRANCH   2  24
TORSDOF 5
ENDMDL
MODEL 4
REMARK VINA RESULT:      -4.3      1.359      3.806
REMARK  5 active torsions:
REMARK  status: ('A' for Active; 'I' for Inactive)
REMARK    1  A    between atoms: C1_1  and  O4_4 
REMARK    2  A    between atoms: C2_2  and  O5_5 
REMARK    3  A    between atoms: C3_3  and  O7_7 
REMARK    4  A    between atoms: C8_8  and  C9_9 
REMARK    5  A    between atoms: C9_9  and  O11_11 
ROOT
ATOM      1  C1  MNM d          26.644  49.283  -1.463  0.00  0.00     0.110 C 
ATOM      2  C2  MNM d          26.996  48.822  -2.887  0.00  0.00     0.217 C 
ATOM      3  C3  MNM d          27.169  48.287  -0.406  0.00  0.00     0.071 C 
ATOM      4  N6  MNM d          26.865  47.379  -3.050  0.00  0.00    -0.046 N 
ATOM      5  C8  MNM d          28.207  47.274  -0.965  0.00  0.00     0.017 C 
ATOM      6  C10 MNM d          27.525  46.482  -2.089  0.00  0.00     0.092 C 
ATOM      7  H1  MNM d          27.120  50.260  -1.289  0.00  0.00     0.093 H 
ATOM      8  H2  MNM d          28.038  49.115  -3.079  0.00  0.00     0.133 H 
ATOM      9  H3  MNM d          26.305  47.699  -0.063  0.00  0.00     0.087 H 
ATOM     10  H6  MNM d          27.228  47.152  -3.961  0.00  0.00     0.280 HD
ATOM     11  H7  MNM d          25.880  47.169  -3.018  0.00  0.00     0.280 HD
ATOM     12  H9  MNM d          29.041  47.844  -1.400  0.00  0.00     0.049 H 
ATOM     13  H12 MNM d          28.282  45.886  -2.619  0.00  0.00     0.076 H 
ATOM     14  H13 MNM d          26.772  45.811  -1.650  0.00  0.00     0.076 H 
ENDROOT
BRANCH   5  15
ATOM     15  C9  MNM d          28.805  46.344   0.123  0.00  0.00     0.024 C 
ATOM     16  H10 MNM d          28.776  46.859   1.095  0.00  0.00     0.074 H 
ATOM     17  H11 MNM d          29.848  46.109  -0.136  0.00  0.00     0.074 H 
BRANCH  15  18
ATOM     18  O11 MNM d          28.060  45.133   0.212  0.00  0.00    -0.400 OA
ATOM     19  H14 MNM d          27.779  45.001   1.110  0.00  0.00     0.209 HD
ENDBRANCH  15  18
ENDBRANCH   5  15
BRANCH   3  20
ATOM     20  O7  MNM d          27.684  48.996   0.733  0.00  0.00    -0.392 OA
ATOM     21  H8  MNM d          27.455  49.916   0.663  0.00  0.00     0.210 HD
ENDBRANCH   3  20
BRANCH   1  22
ATOM     22  O4  MNM d          25.225  49.433  -1.313  0.00  0.00    -0.389 OA
ATOM     23  H4  MNM d          24.821  48.574  -1.263  0.00  0.00     0.210 HD
ENDBRANCH   1  22
BRANCH   2  24
ATOM     24  O5  MNM d          26.167  49.377  -3.901  0.00  0.00    -0.368 OA
ATOM     25  H5  MNM d          25.256  49.220  -3.685  0.00  0.00     0.212 HD
ENDBRANCH   2  24
TORSDOF 5
ENDMDL
