MODEL 1
REMARK VINA RESULT:      -8.9      0.000      0.000
REMARK  8 active torsions:
REMARK  status: ('A' for Active; 'I' for Inactive)
REMARK    1  A    between atoms: N1_1  and  C2_2 
REMARK    2  A    between atoms: C2_2  and  C3_3 
REMARK    3  A    between atoms: C6_6  and  N7_7 
REMARK       I    between atoms: N7_7  and  C8_8 
REMARK    4  A    between atoms: C8_8  and  C10_10 
REMARK    5  A    between atoms: C12_12  and  N13_13 
REMARK    6  A    between atoms: N13_13  and  C14_14 
REMARK    7  A    between atoms: C22_22  and  C27_27 
REMARK    8  A    between atoms: C27_27  and  N28_28 
ROOT
ATOM      1  C10 UI1 d          23.271  15.630  33.418  0.00  0.00     0.035 A 
ATOM      2  C11 UI1 d          23.721  16.848  33.978  0.00  0.00    -0.041 A 
ATOM      3  C12 UI1 d          22.836  17.877  34.205  0.00  0.00     0.061 A 
ATOM      4  C20 UI1 d          21.448  17.710  33.877  0.00  0.00     0.002 A 
ATOM      5  C21 UI1 d          20.551  18.784  34.095  0.00  0.00    -0.057 A 
ATOM      6  C22 UI1 d          19.182  18.641  33.784  0.00  0.00     0.008 A 
ATOM      7  C23 UI1 d          18.695  17.427  33.260  0.00  0.00    -0.069 A 
ATOM      8  C24 UI1 d          19.588  16.351  33.034  0.00  0.00    -0.071 A 
ATOM      9  C25 UI1 d          20.973  16.495  33.339  0.00  0.00    -0.023 A 
ATOM     10  C26 UI1 d          21.887  15.444  33.100  0.00  0.00    -0.057 A 
ATOM     11  H9  UI1 d          24.768  16.970  34.231  0.00  0.00     0.088 H 
ATOM     12  H14 UI1 d          20.918  19.720  34.503  0.00  0.00     0.086 H 
ATOM     13  H15 UI1 d          17.642  17.317  33.030  0.00  0.00     0.085 H 
ATOM     14  H16 UI1 d          19.217  15.416  32.630  0.00  0.00     0.084 H 
ATOM     15  H17 UI1 d          21.543  14.506  32.680  0.00  0.00     0.086 H 
ENDROOT
BRANCH   1  16
ATOM     16  C8  UI1 d          24.303  14.589  33.119  0.00  0.00     0.256 C 
ATOM     17  N7  UI1 d          24.087  13.762  32.114  0.00  0.00    -0.323 N 
ATOM     18  H8  UI1 d          23.202  13.776  31.649  0.00  0.00     0.169 HD
ATOM     19  O9  UI1 d          25.351  14.564  33.753  0.00  0.00    -0.267 OA
BRANCH  17  20
ATOM     20  C6  UI1 d          25.103  12.839  31.675  0.00  0.00     0.035 A 
ATOM     21  C5  UI1 d          25.886  13.327  30.583  0.00  0.00    -0.057 A 
ATOM     22  C4  UI1 d          26.908  12.553  30.014  0.00  0.00    -0.073 A 
ATOM     23  H7  UI1 d          25.686  14.316  30.186  0.00  0.00     0.086 H 
ATOM     24  C3  UI1 d          27.171  11.273  30.527  0.00  0.00    -0.033 A 
ATOM     25  H6  UI1 d          27.490  12.941  29.185  0.00  0.00     0.084 H 
ATOM     26  C31 UI1 d          26.402  10.775  31.611  0.00  0.00    -0.073 A 
ATOM     27  C30 UI1 d          25.355  11.561  32.189  0.00  0.00    -0.057 A 
ATOM     28  H23 UI1 d          26.610   9.787  32.006  0.00  0.00     0.084 H 
ATOM     29  H22 UI1 d          24.766  11.173  33.012  0.00  0.00     0.086 H 
BRANCH  24  30
ATOM     30  C2  UI1 d          28.287  10.422  29.902  0.00  0.00     0.103 C 
ATOM     31  H4  UI1 d          29.258  10.898  30.107  0.00  0.00     0.082 H 
ATOM     32  H5  UI1 d          28.268   9.420  30.354  0.00  0.00     0.082 H 
BRANCH  30  33
ATOM     33  N1  UI1 d          28.115  10.297  28.462  0.00  0.00    -0.075 N 
ATOM     34  H1  UI1 d          27.767   9.376  28.243  0.00  0.00     0.274 HD
ATOM     35  H2  UI1 d          29.002  10.438  28.003  0.00  0.00     0.274 HD
ATOM     36  H3  UI1 d          27.456  10.989  28.140  0.00  0.00     0.274 HD
ENDBRANCH  30  33
ENDBRANCH  24  30
ENDBRANCH  17  20
ENDBRANCH   1  16
BRANCH   3  37
ATOM     37  N13 UI1 d          23.338  19.126  34.717  0.00  0.00    -0.187 N 
ATOM     38  H10 UI1 d          23.143  19.984  34.183  0.00  0.00     0.184 HD
BRANCH  37  39
ATOM     39  C14 UI1 d          24.086  19.238  35.918  0.00  0.00     0.726 A 
ATOM     40  N15 UI1 d          24.890  20.317  36.072  0.00  0.00    -0.075 NA
ATOM     41  C16 UI1 d          25.612  20.486  37.202  0.00  0.00     0.022 A 
ATOM     42  C17 UI1 d          25.522  19.533  38.239  0.00  0.00    -0.048 A 
ATOM     43  H11 UI1 d          26.258  21.350  37.312  0.00  0.00     0.115 H 
ATOM     44  C18 UI1 d          24.684  18.425  38.044  0.00  0.00     0.022 A 
ATOM     45  H12 UI1 d          26.084  19.653  39.158  0.00  0.00     0.087 H 
ATOM     46  N19 UI1 d          23.986  18.304  36.890  0.00  0.00    -0.075 NA
ATOM     47  H13 UI1 d          24.596  17.667  38.814  0.00  0.00     0.115 H 
ENDBRANCH  37  39
ENDBRANCH   3  37
BRANCH   6  48
ATOM     48  C27 UI1 d          18.302  19.806  34.036  0.00  0.00     0.102 C 
ATOM     49  N29 UI1 d          16.983  19.689  33.967  0.00  0.00    -0.385 N 
ATOM     50  H20 UI1 d          16.558  18.780  33.737  0.00  0.00     0.157 HD
ATOM     51  H21 UI1 d          16.383  20.508  34.144  0.00  0.00     0.157 HD
BRANCH  48  52
ATOM     52  N28 UI1 d          18.827  20.963  34.329  0.00  0.00    -0.385 N 
ATOM     53  H18 UI1 d          18.473  21.501  35.132  0.00  0.00     0.157 HD
ATOM     54  H19 UI1 d          19.596  21.339  33.756  0.00  0.00     0.157 HD
ENDBRANCH  48  52
ENDBRANCH   6  48
TORSDOF 8
ENDMDL
MODEL 2
REMARK VINA RESULT:      -7.3      2.926      9.728
REMARK  8 active torsions:
REMARK  status: ('A' for Active; 'I' for Inactive)
REMARK    1  A    between atoms: N1_1  and  C2_2 
REMARK    2  A    between atoms: C2_2  and  C3_3 
REMARK    3  A    between atoms: C6_6  and  N7_7 
REMARK       I    between atoms: N7_7  and  C8_8 
REMARK    4  A    between atoms: C8_8  and  C10_10 
REMARK    5  A    between atoms: C12_12  and  N13_13 
REMARK    6  A    between atoms: N13_13  and  C14_14 
REMARK    7  A    between atoms: C22_22  and  C27_27 
REMARK    8  A    between atoms: C27_27  and  N28_28 
ROOT
ATOM      1  C10 UI1 d          24.886  15.280  30.875  0.00  0.00     0.035 A 
ATOM      2  C11 UI1 d          24.749  13.916  31.222  0.00  0.00    -0.041 A 
ATOM      3  C12 UI1 d          25.706  13.003  30.842  0.00  0.00     0.061 A 
ATOM      4  C20 UI1 d          26.853  13.440  30.096  0.00  0.00     0.002 A 
ATOM      5  C21 UI1 d          27.820  12.488  29.693  0.00  0.00    -0.057 A 
ATOM      6  C22 UI1 d          28.958  12.895  28.962  0.00  0.00     0.008 A 
ATOM      7  C23 UI1 d          29.143  14.253  28.635  0.00  0.00    -0.069 A 
ATOM      8  C24 UI1 d          28.177  15.210  29.032  0.00  0.00    -0.071 A 
ATOM      9  C25 UI1 d          27.022  14.800  29.760  0.00  0.00    -0.023 A 
ATOM     10  C26 UI1 d          26.033  15.733  30.146  0.00  0.00    -0.057 A 
ATOM     11  H9  UI1 d          23.886  13.588  31.789  0.00  0.00     0.088 H 
ATOM     12  H14 UI1 d          27.687  11.442  29.945  0.00  0.00     0.086 H 
ATOM     13  H15 UI1 d          30.022  14.564  28.082  0.00  0.00     0.085 H 
ATOM     14  H16 UI1 d          28.316  16.255  28.780  0.00  0.00     0.084 H 
ATOM     15  H17 UI1 d          26.140  16.781  29.891  0.00  0.00     0.086 H 
ENDROOT
BRANCH   1  16
ATOM     16  C8  UI1 d          23.766  16.199  31.246  0.00  0.00     0.256 C 
ATOM     17  N7  UI1 d          22.890  15.790  32.144  0.00  0.00    -0.323 N 
ATOM     18  H8  UI1 d          22.929  14.846  32.473  0.00  0.00     0.169 HD
ATOM     19  O9  UI1 d          23.717  17.328  30.774  0.00  0.00    -0.267 OA
BRANCH  17  20
ATOM     20  C6  UI1 d          21.878  16.677  32.660  0.00  0.00     0.035 A 
ATOM     21  C5  UI1 d          20.564  16.389  32.177  0.00  0.00    -0.057 A 
ATOM     22  C4  UI1 d          19.460  17.164  32.560  0.00  0.00    -0.073 A 
ATOM     23  H7  UI1 d          20.418  15.555  31.500  0.00  0.00     0.086 H 
ATOM     24  C3  UI1 d          19.645  18.243  33.439  0.00  0.00    -0.033 A 
ATOM     25  H6  UI1 d          18.471  16.931  32.181  0.00  0.00     0.084 H 
ATOM     26  C31 UI1 d          20.944  18.541  33.927  0.00  0.00    -0.073 A 
ATOM     27  C30 UI1 d          22.073  17.755  33.532  0.00  0.00    -0.057 A 
ATOM     28  H23 UI1 d          21.083  19.374  34.607  0.00  0.00     0.084 H 
ATOM     29  H22 UI1 d          23.064  17.991  33.903  0.00  0.00     0.086 H 
BRANCH  24  30
ATOM     30  C2  UI1 d          18.437  19.096  33.856  0.00  0.00     0.103 C 
ATOM     31  H4  UI1 d          18.004  19.566  32.960  0.00  0.00     0.082 H 
ATOM     32  H5  UI1 d          17.686  18.445  34.328  0.00  0.00     0.082 H 
BRANCH  30  33
ATOM     33  N1  UI1 d          18.823  20.137  34.798  0.00  0.00    -0.075 N 
ATOM     34  H1  UI1 d          18.547  21.037  34.437  0.00  0.00     0.274 HD
ATOM     35  H2  UI1 d          19.823  20.120  34.928  0.00  0.00     0.274 HD
ATOM     36  H3  UI1 d          18.366  19.976  35.683  0.00  0.00     0.274 HD
ENDBRANCH  30  33
ENDBRANCH  24  30
ENDBRANCH  17  20
ENDBRANCH   1  16
BRANCH   3  37
ATOM     37  N13 UI1 d          25.504  11.612  31.154  0.00  0.00    -0.187 N 
ATOM     38  H10 UI1 d          25.736  10.913  30.435  0.00  0.00     0.184 HD
BRANCH  37  39
ATOM     39  C14 UI1 d          25.003  11.153  32.400  0.00  0.00     0.726 A 
ATOM     40  N15 UI1 d          25.863  11.063  33.442  0.00  0.00    -0.075 NA
ATOM     41  C16 UI1 d          25.439  10.649  34.657  0.00  0.00     0.022 A 
ATOM     42  C17 UI1 d          24.080  10.315  34.846  0.00  0.00    -0.048 A 
ATOM     43  H11 UI1 d          26.137  10.574  35.482  0.00  0.00     0.115 H 
ATOM     44  C18 UI1 d          23.218  10.415  33.745  0.00  0.00     0.022 A 
ATOM     45  H12 UI1 d          23.715   9.991  35.814  0.00  0.00     0.087 H 
ATOM     46  N19 UI1 d          23.698  10.832  32.549  0.00  0.00    -0.075 NA
ATOM     47  H13 UI1 d          22.170  10.158  33.850  0.00  0.00     0.115 H 
ENDBRANCH  37  39
ENDBRANCH   3  37
BRANCH   6  48
ATOM     48  C27 UI1 d          29.927  11.845  28.572  0.00  0.00     0.102 C 
ATOM     49  N29 UI1 d          30.123  11.542  27.296  0.00  0.00    -0.385 N 
ATOM     50  H20 UI1 d          29.599  12.041  26.561  0.00  0.00     0.157 HD
ATOM     51  H21 UI1 d          30.800  10.809  27.038  0.00  0.00     0.157 HD
BRANCH  48  52
ATOM     52  N28 UI1 d          30.596  11.207  29.490  0.00  0.00    -0.385 N 
ATOM     53  H18 UI1 d          31.034  10.301  29.273  0.00  0.00     0.157 HD
ATOM     54  H19 UI1 d          30.686  11.610  30.434  0.00  0.00     0.157 HD
ENDBRANCH  48  52
ENDBRANCH   6  48
TORSDOF 8
ENDMDL
MODEL 3
REMARK VINA RESULT:      -7.2      2.921      9.200
REMARK  8 active torsions:
REMARK  status: ('A' for Active; 'I' for Inactive)
REMARK    1  A    between atoms: N1_1  and  C2_2 
REMARK    2  A    between atoms: C2_2  and  C3_3 
REMARK    3  A    between atoms: C6_6  and  N7_7 
REMARK       I    between atoms: N7_7  and  C8_8 
REMARK    4  A    between atoms: C8_8  and  C10_10 
REMARK    5  A    between atoms: C12_12  and  N13_13 
REMARK    6  A    between atoms: N13_13  and  C14_14 
REMARK    7  A    between atoms: C22_22  and  C27_27 
REMARK    8  A    between atoms: C27_27  and  N28_28 
ROOT
ATOM      1  C10 UI1 d          23.593  14.399  32.129  0.00  0.00     0.035 A 
ATOM      2  C11 UI1 d          24.399  15.046  31.165  0.00  0.00    -0.041 A 
ATOM      3  C12 UI1 d          25.516  14.421  30.660  0.00  0.00     0.061 A 
ATOM      4  C20 UI1 d          25.859  13.101  31.111  0.00  0.00     0.002 A 
ATOM      5  C21 UI1 d          27.023  12.477  30.600  0.00  0.00    -0.057 A 
ATOM      6  C22 UI1 d          27.378  11.178  31.025  0.00  0.00     0.008 A 
ATOM      7  C23 UI1 d          26.575  10.491  31.955  0.00  0.00    -0.069 A 
ATOM      8  C24 UI1 d          25.412  11.112  32.474  0.00  0.00    -0.071 A 
ATOM      9  C25 UI1 d          25.056  12.427  32.054  0.00  0.00    -0.023 A 
ATOM     10  C26 UI1 d          23.914  13.077  32.576  0.00  0.00    -0.057 A 
ATOM     11  H9  UI1 d          24.135  16.040  30.822  0.00  0.00     0.088 H 
ATOM     12  H14 UI1 d          27.644  12.998  29.879  0.00  0.00     0.086 H 
ATOM     13  H15 UI1 d          26.845   9.491  32.273  0.00  0.00     0.085 H 
ATOM     14  H16 UI1 d          24.792  10.586  33.192  0.00  0.00     0.084 H 
ATOM     15  H17 UI1 d          23.289  12.579  33.308  0.00  0.00     0.086 H 
ENDROOT
BRANCH   1  16
ATOM     16  C8  UI1 d          22.445  15.173  32.697  0.00  0.00     0.256 C 
ATOM     17  N7  UI1 d          22.131  16.327  32.141  0.00  0.00    -0.323 N 
ATOM     18  H8  UI1 d          22.726  16.709  31.433  0.00  0.00     0.169 HD
ATOM     19  O9  UI1 d          21.776  14.699  33.608  0.00  0.00    -0.267 OA
BRANCH  17  20
ATOM     20  C6  UI1 d          20.948  17.049  32.535  0.00  0.00     0.035 A 
ATOM     21  C5  UI1 d          21.219  18.188  33.355  0.00  0.00    -0.057 A 
ATOM     22  C4  UI1 d          20.184  18.997  33.847  0.00  0.00    -0.073 A 
ATOM     23  H7  UI1 d          22.246  18.432  33.602  0.00  0.00     0.086 H 
ATOM     24  C3  UI1 d          18.853  18.686  33.526  0.00  0.00    -0.033 A 
ATOM     25  H6  UI1 d          20.410  19.856  34.469  0.00  0.00     0.084 H 
ATOM     26  C31 UI1 d          18.568  17.558  32.713  0.00  0.00    -0.073 A 
ATOM     27  C30 UI1 d          19.623  16.728  32.216  0.00  0.00    -0.057 A 
ATOM     28  H23 UI1 d          17.539  17.322  32.466  0.00  0.00     0.084 H 
ATOM     29  H22 UI1 d          19.400  15.864  31.600  0.00  0.00     0.086 H 
BRANCH  24  30
ATOM     30  C2  UI1 d          17.718  19.568  34.068  0.00  0.00     0.103 C 
ATOM     31  H4  UI1 d          16.821  19.417  33.449  0.00  0.00     0.082 H 
ATOM     32  H5  UI1 d          17.501  19.274  35.105  0.00  0.00     0.082 H 
BRANCH  30  33
ATOM     33  N1  UI1 d          18.082  20.978  34.040  0.00  0.00    -0.075 N 
ATOM     34  H1  UI1 d          17.644  21.423  33.248  0.00  0.00     0.274 HD
ATOM     35  H2  UI1 d          19.083  21.065  33.962  0.00  0.00     0.274 HD
ATOM     36  H3  UI1 d          17.770  21.422  34.889  0.00  0.00     0.274 HD
ENDBRANCH  30  33
ENDBRANCH  24  30
ENDBRANCH  17  20
ENDBRANCH   1  16
BRANCH   3  37
ATOM     37  N13 UI1 d          26.350  15.134  29.729  0.00  0.00    -0.187 N 
ATOM     38  H10 UI1 d          26.649  14.647  28.872  0.00  0.00     0.184 HD
BRANCH  37  39
ATOM     39  C14 UI1 d          26.784  16.471  29.926  0.00  0.00     0.726 A 
ATOM     40  N15 UI1 d          27.865  16.683  30.713  0.00  0.00    -0.075 NA
ATOM     41  C16 UI1 d          28.334  17.933  30.922  0.00  0.00     0.022 A 
ATOM     42  C17 UI1 d          27.696  19.032  30.307  0.00  0.00    -0.048 A 
ATOM     43  H11 UI1 d          29.197  18.093  31.559  0.00  0.00     0.115 H 
ATOM     44  C18 UI1 d          26.575  18.776  29.503  0.00  0.00     0.022 A 
ATOM     45  H12 UI1 d          28.061  20.042  30.452  0.00  0.00     0.087 H 
ATOM     46  N19 UI1 d          26.147  17.503  29.330  0.00  0.00    -0.075 NA
ATOM     47  H13 UI1 d          26.054  19.595  29.021  0.00  0.00     0.115 H 
ENDBRANCH  37  39
ENDBRANCH   3  37
BRANCH   6  48
ATOM     48  C27 UI1 d          28.610  10.588  30.450  0.00  0.00     0.102 C 
ATOM     49  N29 UI1 d          29.669  10.352  31.212  0.00  0.00    -0.385 N 
ATOM     50  H20 UI1 d          29.642  10.578  32.217  0.00  0.00     0.157 HD
ATOM     51  H21 UI1 d          30.519   9.941  30.799  0.00  0.00     0.157 HD
BRANCH  48  52
ATOM     52  N28 UI1 d          28.657  10.297  29.181  0.00  0.00    -0.385 N 
ATOM     53  H18 UI1 d          27.815  10.401  28.596  0.00  0.00     0.157 HD
ATOM     54  H19 UI1 d          29.536   9.962  28.762  0.00  0.00     0.157 HD
ENDBRANCH  48  52
ENDBRANCH   6  48
TORSDOF 8
ENDMDL
MODEL 4
REMARK VINA RESULT:      -6.9      2.851      9.331
REMARK  8 active torsions:
REMARK  status: ('A' for Active; 'I' for Inactive)
REMARK    1  A    between atoms: N1_1  and  C2_2 
REMARK    2  A    between atoms: C2_2  and  C3_3 
REMARK    3  A    between atoms: C6_6  and  N7_7 
REMARK       I    between atoms: N7_7  and  C8_8 
REMARK    4  A    between atoms: C8_8  and  C10_10 
REMARK    5  A    between atoms: C12_12  and  N13_13 
REMARK    6  A    between atoms: N13_13  and  C14_14 
REMARK    7  A    between atoms: C22_22  and  C27_27 
REMARK    8  A    between atoms: C27_27  and  N28_28 
ROOT
ATOM      1  C10 UI1 d          23.757  14.242  32.507  0.00  0.00     0.035 A 
ATOM      2  C11 UI1 d          24.221  13.222  33.370  0.00  0.00    -0.041 A 
ATOM      3  C12 UI1 d          25.271  12.417  32.992  0.00  0.00     0.061 A 
ATOM      4  C20 UI1 d          25.901  12.618  31.717  0.00  0.00     0.002 A 
ATOM      5  C21 UI1 d          26.966  11.769  31.330  0.00  0.00    -0.057 A 
ATOM      6  C22 UI1 d          27.604  11.950  30.084  0.00  0.00     0.008 A 
ATOM      7  C23 UI1 d          27.190  12.982  29.218  0.00  0.00    -0.069 A 
ATOM      8  C24 UI1 d          26.122  13.832  29.597  0.00  0.00    -0.071 A 
ATOM      9  C25 UI1 d          25.470  13.644  30.851  0.00  0.00    -0.023 A 
ATOM     10  C26 UI1 d          24.386  14.464  31.240  0.00  0.00    -0.057 A 
ATOM     11  H9  UI1 d          23.748  13.075  34.333  0.00  0.00     0.088 H 
ATOM     12  H14 UI1 d          27.294  10.976  31.994  0.00  0.00     0.086 H 
ATOM     13  H15 UI1 d          27.687  13.125  28.266  0.00  0.00     0.085 H 
ATOM     14  H16 UI1 d          25.800  14.625  28.932  0.00  0.00     0.084 H 
ATOM     15  H17 UI1 d          24.035  15.253  30.585  0.00  0.00     0.086 H 
ENDROOT
BRANCH   1  16
ATOM     16  C8  UI1 d          22.558  15.020  32.947  0.00  0.00     0.256 C 
ATOM     17  N7  UI1 d          22.348  16.207  32.409  0.00  0.00    -0.323 N 
ATOM     18  H8  UI1 d          23.043  16.604  31.809  0.00  0.00     0.169 HD
ATOM     19  O9  UI1 d          21.759  14.525  33.733  0.00  0.00    -0.267 OA
BRANCH  17  20
ATOM     20  C6  UI1 d          21.136  16.942  32.670  0.00  0.00     0.035 A 
ATOM     21  C5  UI1 d          21.334  18.099  33.486  0.00  0.00    -0.057 A 
ATOM     22  C4  UI1 d          20.262  18.923  33.856  0.00  0.00    -0.073 A 
ATOM     23  H7  UI1 d          22.334  18.346  33.826  0.00  0.00     0.086 H 
ATOM     24  C3  UI1 d          18.966  18.609  33.416  0.00  0.00    -0.033 A 
ATOM     25  H6  UI1 d          20.432  19.796  34.477  0.00  0.00     0.084 H 
ATOM     26  C31 UI1 d          18.754  17.463  32.606  0.00  0.00    -0.073 A 
ATOM     27  C30 UI1 d          19.847  16.618  32.232  0.00  0.00    -0.057 A 
ATOM     28  H23 UI1 d          17.752  17.225  32.265  0.00  0.00     0.084 H 
ATOM     29  H22 UI1 d          19.679  15.741  31.618  0.00  0.00     0.086 H 
BRANCH  24  30
ATOM     30  C2  UI1 d          17.789  19.508  33.825  0.00  0.00     0.103 C 
ATOM     31  H4  UI1 d          16.987  19.410  33.078  0.00  0.00     0.082 H 
ATOM     32  H5  UI1 d          17.416  19.184  34.807  0.00  0.00     0.082 H 
BRANCH  30  33
ATOM     33  N1  UI1 d          18.192  20.905  33.907  0.00  0.00    -0.075 N 
ATOM     34  H1  UI1 d          19.111  20.966  34.318  0.00  0.00     0.274 HD
ATOM     35  H2  UI1 d          17.534  21.412  34.479  0.00  0.00     0.274 HD
ATOM     36  H3  UI1 d          18.210  21.305  32.982  0.00  0.00     0.274 HD
ENDBRANCH  30  33
ENDBRANCH  24  30
ENDBRANCH  17  20
ENDBRANCH   1  16
BRANCH   3  37
ATOM     37  N13 UI1 d          25.676  11.347  33.866  0.00  0.00    -0.187 N 
ATOM     38  H10 UI1 d          25.123  10.479  33.861  0.00  0.00     0.184 HD
BRANCH  37  39
ATOM     39  C14 UI1 d          26.798  11.424  34.732  0.00  0.00     0.726 A 
ATOM     40  N15 UI1 d          27.396  12.628  34.900  0.00  0.00    -0.075 NA
ATOM     41  C16 UI1 d          28.456  12.765  35.727  0.00  0.00     0.022 A 
ATOM     42  C17 UI1 d          28.941  11.643  36.433  0.00  0.00    -0.048 A 
ATOM     43  H11 UI1 d          28.931  13.732  35.848  0.00  0.00     0.115 H 
ATOM     44  C18 UI1 d          28.302  10.411  36.232  0.00  0.00     0.022 A 
ATOM     45  H12 UI1 d          29.784  11.732  37.110  0.00  0.00     0.087 H 
ATOM     46  N19 UI1 d          27.245  10.331  35.389  0.00  0.00    -0.075 NA
ATOM     47  H13 UI1 d          28.652   9.526  36.751  0.00  0.00     0.115 H 
ENDBRANCH  37  39
ENDBRANCH   3  37
BRANCH   6  48
ATOM     48  C27 UI1 d          28.709  11.024  29.744  0.00  0.00     0.102 C 
ATOM     49  N29 UI1 d          29.532  10.574  30.683  0.00  0.00    -0.385 N 
ATOM     50  H20 UI1 d          29.406  10.868  31.662  0.00  0.00     0.157 HD
ATOM     51  H21 UI1 d          30.296   9.931  30.432  0.00  0.00     0.157 HD
BRANCH  48  52
ATOM     52  N28 UI1 d          28.879  10.644  28.509  0.00  0.00    -0.385 N 
ATOM     53  H18 UI1 d          29.059   9.653  28.295  0.00  0.00     0.157 HD
ATOM     54  H19 UI1 d          28.835  11.336  27.747  0.00  0.00     0.157 HD
ENDBRANCH  48  52
ENDBRANCH   6  48
TORSDOF 8
ENDMDL
MODEL 5
REMARK VINA RESULT:      -6.4      3.094      8.425
REMARK  8 active torsions:
REMARK  status: ('A' for Active; 'I' for Inactive)
REMARK    1  A    between atoms: N1_1  and  C2_2 
REMARK    2  A    between atoms: C2_2  and  C3_3 
REMARK    3  A    between atoms: C6_6  and  N7_7 
REMARK       I    between atoms: N7_7  and  C8_8 
REMARK    4  A    between atoms: C8_8  and  C10_10 
REMARK    5  A    between atoms: C12_12  and  N13_13 
REMARK    6  A    between atoms: N13_13  and  C14_14 
REMARK    7  A    between atoms: C22_22  and  C27_27 
REMARK    8  A    between atoms: C27_27  and  N28_28 
ROOT
ATOM      1  C10 UI1 d          24.825  15.685  33.622  0.00  0.00     0.035 A 
ATOM      2  C11 UI1 d          25.474  16.282  34.727  0.00  0.00    -0.041 A 
ATOM      3  C12 UI1 d          26.593  15.697  35.275  0.00  0.00     0.061 A 
ATOM      4  C20 UI1 d          27.107  14.478  34.716  0.00  0.00     0.002 A 
ATOM      5  C21 UI1 d          28.246  13.875  35.302  0.00  0.00    -0.057 A 
ATOM      6  C22 UI1 d          28.771  12.678  34.767  0.00  0.00     0.008 A 
ATOM      7  C23 UI1 d          28.170  12.079  33.643  0.00  0.00    -0.069 A 
ATOM      8  C24 UI1 d          27.027  12.675  33.055  0.00  0.00    -0.071 A 
ATOM      9  C25 UI1 d          26.489  13.878  33.599  0.00  0.00    -0.023 A 
ATOM     10  C26 UI1 d          25.335  14.477  33.045  0.00  0.00    -0.057 A 
ATOM     11  H9  UI1 d          25.089  17.205  35.144  0.00  0.00     0.088 H 
ATOM     12  H14 UI1 d          28.717  14.333  36.165  0.00  0.00     0.086 H 
ATOM     13  H15 UI1 d          28.581  11.166  33.229  0.00  0.00     0.085 H 
ATOM     14  H16 UI1 d          26.562  12.215  32.191  0.00  0.00     0.084 H 
ATOM     15  H17 UI1 d          24.842  14.028  32.191  0.00  0.00     0.086 H 
ENDROOT
BRANCH   1  16
ATOM     16  C8  UI1 d          23.566  16.329  33.135  0.00  0.00     0.256 C 
ATOM     17  N7  UI1 d          22.437  16.051  33.758  0.00  0.00    -0.323 N 
ATOM     18  H8  UI1 d          22.428  15.341  34.463  0.00  0.00     0.169 HD
ATOM     19  O9  UI1 d          23.608  17.149  32.225  0.00  0.00    -0.267 OA
BRANCH  17  20
ATOM     20  C6  UI1 d          21.217  16.750  33.443  0.00  0.00     0.035 A 
ATOM     21  C5  UI1 d          21.065  17.983  34.150  0.00  0.00    -0.057 A 
ATOM     22  C4  UI1 d          19.928  18.787  33.980  0.00  0.00    -0.073 A 
ATOM     23  H7  UI1 d          21.845  18.304  34.832  0.00  0.00     0.086 H 
ATOM     24  C3  UI1 d          18.918  18.376  33.096  0.00  0.00    -0.033 A 
ATOM     25  H6  UI1 d          19.830  19.718  34.528  0.00  0.00     0.084 H 
ATOM     26  C31 UI1 d          19.055  17.154  32.386  0.00  0.00    -0.073 A 
ATOM     27  C30 UI1 d          20.212  16.330  32.563  0.00  0.00    -0.057 A 
ATOM     28  H23 UI1 d          18.274  16.841  31.702  0.00  0.00     0.084 H 
ATOM     29  H22 UI1 d          20.309  15.395  32.024  0.00  0.00     0.086 H 
BRANCH  24  30
ATOM     30  C2  UI1 d          17.670  19.252  32.912  0.00  0.00     0.103 C 
ATOM     31  H4  UI1 d          17.928  20.116  32.282  0.00  0.00     0.082 H 
ATOM     32  H5  UI1 d          16.886  18.659  32.418  0.00  0.00     0.082 H 
BRANCH  30  33
ATOM     33  N1  UI1 d          17.166  19.733  34.192  0.00  0.00    -0.075 N 
ATOM     34  H1  UI1 d          17.394  19.067  34.914  0.00  0.00     0.274 HD
ATOM     35  H2  UI1 d          16.165  19.842  34.139  0.00  0.00     0.274 HD
ATOM     36  H3  UI1 d          17.591  20.621  34.408  0.00  0.00     0.274 HD
ENDBRANCH  30  33
ENDBRANCH  24  30
ENDBRANCH  17  20
ENDBRANCH   1  16
BRANCH   3  37
ATOM     37  N13 UI1 d          27.192  16.296  36.439  0.00  0.00    -0.187 N 
ATOM     38  H10 UI1 d          27.854  15.733  36.990  0.00  0.00     0.184 HD
BRANCH  37  39
ATOM     39  C14 UI1 d          26.919  17.621  36.868  0.00  0.00     0.726 A 
ATOM     40  N15 UI1 d          26.018  17.799  37.864  0.00  0.00    -0.075 NA
ATOM     41  C16 UI1 d          25.732  19.037  38.326  0.00  0.00     0.022 A 
ATOM     42  C17 UI1 d          26.386  20.158  37.772  0.00  0.00    -0.048 A 
ATOM     43  H11 UI1 d          25.004  19.168  39.119  0.00  0.00     0.115 H 
ATOM     44  C18 UI1 d          27.309  19.939  36.739  0.00  0.00     0.022 A 
ATOM     45  H12 UI1 d          26.180  21.159  38.133  0.00  0.00     0.087 H 
ATOM     46  N19 UI1 d          27.554  18.677  36.313  0.00  0.00    -0.075 NA
ATOM     47  H13 UI1 d          27.824  20.776  36.283  0.00  0.00     0.115 H 
ENDBRANCH  37  39
ENDBRANCH   3  37
BRANCH   6  48
ATOM     48  C27 UI1 d          29.963  12.102  35.432  0.00  0.00     0.102 C 
ATOM     49  N29 UI1 d          30.526  12.713  36.466  0.00  0.00    -0.385 N 
ATOM     50  H20 UI1 d          30.135  13.599  36.816  0.00  0.00     0.157 HD
ATOM     51  H21 UI1 d          31.355  12.302  36.918  0.00  0.00     0.157 HD
BRANCH  48  52
ATOM     52  N28 UI1 d          30.468  10.982  34.999  0.00  0.00    -0.385 N 
ATOM     53  H18 UI1 d          31.489  10.846  34.989  0.00  0.00     0.157 HD
ATOM     54  H19 UI1 d          29.846  10.232  34.666  0.00  0.00     0.157 HD
ENDBRANCH  48  52
ENDBRANCH   6  48
TORSDOF 8
ENDMDL
MODEL 6
REMARK VINA RESULT:      -6.4      3.124      8.680
REMARK  8 active torsions:
REMARK  status: ('A' for Active; 'I' for Inactive)
REMARK    1  A    between atoms: N1_1  and  C2_2 
REMARK    2  A    between atoms: C2_2  and  C3_3 
REMARK    3  A    between atoms: C6_6  and  N7_7 
REMARK       I    between atoms: N7_7  and  C8_8 
REMARK    4  A    between atoms: C8_8  and  C10_10 
REMARK    5  A    between atoms: C12_12  and  N13_13 
REMARK    6  A    between atoms: N13_13  and  C14_14 
REMARK    7  A    between atoms: C22_22  and  C27_27 
REMARK    8  A    between atoms: C27_27  and  N28_28 
ROOT
ATOM      1  C10 UI1 d          23.953  15.005  32.780  0.00  0.00     0.035 A 
ATOM      2  C11 UI1 d          25.225  15.619  32.741  0.00  0.00    -0.041 A 
ATOM      3  C12 UI1 d          26.359  14.887  33.007  0.00  0.00     0.061 A 
ATOM      4  C20 UI1 d          26.249  13.489  33.320  0.00  0.00     0.002 A 
ATOM      5  C21 UI1 d          27.421  12.752  33.614  0.00  0.00    -0.057 A 
ATOM      6  C22 UI1 d          27.337  11.376  33.920  0.00  0.00     0.008 A 
ATOM      7  C23 UI1 d          26.088  10.725  33.929  0.00  0.00    -0.069 A 
ATOM      8  C24 UI1 d          24.911  11.459  33.641  0.00  0.00    -0.071 A 
ATOM      9  C25 UI1 d          24.992  12.850  33.342  0.00  0.00    -0.023 A 
ATOM     10  C26 UI1 d          23.829  13.608  33.075  0.00  0.00    -0.057 A 
ATOM     11  H9  UI1 d          25.307  16.673  32.499  0.00  0.00     0.088 H 
ATOM     12  H14 UI1 d          28.387  13.245  33.603  0.00  0.00     0.086 H 
ATOM     13  H15 UI1 d          26.027   9.667  34.156  0.00  0.00     0.085 H 
ATOM     14  H16 UI1 d          23.948  10.961  33.649  0.00  0.00     0.084 H 
ATOM     15  H17 UI1 d          22.853  13.138  33.094  0.00  0.00     0.086 H 
ENDROOT
BRANCH   1  16
ATOM     16  C8  UI1 d          22.760  15.881  32.565  0.00  0.00     0.256 C 
ATOM     17  N7  UI1 d          21.769  15.816  33.434  0.00  0.00    -0.323 N 
ATOM     18  H8  UI1 d          21.786  15.114  34.146  0.00  0.00     0.169 HD
ATOM     19  O9  UI1 d          22.748  16.687  31.643  0.00  0.00    -0.267 OA
BRANCH  17  20
ATOM     20  C6  UI1 d          20.662  16.737  33.376  0.00  0.00     0.035 A 
ATOM     21  C5  UI1 d          20.859  17.918  34.157  0.00  0.00    -0.057 A 
ATOM     22  C4  UI1 d          19.877  18.916  34.232  0.00  0.00    -0.073 A 
ATOM     23  H7  UI1 d          21.788  18.045  34.703  0.00  0.00     0.086 H 
ATOM     24  C3  UI1 d          18.675  18.756  33.525  0.00  0.00    -0.033 A 
ATOM     25  H6  UI1 d          20.044  19.804  34.832  0.00  0.00     0.084 H 
ATOM     26  C31 UI1 d          18.464  17.589  32.744  0.00  0.00    -0.073 A 
ATOM     27  C30 UI1 d          19.464  16.567  32.672  0.00  0.00    -0.057 A 
ATOM     28  H23 UI1 d          17.536  17.470  32.197  0.00  0.00     0.084 H 
ATOM     29  H22 UI1 d          19.296  15.675  32.080  0.00  0.00     0.086 H 
BRANCH  24  30
ATOM     30  C2  UI1 d          17.595  19.846  33.610  0.00  0.00     0.103 C 
ATOM     31  H4  UI1 d          17.070  19.906  32.645  0.00  0.00     0.082 H 
ATOM     32  H5  UI1 d          16.879  19.579  34.401  0.00  0.00     0.082 H 
BRANCH  30  33
ATOM     33  N1  UI1 d          18.177  21.146  33.914  0.00  0.00    -0.075 N 
ATOM     34  H1  UI1 d          18.761  21.069  34.732  0.00  0.00     0.274 HD
ATOM     35  H2  UI1 d          17.440  21.811  34.089  0.00  0.00     0.274 HD
ATOM     36  H3  UI1 d          18.733  21.457  33.133  0.00  0.00     0.274 HD
ENDBRANCH  30  33
ENDBRANCH  24  30
ENDBRANCH  17  20
ENDBRANCH   1  16
BRANCH   3  37
ATOM     37  N13 UI1 d          27.633  15.558  33.022  0.00  0.00    -0.187 N 
ATOM     38  H10 UI1 d          28.486  14.982  33.053  0.00  0.00     0.184 HD
BRANCH  37  39
ATOM     39  C14 UI1 d          27.777  16.969  32.996  0.00  0.00     0.726 A 
ATOM     40  N15 UI1 d          28.011  17.567  31.803  0.00  0.00    -0.075 NA
ATOM     41  C16 UI1 d          28.138  18.910  31.715  0.00  0.00     0.022 A 
ATOM     42  C17 UI1 d          28.018  19.701  32.877  0.00  0.00    -0.048 A 
ATOM     43  H11 UI1 d          28.331  19.377  30.756  0.00  0.00     0.115 H 
ATOM     44  C18 UI1 d          27.781  19.050  34.096  0.00  0.00     0.022 A 
ATOM     45  H12 UI1 d          28.106  20.781  32.828  0.00  0.00     0.087 H 
ATOM     46  N19 UI1 d          27.665  17.701  34.127  0.00  0.00    -0.075 NA
ATOM     47  H13 UI1 d          27.691  19.624  35.011  0.00  0.00     0.115 H 
ENDBRANCH  37  39
ENDBRANCH   3  37
BRANCH   6  48
ATOM     48  C27 UI1 d          28.604  10.668  34.219  0.00  0.00     0.102 C 
ATOM     49  N29 UI1 d          28.957  10.406  35.470  0.00  0.00    -0.385 N 
ATOM     50  H20 UI1 d          28.347  10.695  36.249  0.00  0.00     0.157 HD
ATOM     51  H21 UI1 d          29.841   9.913  35.663  0.00  0.00     0.157 HD
BRANCH  48  52
ATOM     52  N28 UI1 d          29.384  10.297  33.243  0.00  0.00    -0.385 N 
ATOM     53  H18 UI1 d          29.054  10.353  32.269  0.00  0.00     0.157 HD
ATOM     54  H19 UI1 d          30.331   9.946  33.447  0.00  0.00     0.157 HD
ENDBRANCH  48  52
ENDBRANCH   6  48
TORSDOF 8
ENDMDL
MODEL 7
REMARK VINA RESULT:      -6.2      2.744      8.867
REMARK  8 active torsions:
REMARK  status: ('A' for Active; 'I' for Inactive)
REMARK    1  A    between atoms: N1_1  and  C2_2 
REMARK    2  A    between atoms: C2_2  and  C3_3 
REMARK    3  A    between atoms: C6_6  and  N7_7 
REMARK       I    between atoms: N7_7  and  C8_8 
REMARK    4  A    between atoms: C8_8  and  C10_10 
REMARK    5  A    between atoms: C12_12  and  N13_13 
REMARK    6  A    between atoms: N13_13  and  C14_14 
REMARK    7  A    between atoms: C22_22  and  C27_27 
REMARK    8  A    between atoms: C27_27  and  N28_28 
ROOT
ATOM      1  C10 UI1 d          24.300  15.533  31.934  0.00  0.00     0.035 A 
ATOM      2  C11 UI1 d          24.965  15.168  33.127  0.00  0.00    -0.041 A 
ATOM      3  C12 UI1 d          25.997  14.258  33.098  0.00  0.00     0.061 A 
ATOM      4  C20 UI1 d          26.404  13.682  31.847  0.00  0.00     0.002 A 
ATOM      5  C21 UI1 d          27.453  12.731  31.832  0.00  0.00    -0.057 A 
ATOM      6  C22 UI1 d          27.873  12.155  30.614  0.00  0.00     0.008 A 
ATOM      7  C23 UI1 d          27.258  12.526  29.403  0.00  0.00    -0.069 A 
ATOM      8  C24 UI1 d          26.204  13.473  29.411  0.00  0.00    -0.071 A 
ATOM      9  C25 UI1 d          25.771  14.050  30.641  0.00  0.00    -0.023 A 
ATOM     10  C26 UI1 d          24.706  14.979  30.677  0.00  0.00    -0.057 A 
ATOM     11  H9  UI1 d          24.660  15.608  34.070  0.00  0.00     0.088 H 
ATOM     12  H14 UI1 d          27.935  12.444  32.761  0.00  0.00     0.086 H 
ATOM     13  H15 UI1 d          27.588  12.089  28.468  0.00  0.00     0.085 H 
ATOM     14  H16 UI1 d          25.727  13.760  28.481  0.00  0.00     0.084 H 
ATOM     15  H17 UI1 d          24.202  15.268  29.763  0.00  0.00     0.086 H 
ENDROOT
BRANCH   1  16
ATOM     16  C8  UI1 d          23.133  16.460  32.054  0.00  0.00     0.256 C 
ATOM     17  N7  UI1 d          22.187  16.169  32.926  0.00  0.00    -0.323 N 
ATOM     18  H8  UI1 d          22.214  15.291  33.404  0.00  0.00     0.169 HD
ATOM     19  O9  UI1 d          23.105  17.499  31.404  0.00  0.00    -0.267 OA
BRANCH  17  20
ATOM     20  C6  UI1 d          21.116  17.092  33.203  0.00  0.00     0.035 A 
ATOM     21  C5  UI1 d          19.893  16.765  32.540  0.00  0.00    -0.057 A 
ATOM     22  C4  UI1 d          18.749  17.565  32.680  0.00  0.00    -0.073 A 
ATOM     23  H7  UI1 d          19.847  15.880  31.915  0.00  0.00     0.086 H 
ATOM     24  C3  UI1 d          18.803  18.710  33.491  0.00  0.00    -0.033 A 
ATOM     25  H6  UI1 d          17.831  17.301  32.167  0.00  0.00     0.084 H 
ATOM     26  C31 UI1 d          20.011  19.048  34.156  0.00  0.00    -0.073 A 
ATOM     27  C30 UI1 d          21.180  18.236  34.009  0.00  0.00    -0.057 A 
ATOM     28  H23 UI1 d          20.048  19.932  34.783  0.00  0.00     0.084 H 
ATOM     29  H22 UI1 d          22.102  18.502  34.514  0.00  0.00     0.086 H 
BRANCH  24  30
ATOM     30  C2  UI1 d          17.553  19.590  33.642  0.00  0.00     0.103 C 
ATOM     31  H4  UI1 d          17.011  19.610  32.685  0.00  0.00     0.082 H 
ATOM     32  H5  UI1 d          16.906  19.162  34.421  0.00  0.00     0.082 H 
BRANCH  30  33
ATOM     33  N1  UI1 d          17.906  20.953  34.016  0.00  0.00    -0.075 N 
ATOM     34  H1  UI1 d          18.074  20.997  35.009  0.00  0.00     0.274 HD
ATOM     35  H2  UI1 d          17.150  21.575  33.775  0.00  0.00     0.274 HD
ATOM     36  H3  UI1 d          18.741  21.232  33.522  0.00  0.00     0.274 HD
ENDBRANCH  30  33
ENDBRANCH  24  30
ENDBRANCH  17  20
ENDBRANCH   1  16
BRANCH   3  37
ATOM     37  N13 UI1 d          26.609  13.860  34.339  0.00  0.00    -0.187 N 
ATOM     38  H10 UI1 d          26.333  12.958  34.750  0.00  0.00     0.184 HD
BRANCH  37  39
ATOM     39  C14 UI1 d          27.572  14.644  35.025  0.00  0.00     0.726 A 
ATOM     40  N15 UI1 d          27.155  15.775  35.643  0.00  0.00    -0.075 NA
ATOM     41  C16 UI1 d          28.025  16.551  36.327  0.00  0.00     0.022 A 
ATOM     42  C17 UI1 d          29.383  16.175  36.409  0.00  0.00    -0.048 A 
ATOM     43  H11 UI1 d          27.681  17.458  36.812  0.00  0.00     0.115 H 
ATOM     44  C18 UI1 d          29.782  15.000  35.754  0.00  0.00     0.022 A 
ATOM     45  H12 UI1 d          30.096  16.776  36.961  0.00  0.00     0.087 H 
ATOM     46  N19 UI1 d          28.868  14.263  35.080  0.00  0.00    -0.075 NA
ATOM     47  H13 UI1 d          30.818  14.684  35.788  0.00  0.00     0.115 H 
ENDBRANCH  37  39
ENDBRANCH   3  37
BRANCH   6  48
ATOM     48  C27 UI1 d          28.974  11.165  30.675  0.00  0.00     0.102 C 
ATOM     49  N29 UI1 d          29.404  10.558  29.576  0.00  0.00    -0.385 N 
ATOM     50  H20 UI1 d          28.971  10.774  28.666  0.00  0.00     0.157 HD
ATOM     51  H21 UI1 d          30.170   9.872  29.633  0.00  0.00     0.157 HD
BRANCH  48  52
ATOM     52  N28 UI1 d          29.530  10.884  31.819  0.00  0.00    -0.385 N 
ATOM     53  H18 UI1 d          29.204  10.074  32.366  0.00  0.00     0.157 HD
ATOM     54  H19 UI1 d          30.297  11.471  32.177  0.00  0.00     0.157 HD
ENDBRANCH  48  52
ENDBRANCH   6  48
TORSDOF 8
ENDMDL
MODEL 8
REMARK VINA RESULT:      -6.0      3.238      9.249
REMARK  8 active torsions:
REMARK  status: ('A' for Active; 'I' for Inactive)
REMARK    1  A    between atoms: N1_1  and  C2_2 
REMARK    2  A    between atoms: C2_2  and  C3_3 
REMARK    3  A    between atoms: C6_6  and  N7_7 
REMARK       I    between atoms: N7_7  and  C8_8 
REMARK    4  A    between atoms: C8_8  and  C10_10 
REMARK    5  A    between atoms: C12_12  and  N13_13 
REMARK    6  A    between atoms: N13_13  and  C14_14 
REMARK    7  A    between atoms: C22_22  and  C27_27 
REMARK    8  A    between atoms: C27_27  and  N28_28 
ROOT
ATOM      1  C10 UI1 d          23.968  14.852  32.488  0.00  0.00     0.035 A 
ATOM      2  C11 UI1 d          25.214  15.383  32.081  0.00  0.00    -0.041 A 
ATOM      3  C12 UI1 d          26.368  14.653  32.249  0.00  0.00     0.061 A 
ATOM      4  C20 UI1 d          26.306  13.343  32.835  0.00  0.00     0.002 A 
ATOM      5  C21 UI1 d          27.503  12.611  33.023  0.00  0.00    -0.057 A 
ATOM      6  C22 UI1 d          27.465  11.320  33.593  0.00  0.00     0.008 A 
ATOM      7  C23 UI1 d          26.235  10.748  33.974  0.00  0.00    -0.069 A 
ATOM      8  C24 UI1 d          25.034  11.478  33.794  0.00  0.00    -0.071 A 
ATOM      9  C25 UI1 d          25.071  12.785  33.228  0.00  0.00    -0.023 A 
ATOM     10  C26 UI1 d          23.889  13.542  33.060  0.00  0.00    -0.057 A 
ATOM     11  H9  UI1 d          25.259  16.369  31.634  0.00  0.00     0.088 H 
ATOM     12  H14 UI1 d          28.453  13.043  32.727  0.00  0.00     0.086 H 
ATOM     13  H15 UI1 d          26.208   9.754  34.404  0.00  0.00     0.085 H 
ATOM     14  H16 UI1 d          24.087  11.041  34.088  0.00  0.00     0.084 H 
ATOM     15  H17 UI1 d          22.931  13.134  33.362  0.00  0.00     0.086 H 
ENDROOT
BRANCH   1  16
ATOM     16  C8  UI1 d          22.769  15.736  32.355  0.00  0.00     0.256 C 
ATOM     17  N7  UI1 d          21.790  15.603  33.230  0.00  0.00    -0.323 N 
ATOM     18  H8  UI1 d          21.820  14.850  33.888  0.00  0.00     0.169 HD
ATOM     19  O9  UI1 d          22.742  16.608  31.494  0.00  0.00    -0.267 OA
BRANCH  17  20
ATOM     20  C6  UI1 d          20.679  16.520  33.254  0.00  0.00     0.035 A 
ATOM     21  C5  UI1 d          20.990  17.778  33.859  0.00  0.00    -0.057 A 
ATOM     22  C4  UI1 d          20.022  18.785  33.985  0.00  0.00    -0.073 A 
ATOM     23  H7  UI1 d          21.993  17.957  34.227  0.00  0.00     0.086 H 
ATOM     24  C3  UI1 d          18.721  18.557  33.507  0.00  0.00    -0.033 A 
ATOM     25  H6  UI1 d          20.276  19.732  34.449  0.00  0.00     0.084 H 
ATOM     26  C31 UI1 d          18.399  17.313  32.904  0.00  0.00    -0.073 A 
ATOM     27  C30 UI1 d          19.384  16.282  32.780  0.00  0.00    -0.057 A 
ATOM     28  H23 UI1 d          17.394  17.142  32.533  0.00  0.00     0.084 H 
ATOM     29  H22 UI1 d          19.131  15.332  32.324  0.00  0.00     0.086 H 
BRANCH  24  30
ATOM     30  C2  UI1 d          17.659  19.657  33.649  0.00  0.00     0.103 C 
ATOM     31  H4  UI1 d          16.761  19.363  33.087  0.00  0.00     0.082 H 
ATOM     32  H5  UI1 d          17.404  19.774  34.713  0.00  0.00     0.082 H 
BRANCH  30  33
ATOM     33  N1  UI1 d          18.143  20.932  33.135  0.00  0.00    -0.075 N 
ATOM     34  H1  UI1 d          18.629  21.426  33.867  0.00  0.00     0.274 HD
ATOM     35  H2  UI1 d          17.362  21.485  32.817  0.00  0.00     0.274 HD
ATOM     36  H3  UI1 d          18.773  20.766  32.366  0.00  0.00     0.274 HD
ENDBRANCH  30  33
ENDBRANCH  24  30
ENDBRANCH  17  20
ENDBRANCH   1  16
BRANCH   3  37
ATOM     37  N13 UI1 d          27.627  15.248  31.883  0.00  0.00    -0.187 N 
ATOM     38  H10 UI1 d          28.382  15.260  32.583  0.00  0.00     0.184 HD
BRANCH  37  39
ATOM     39  C14 UI1 d          27.885  15.818  30.609  0.00  0.00     0.726 A 
ATOM     40  N15 UI1 d          27.688  17.149  30.452  0.00  0.00    -0.075 NA
ATOM     41  C16 UI1 d          27.934  17.750  29.266  0.00  0.00     0.022 A 
ATOM     42  C17 UI1 d          28.411  16.985  28.180  0.00  0.00    -0.048 A 
ATOM     43  H11 UI1 d          27.767  18.815  29.150  0.00  0.00     0.115 H 
ATOM     44  C18 UI1 d          28.599  15.609  28.376  0.00  0.00     0.022 A 
ATOM     45  H12 UI1 d          28.625  17.447  27.224  0.00  0.00     0.087 H 
ATOM     46  N19 UI1 d          28.333  15.059  29.585  0.00  0.00    -0.075 NA
ATOM     47  H13 UI1 d          28.956  14.988  27.563  0.00  0.00     0.115 H 
ENDBRANCH  37  39
ENDBRANCH   3  37
BRANCH   6  48
ATOM     48  C27 UI1 d          28.756  10.613  33.762  0.00  0.00     0.102 C 
ATOM     49  N29 UI1 d          29.205  10.297  34.969  0.00  0.00    -0.385 N 
ATOM     50  H20 UI1 d          28.654  10.543  35.804  0.00  0.00     0.157 HD
ATOM     51  H21 UI1 d          30.105   9.806  35.071  0.00  0.00     0.157 HD
BRANCH  48  52
ATOM     52  N28 UI1 d          29.462  10.297  32.713  0.00  0.00    -0.385 N 
ATOM     53  H18 UI1 d          30.472  10.115  32.808  0.00  0.00     0.157 HD
ATOM     54  H19 UI1 d          29.011  10.228  31.790  0.00  0.00     0.157 HD
ENDBRANCH  48  52
ENDBRANCH   6  48
TORSDOF 8
ENDMDL
MODEL 9
REMARK VINA RESULT:      -5.9      2.990      9.086
REMARK  8 active torsions:
REMARK  status: ('A' for Active; 'I' for Inactive)
REMARK    1  A    between atoms: N1_1  and  C2_2 
REMARK    2  A    between atoms: C2_2  and  C3_3 
REMARK    3  A    between atoms: C6_6  and  N7_7 
REMARK       I    between atoms: N7_7  and  C8_8 
REMARK    4  A    between atoms: C8_8  and  C10_10 
REMARK    5  A    between atoms: C12_12  and  N13_13 
REMARK    6  A    between atoms: N13_13  and  C14_14 
REMARK    7  A    between atoms: C22_22  and  C27_27 
REMARK    8  A    between atoms: C27_27  and  N28_28 
ROOT
ATOM      1  C10 UI1 d          24.686  14.420  32.111  0.00  0.00     0.035 A 
ATOM      2  C11 UI1 d          25.766  15.261  31.759  0.00  0.00    -0.041 A 
ATOM      3  C12 UI1 d          26.960  14.721  31.337  0.00  0.00     0.061 A 
ATOM      4  C20 UI1 d          27.105  13.295  31.247  0.00  0.00     0.002 A 
ATOM      5  C21 UI1 d          28.345  12.751  30.832  0.00  0.00    -0.057 A 
ATOM      6  C22 UI1 d          28.510  11.353  30.733  0.00  0.00     0.008 A 
ATOM      7  C23 UI1 d          27.441  10.488  31.040  0.00  0.00    -0.069 A 
ATOM      8  C24 UI1 d          26.200  11.026  31.461  0.00  0.00    -0.071 A 
ATOM      9  C25 UI1 d          26.033  12.437  31.571  0.00  0.00    -0.023 A 
ATOM     10  C26 UI1 d          24.812  12.996  32.012  0.00  0.00    -0.057 A 
ATOM     11  H9  UI1 d          25.653  16.338  31.821  0.00  0.00     0.088 H 
ATOM     12  H14 UI1 d          29.171  13.411  30.590  0.00  0.00     0.086 H 
ATOM     13  H15 UI1 d          27.568   9.415  30.954  0.00  0.00     0.085 H 
ATOM     14  H16 UI1 d          25.376  10.363  31.699  0.00  0.00     0.084 H 
ATOM     15  H17 UI1 d          23.979  12.354  32.273  0.00  0.00     0.086 H 
ENDROOT
BRANCH   1  16
ATOM     16  C8  UI1 d          23.451  15.073  32.643  0.00  0.00     0.256 C 
ATOM     17  N7  UI1 d          23.049  16.202  32.089  0.00  0.00    -0.323 N 
ATOM     18  H8  UI1 d          23.631  16.648  31.408  0.00  0.00     0.169 HD
ATOM     19  O9  UI1 d          22.797  14.526  33.522  0.00  0.00    -0.267 OA
BRANCH  17  20
ATOM     20  C6  UI1 d          21.789  16.803  32.446  0.00  0.00     0.035 A 
ATOM     21  C5  UI1 d          21.920  17.932  33.314  0.00  0.00    -0.057 A 
ATOM     22  C4  UI1 d          20.795  18.629  33.778  0.00  0.00    -0.073 A 
ATOM     23  H7  UI1 d          22.909  18.256  33.619  0.00  0.00     0.086 H 
ATOM     24  C3  UI1 d          19.514  18.214  33.382  0.00  0.00    -0.033 A 
ATOM     25  H6  UI1 d          20.915  19.482  34.437  0.00  0.00     0.084 H 
ATOM     26  C31 UI1 d          19.368  17.095  32.521  0.00  0.00    -0.073 A 
ATOM     27  C30 UI1 d          20.515  16.379  32.051  0.00  0.00    -0.057 A 
ATOM     28  H23 UI1 d          18.377  16.779  32.216  0.00  0.00     0.084 H 
ATOM     29  H22 UI1 d          20.398  15.521  31.399  0.00  0.00     0.086 H 
BRANCH  24  30
ATOM     30  C2  UI1 d          18.280  18.974  33.894  0.00  0.00     0.103 C 
ATOM     31  H4  UI1 d          17.738  19.395  33.035  0.00  0.00     0.082 H 
ATOM     32  H5  UI1 d          17.626  18.273  34.433  0.00  0.00     0.082 H 
BRANCH  30  33
ATOM     33  N1  UI1 d          18.659  20.056  34.793  0.00  0.00    -0.075 N 
ATOM     34  H1  UI1 d          18.893  19.675  35.697  0.00  0.00     0.274 HD
ATOM     35  H2  UI1 d          17.888  20.699  34.888  0.00  0.00     0.274 HD
ATOM     36  H3  UI1 d          19.458  20.542  34.416  0.00  0.00     0.274 HD
ENDBRANCH  30  33
ENDBRANCH  24  30
ENDBRANCH  17  20
ENDBRANCH   1  16
BRANCH   3  37
ATOM     37  N13 UI1 d          28.059  15.605  31.048  0.00  0.00    -0.187 N 
ATOM     38  H10 UI1 d          28.424  15.629  30.085  0.00  0.00     0.184 HD
BRANCH  37  39
ATOM     39  C14 UI1 d          28.667  16.445  32.017  0.00  0.00     0.726 A 
ATOM     40  N15 UI1 d          29.165  15.871  33.138  0.00  0.00    -0.075 NA
ATOM     41  C16 UI1 d          29.772  16.619  34.087  0.00  0.00     0.022 A 
ATOM     42  C17 UI1 d          29.896  18.013  33.905  0.00  0.00    -0.048 A 
ATOM     43  H11 UI1 d          30.161  16.150  34.984  0.00  0.00     0.115 H 
ATOM     44  C18 UI1 d          29.364  18.574  32.735  0.00  0.00     0.022 A 
ATOM     45  H12 UI1 d          30.387  18.631  34.648  0.00  0.00     0.087 H 
ATOM     46  N19 UI1 d          28.764  17.778  31.819  0.00  0.00    -0.075 NA
ATOM     47  H13 UI1 d          29.433  19.643  32.565  0.00  0.00     0.115 H 
ENDBRANCH  37  39
ENDBRANCH   3  37
BRANCH   6  48
ATOM     48  C27 UI1 d          29.834  10.854  30.295  0.00  0.00     0.102 C 
ATOM     49  N29 UI1 d          30.215  10.959  29.029  0.00  0.00    -0.385 N 
ATOM     50  H20 UI1 d          29.587  11.393  28.336  0.00  0.00     0.157 HD
ATOM     51  H21 UI1 d          31.138  10.608  28.738  0.00  0.00     0.157 HD
BRANCH  48  52
ATOM     52  N28 UI1 d          30.638  10.304  31.160  0.00  0.00    -0.385 N 
ATOM     53  H18 UI1 d          31.360   9.640  30.844  0.00  0.00     0.157 HD
ATOM     54  H19 UI1 d          30.552  10.532  32.161  0.00  0.00     0.157 HD
ENDBRANCH  48  52
ENDBRANCH   6  48
TORSDOF 8
ENDMDL
