MODEL 1
REMARK VINA RESULT:      -7.0      0.000      0.000
REMARK  16 active torsions:
REMARK  status: ('A' for Active; 'I' for Inactive)
REMARK    1  A    between atoms: CBC_6  and  CAS_7 
REMARK    2  A    between atoms: CAS_7  and  CBG_8 
REMARK    3  A    between atoms: CBG_8  and  NAW_9 
REMARK    4  A    between atoms: CBG_8  and  P1_21 
REMARK       I    between atoms: NAW_9  and  CBB_10 
REMARK    5  A    between atoms: CBB_10  and  CBF_12 
REMARK    6  A    between atoms: CBF_12  and  CAR_13 
REMARK    7  A    between atoms: CBF_12  and  NAU_17 
REMARK    8  A    between atoms: CAR_13  and  CAZ_14 
REMARK       I    between atoms: NAU_17  and  CAX_18 
REMARK    9  A    between atoms: CAX_18  and  CAA_19 
REMARK   10  A    between atoms: P1_21  and  CAT_24 
REMARK   11  A    between atoms: CAT_24  and  CBD_25 
REMARK   12  A    between atoms: CBD_25  and  CAB_26 
REMARK   13  A    between atoms: CBD_25  and  CBA_27 
REMARK       I    between atoms: CBA_27  and  N_29 
REMARK   14  A    between atoms: N_29  and  CA_30 
REMARK   15  A    between atoms: CA_30  and  CB_31 
REMARK   16  A    between atoms: CA_30  and  C_32 
REMARK       I    between atoms: C_32  and  NAD_34 
ROOT
ATOM      1  CBG RX4 d          26.968   0.431  44.691  0.00  0.00     0.091 C 
ATOM      2  H8  RX4 d          25.869   0.429  44.664  0.00  0.00     0.089 H 
ENDROOT
BRANCH   1   3
ATOM      3  CAS RX4 d          27.426   0.558  46.194  0.00  0.00    -0.013 C 
ATOM      4  H6  RX4 d          27.623  -0.436  46.621  0.00  0.00     0.044 H 
ATOM      5  H7  RX4 d          28.332   1.176  46.268  0.00  0.00     0.044 H 
BRANCH   3   6
ATOM      6  CBC RX4 d          26.246   1.239  46.935  0.00  0.00    -0.056 A 
ATOM      7  CAP RX4 d          26.577   1.918  48.135  0.00  0.00    -0.077 A 
ATOM      8  CAN RX4 d          25.634   2.539  48.943  0.00  0.00    -0.082 A 
ATOM      9  H1  RX4 d          27.618   1.955  48.436  0.00  0.00     0.084 H 
ATOM     10  CAM RX4 d          24.302   2.408  48.490  0.00  0.00    -0.083 A 
ATOM     11  H2  RX4 d          25.898   3.079  49.846  0.00  0.00     0.083 H 
ATOM     12  CAO RX4 d          23.937   1.709  47.315  0.00  0.00    -0.082 A 
ATOM     13  H3  RX4 d          23.515   2.869  49.075  0.00  0.00     0.083 H 
ATOM     14  CAQ RX4 d          24.924   1.105  46.518  0.00  0.00    -0.077 A 
ATOM     15  H4  RX4 d          22.893   1.639  47.030  0.00  0.00     0.083 H 
ATOM     16  H5  RX4 d          24.667   0.559  45.617  0.00  0.00     0.084 H 
ENDBRANCH   3   6
ENDBRANCH   1   3
BRANCH   1  17
ATOM     17  NAW RX4 d          27.481  -0.797  44.092  0.00  0.00    -0.345 N 
ATOM     18  CBB RX4 d          26.933  -1.952  44.482  0.00  0.00     0.241 C 
ATOM     19  OAI RX4 d          25.977  -2.000  45.277  0.00  0.00    -0.271 OA
ATOM     20  H9  RX4 d          28.215  -0.776  43.415  0.00  0.00     0.163 HD
BRANCH  18  21
ATOM     21  CBF RX4 d          27.620  -3.277  44.113  0.00  0.00     0.098 C 
ATOM     22  H10 RX4 d          27.223  -4.090  44.738  0.00  0.00     0.088 H 
BRANCH  21  23
ATOM     23  CAR RX4 d          29.100  -3.213  44.316  0.00  0.00     0.043 C 
ATOM     24  H11 RX4 d          29.357  -2.385  44.992  0.00  0.00     0.052 H 
ATOM     25  H12 RX4 d          29.612  -3.073  43.352  0.00  0.00     0.052 H 
BRANCH  23  26
ATOM     26  CAZ RX4 d          29.505  -4.567  44.947  0.00  0.00     0.175 C 
ATOM     27  OAK RX4 d          28.670  -5.201  45.653  0.00  0.00    -0.648 OA
ATOM     28  OAG RX4 d          30.627  -4.976  44.660  0.00  0.00    -0.648 OA
ENDBRANCH  23  26
ENDBRANCH  21  23
BRANCH  21  29
ATOM     29  NAU RX4 d          27.231  -3.508  42.677  0.00  0.00    -0.348 N 
ATOM     30  CAX RX4 d          27.006  -4.735  42.171  0.00  0.00     0.214 C 
ATOM     31  OAE RX4 d          27.142  -5.797  42.824  0.00  0.00    -0.274 OA
ATOM     32  H13 RX4 d          27.136  -2.717  42.074  0.00  0.00     0.163 HD
BRANCH  30  33
ATOM     33  CAA RX4 d          26.561  -4.775  40.679  0.00  0.00    -0.003 C 
ATOM     34  H14 RX4 d          25.754  -5.513  40.557  0.00  0.00     0.040 H 
ATOM     35  H15 RX4 d          27.416  -5.060  40.049  0.00  0.00     0.040 H 
ATOM     36  H16 RX4 d          26.198  -3.781  40.377  0.00  0.00     0.040 H 
ENDBRANCH  30  33
ENDBRANCH  21  29
ENDBRANCH  18  21
ENDBRANCH   1  17
BRANCH   1  37
ATOM     37  P1  RX4 d          27.592   1.768  43.648  0.00  0.00     0.130 P 
ATOM     38  O4  RX4 d          27.192   1.550  42.199  0.00  0.00    -0.666 OA
ATOM     39  O3  RX4 d          29.099   1.799  43.535  0.00  0.00    -0.666 OA
BRANCH  37  40
ATOM     40  CAT RX4 d          26.903   3.293  44.277  0.00  0.00     0.020 C 
ATOM     41  H17 RX4 d          26.719   3.156  45.352  0.00  0.00     0.050 H 
ATOM     42  H18 RX4 d          25.947   3.464  43.760  0.00  0.00     0.050 H 
BRANCH  40  43
ATOM     43  CBD RX4 d          27.752   4.558  44.110  0.00  0.00     0.029 C 
ATOM     44  H19 RX4 d          28.734   4.425  44.588  0.00  0.00     0.054 H 
BRANCH  43  45
ATOM     45  CAB RX4 d          27.920   5.014  42.576  0.00  0.00    -0.064 C 
ATOM     46  H20 RX4 d          28.253   4.157  41.973  0.00  0.00     0.028 H 
ATOM     47  H21 RX4 d          28.667   5.819  42.513  0.00  0.00     0.028 H 
ATOM     48  H22 RX4 d          26.954   5.378  42.193  0.00  0.00     0.028 H 
ENDBRANCH  43  45
BRANCH  43  49
ATOM     49  CBA RX4 d          26.924   5.731  44.761  0.00  0.00     0.222 C 
ATOM     50  OAH RX4 d          27.476   6.807  45.040  0.00  0.00    -0.273 OA
ATOM     51  N   RX4 d          25.660   5.479  45.074  0.00  0.00    -0.348 N 
ATOM     52  H23 RX4 d          25.246   4.594  44.861  0.00  0.00     0.163 HD
BRANCH  51  53
ATOM     53  CA  RX4 d          24.860   6.561  45.761  0.00  0.00     0.086 C 
ATOM     54  H24 RX4 d          25.447   7.486  45.857  0.00  0.00     0.086 H 
BRANCH  53  55
ATOM     55  CB  RX4 d          23.570   6.831  44.973  0.00  0.00    -0.049 C 
ATOM     56  H25 RX4 d          22.763   7.099  45.671  0.00  0.00     0.030 H 
ATOM     57  H26 RX4 d          23.286   5.927  44.414  0.00  0.00     0.030 H 
ATOM     58  H27 RX4 d          23.737   7.661  44.270  0.00  0.00     0.030 H 
ENDBRANCH  53  55
BRANCH  53  59
ATOM     59  C   RX4 d          24.501   5.973  47.169  0.00  0.00     0.237 C 
ATOM     60  O   RX4 d          25.408   5.903  48.066  0.00  0.00    -0.271 OA
ATOM     61  NAD RX4 d          23.251   5.604  47.387  0.00  0.00    -0.368 N 
ATOM     62  H28 RX4 d          22.989   5.226  48.275  0.00  0.00     0.159 HD
ATOM     63  H29 RX4 d          22.568   5.703  46.664  0.00  0.00     0.159 HD
ENDBRANCH  53  59
ENDBRANCH  51  53
ENDBRANCH  43  49
ENDBRANCH  40  43
ENDBRANCH  37  40
ENDBRANCH   1  37
TORSDOF 16
ENDMDL
MODEL 2
REMARK VINA RESULT:      -6.8      1.767      2.097
REMARK  16 active torsions:
REMARK  status: ('A' for Active; 'I' for Inactive)
REMARK    1  A    between atoms: CBC_6  and  CAS_7 
REMARK    2  A    between atoms: CAS_7  and  CBG_8 
REMARK    3  A    between atoms: CBG_8  and  NAW_9 
REMARK    4  A    between atoms: CBG_8  and  P1_21 
REMARK       I    between atoms: NAW_9  and  CBB_10 
REMARK    5  A    between atoms: CBB_10  and  CBF_12 
REMARK    6  A    between atoms: CBF_12  and  CAR_13 
REMARK    7  A    between atoms: CBF_12  and  NAU_17 
REMARK    8  A    between atoms: CAR_13  and  CAZ_14 
REMARK       I    between atoms: NAU_17  and  CAX_18 
REMARK    9  A    between atoms: CAX_18  and  CAA_19 
REMARK   10  A    between atoms: P1_21  and  CAT_24 
REMARK   11  A    between atoms: CAT_24  and  CBD_25 
REMARK   12  A    between atoms: CBD_25  and  CAB_26 
REMARK   13  A    between atoms: CBD_25  and  CBA_27 
REMARK       I    between atoms: CBA_27  and  N_29 
REMARK   14  A    between atoms: N_29  and  CA_30 
REMARK   15  A    between atoms: CA_30  and  CB_31 
REMARK   16  A    between atoms: CA_30  and  C_32 
REMARK       I    between atoms: C_32  and  NAD_34 
ROOT
ATOM      1  CBG RX4 d          27.244  -0.067  44.702  0.00  0.00     0.091 C 
ATOM      2  H8  RX4 d          26.174  -0.131  44.456  0.00  0.00     0.089 H 
ENDROOT
BRANCH   1   3
ATOM      3  CAS RX4 d          27.391  -0.050  46.271  0.00  0.00    -0.013 C 
ATOM      4  H6  RX4 d          27.281  -1.066  46.678  0.00  0.00     0.044 H 
ATOM      5  H7  RX4 d          28.371   0.356  46.560  0.00  0.00     0.044 H 
BRANCH   3   6
ATOM      6  CBC RX4 d          26.252   0.865  46.789  0.00  0.00    -0.056 A 
ATOM      7  CAP RX4 d          26.577   1.695  47.892  0.00  0.00    -0.077 A 
ATOM      8  CAN RX4 d          25.660   2.537  48.506  0.00  0.00    -0.082 A 
ATOM      9  H1  RX4 d          27.590   1.670  48.275  0.00  0.00     0.084 H 
ATOM     10  CAM RX4 d          24.357   2.476  47.963  0.00  0.00    -0.083 A 
ATOM     11  H2  RX4 d          25.922   3.188  49.334  0.00  0.00     0.083 H 
ATOM     12  CAO RX4 d          23.995   1.635  46.884  0.00  0.00    -0.082 A 
ATOM     13  H3  RX4 d          23.592   3.109  48.397  0.00  0.00     0.083 H 
ATOM     14  CAQ RX4 d          24.956   0.806  46.282  0.00  0.00    -0.077 A 
ATOM     15  H4  RX4 d          22.973   1.631  46.522  0.00  0.00     0.083 H 
ATOM     16  H5  RX4 d          24.700   0.149  45.459  0.00  0.00     0.084 H 
ENDBRANCH   3   6
ENDBRANCH   1   3
BRANCH   1  17
ATOM     17  NAW RX4 d          27.954  -1.204  44.124  0.00  0.00    -0.345 N 
ATOM     18  CBB RX4 d          27.407  -2.414  44.269  0.00  0.00     0.241 C 
ATOM     19  OAI RX4 d          26.302  -2.584  44.816  0.00  0.00    -0.271 OA
ATOM     20  H9  RX4 d          28.819  -1.081  43.637  0.00  0.00     0.163 HD
BRANCH  18  21
ATOM     21  CBF RX4 d          28.241  -3.664  43.944  0.00  0.00     0.098 C 
ATOM     22  H10 RX4 d          27.994  -4.471  44.649  0.00  0.00     0.088 H 
BRANCH  21  23
ATOM     23  CAR RX4 d          29.709  -3.395  44.040  0.00  0.00     0.043 C 
ATOM     24  H11 RX4 d          29.904  -2.605  44.780  0.00  0.00     0.052 H 
ATOM     25  H12 RX4 d          30.106  -3.088  43.061  0.00  0.00     0.052 H 
BRANCH  23  26
ATOM     26  CAZ RX4 d          30.361  -4.725  44.490  0.00  0.00     0.175 C 
ATOM     27  OAK RX4 d          31.615  -4.788  44.632  0.00  0.00    -0.648 OA
ATOM     28  OAG RX4 d          29.584  -5.641  44.747  0.00  0.00    -0.648 OA
ENDBRANCH  23  26
ENDBRANCH  21  23
BRANCH  21  29
ATOM     29  NAU RX4 d          27.802  -4.053  42.558  0.00  0.00    -0.348 N 
ATOM     30  CAX RX4 d          27.074  -5.156  42.305  0.00  0.00     0.214 C 
ATOM     31  OAE RX4 d          26.733  -5.985  43.184  0.00  0.00    -0.274 OA
ATOM     32  H13 RX4 d          28.063  -3.467  41.791  0.00  0.00     0.163 HD
BRANCH  30  33
ATOM     33  CAA RX4 d          26.667  -5.369  40.818  0.00  0.00    -0.003 C 
ATOM     34  H14 RX4 d          26.298  -6.396  40.681  0.00  0.00     0.040 H 
ATOM     35  H15 RX4 d          27.541  -5.204  40.172  0.00  0.00     0.040 H 
ATOM     36  H16 RX4 d          25.873  -4.656  40.550  0.00  0.00     0.040 H 
ENDBRANCH  30  33
ENDBRANCH  21  29
ENDBRANCH  18  21
ENDBRANCH   1  17
BRANCH   1  37
ATOM     37  P1  RX4 d          27.955   1.393  43.911  0.00  0.00     0.130 P 
ATOM     38  O4  RX4 d          28.887   0.992  42.780  0.00  0.00    -0.666 OA
ATOM     39  O3  RX4 d          28.895   2.172  44.803  0.00  0.00    -0.666 OA
BRANCH  37  40
ATOM     40  CAT RX4 d          26.595   2.376  43.297  0.00  0.00     0.020 C 
ATOM     41  H17 RX4 d          26.247   3.014  44.122  0.00  0.00     0.050 H 
ATOM     42  H18 RX4 d          25.791   1.685  43.004  0.00  0.00     0.050 H 
BRANCH  40  43
ATOM     43  CBD RX4 d          26.883   3.287  42.098  0.00  0.00     0.029 C 
ATOM     44  H19 RX4 d          27.511   2.763  41.363  0.00  0.00     0.054 H 
BRANCH  43  45
ATOM     45  CAB RX4 d          25.551   3.865  41.404  0.00  0.00    -0.064 C 
ATOM     46  H20 RX4 d          25.027   4.526  42.110  0.00  0.00     0.028 H 
ATOM     47  H21 RX4 d          24.891   3.030  41.124  0.00  0.00     0.028 H 
ATOM     48  H22 RX4 d          25.824   4.434  40.502  0.00  0.00     0.028 H 
ENDBRANCH  43  45
BRANCH  43  49
ATOM     49  CBA RX4 d          27.588   4.571  42.682  0.00  0.00     0.222 C 
ATOM     50  OAH RX4 d          28.425   5.187  42.004  0.00  0.00    -0.273 OA
ATOM     51  N   RX4 d          27.316   4.893  43.939  0.00  0.00    -0.348 N 
ATOM     52  H23 RX4 d          26.655   4.364  44.472  0.00  0.00     0.163 HD
BRANCH  51  53
ATOM     53  CA  RX4 d          28.028   6.078  44.548  0.00  0.00     0.086 C 
ATOM     54  H24 RX4 d          28.860   6.410  43.910  0.00  0.00     0.086 H 
BRANCH  53  55
ATOM     55  CB  RX4 d          27.032   7.227  44.762  0.00  0.00    -0.049 C 
ATOM     56  H25 RX4 d          26.069   6.968  44.297  0.00  0.00     0.030 H 
ATOM     57  H26 RX4 d          27.427   8.144  44.301  0.00  0.00     0.030 H 
ATOM     58  H27 RX4 d          26.887   7.390  45.840  0.00  0.00     0.030 H 
ENDBRANCH  53  55
BRANCH  53  59
ATOM     59  C   RX4 d          28.551   5.572  45.936  0.00  0.00     0.237 C 
ATOM     60  O   RX4 d          29.419   6.264  46.567  0.00  0.00    -0.271 OA
ATOM     61  NAD RX4 d          28.039   4.455  46.422  0.00  0.00    -0.368 N 
ATOM     62  H28 RX4 d          28.351   4.105  47.306  0.00  0.00     0.159 HD
ATOM     63  H29 RX4 d          27.340   3.959  45.906  0.00  0.00     0.159 HD
ENDBRANCH  53  59
ENDBRANCH  51  53
ENDBRANCH  43  49
ENDBRANCH  40  43
ENDBRANCH  37  40
ENDBRANCH   1  37
TORSDOF 16
ENDMDL
MODEL 3
REMARK VINA RESULT:      -6.2      2.185      8.099
REMARK  16 active torsions:
REMARK  status: ('A' for Active; 'I' for Inactive)
REMARK    1  A    between atoms: CBC_6  and  CAS_7 
REMARK    2  A    between atoms: CAS_7  and  CBG_8 
REMARK    3  A    between atoms: CBG_8  and  NAW_9 
REMARK    4  A    between atoms: CBG_8  and  P1_21 
REMARK       I    between atoms: NAW_9  and  CBB_10 
REMARK    5  A    between atoms: CBB_10  and  CBF_12 
REMARK    6  A    between atoms: CBF_12  and  CAR_13 
REMARK    7  A    between atoms: CBF_12  and  NAU_17 
REMARK    8  A    between atoms: CAR_13  and  CAZ_14 
REMARK       I    between atoms: NAU_17  and  CAX_18 
REMARK    9  A    between atoms: CAX_18  and  CAA_19 
REMARK   10  A    between atoms: P1_21  and  CAT_24 
REMARK   11  A    between atoms: CAT_24  and  CBD_25 
REMARK   12  A    between atoms: CBD_25  and  CAB_26 
REMARK   13  A    between atoms: CBD_25  and  CBA_27 
REMARK       I    between atoms: CBA_27  and  N_29 
REMARK   14  A    between atoms: N_29  and  CA_30 
REMARK   15  A    between atoms: CA_30  and  CB_31 
REMARK   16  A    between atoms: CA_30  and  C_32 
REMARK       I    between atoms: C_32  and  NAD_34 
ROOT
ATOM      1  CBG RX4 d          25.969   3.566  47.349  0.00  0.00     0.091 C 
ATOM      2  H8  RX4 d          26.906   3.219  47.810  0.00  0.00     0.089 H 
ENDROOT
BRANCH   1   3
ATOM      3  CAS RX4 d          25.089   4.245  48.467  0.00  0.00    -0.013 C 
ATOM      4  H6  RX4 d          24.509   3.487  49.013  0.00  0.00     0.044 H 
ATOM      5  H7  RX4 d          25.726   4.798  49.173  0.00  0.00     0.044 H 
BRANCH   3   6
ATOM      6  CBC RX4 d          24.140   5.217  47.720  0.00  0.00    -0.056 A 
ATOM      7  CAP RX4 d          22.988   5.631  48.437  0.00  0.00    -0.077 A 
ATOM      8  CAN RX4 d          22.014   6.460  47.898  0.00  0.00    -0.082 A 
ATOM      9  H1  RX4 d          22.863   5.284  49.456  0.00  0.00     0.084 H 
ATOM     10  CAM RX4 d          22.244   6.833  46.554  0.00  0.00    -0.083 A 
ATOM     11  H2  RX4 d          21.149   6.794  48.461  0.00  0.00     0.083 H 
ATOM     12  CAO RX4 d          23.366   6.410  45.803  0.00  0.00    -0.082 A 
ATOM     13  H3  RX4 d          21.521   7.480  46.072  0.00  0.00     0.083 H 
ATOM     14  CAQ RX4 d          24.336   5.581  46.390  0.00  0.00    -0.077 A 
ATOM     15  H4  RX4 d          23.476   6.726  44.772  0.00  0.00     0.083 H 
ATOM     16  H5  RX4 d          25.200   5.239  45.832  0.00  0.00     0.084 H 
ENDBRANCH   3   6
ENDBRANCH   1   3
BRANCH   1  17
ATOM     17  NAW RX4 d          26.264   4.508  46.274  0.00  0.00    -0.345 N 
ATOM     18  CBB RX4 d          27.521   4.558  45.823  0.00  0.00     0.241 C 
ATOM     19  OAI RX4 d          28.410   3.797  46.243  0.00  0.00    -0.271 OA
ATOM     20  H9  RX4 d          25.552   5.094  45.889  0.00  0.00     0.163 HD
BRANCH  18  21
ATOM     21  CBF RX4 d          27.950   5.720  44.911  0.00  0.00     0.098 C 
ATOM     22  H10 RX4 d          28.944   5.514  44.488  0.00  0.00     0.088 H 
BRANCH  21  23
ATOM     23  CAR RX4 d          28.018   7.016  45.653  0.00  0.00     0.043 C 
ATOM     24  H11 RX4 d          27.125   7.143  46.282  0.00  0.00     0.052 H 
ATOM     25  H12 RX4 d          28.093   7.857  44.946  0.00  0.00     0.052 H 
BRANCH  23  26
ATOM     26  CAZ RX4 d          29.288   6.941  46.533  0.00  0.00     0.175 C 
ATOM     27  OAK RX4 d          30.428   7.019  45.992  0.00  0.00    -0.648 OA
ATOM     28  OAG RX4 d          29.096   6.869  47.744  0.00  0.00    -0.648 OA
ENDBRANCH  23  26
ENDBRANCH  21  23
BRANCH  21  29
ATOM     29  NAU RX4 d          26.924   5.724  43.809  0.00  0.00    -0.348 N 
ATOM     30  CAX RX4 d          27.073   5.021  42.671  0.00  0.00     0.214 C 
ATOM     31  OAE RX4 d          28.090   4.340  42.398  0.00  0.00    -0.274 OA
ATOM     32  H13 RX4 d          26.097   6.272  43.928  0.00  0.00     0.163 HD
BRANCH  30  33
ATOM     33  CAA RX4 d          25.885   5.105  41.668  0.00  0.00    -0.003 C 
ATOM     34  H14 RX4 d          26.014   4.346  40.882  0.00  0.00     0.040 H 
ATOM     35  H15 RX4 d          25.860   6.104  41.211  0.00  0.00     0.040 H 
ATOM     36  H16 RX4 d          24.940   4.922  42.203  0.00  0.00     0.040 H 
ENDBRANCH  30  33
ENDBRANCH  21  29
ENDBRANCH  18  21
ENDBRANCH   1  17
BRANCH   1  37
ATOM     37  P1  RX4 d          25.142   2.172  46.550  0.00  0.00     0.130 P 
ATOM     38  O4  RX4 d          24.437   2.621  45.282  0.00  0.00    -0.666 OA
ATOM     39  O3  RX4 d          23.985   1.614  47.348  0.00  0.00    -0.666 OA
BRANCH  37  40
ATOM     40  CAT RX4 d          26.396   0.953  46.185  0.00  0.00     0.020 C 
ATOM     41  H17 RX4 d          26.196   0.072  46.811  0.00  0.00     0.050 H 
ATOM     42  H18 RX4 d          27.370   1.385  46.460  0.00  0.00     0.050 H 
BRANCH  40  43
ATOM     43  CBD RX4 d          26.496   0.475  44.732  0.00  0.00     0.029 C 
ATOM     44  H19 RX4 d          25.683   0.907  44.131  0.00  0.00     0.054 H 
BRANCH  43  45
ATOM     45  CAB RX4 d          27.927   0.775  44.060  0.00  0.00    -0.064 C 
ATOM     46  H20 RX4 d          28.723   0.343  44.684  0.00  0.00     0.028 H 
ATOM     47  H21 RX4 d          28.073   1.862  43.980  0.00  0.00     0.028 H 
ATOM     48  H22 RX4 d          27.963   0.325  43.056  0.00  0.00     0.028 H 
ENDBRANCH  43  45
BRANCH  43  49
ATOM     49  CBA RX4 d          26.430  -1.100  44.784  0.00  0.00     0.222 C 
ATOM     50  OAH RX4 d          25.893  -1.673  45.745  0.00  0.00    -0.273 OA
ATOM     51  N   RX4 d          27.048  -1.764  43.816  0.00  0.00    -0.348 N 
ATOM     52  H23 RX4 d          27.496  -1.277  43.066  0.00  0.00     0.163 HD
BRANCH  51  53
ATOM     53  CA  RX4 d          27.061  -3.274  43.875  0.00  0.00     0.086 C 
ATOM     54  H24 RX4 d          26.270  -3.650  44.540  0.00  0.00     0.086 H 
BRANCH  53  55
ATOM     55  CB  RX4 d          26.885  -3.848  42.462  0.00  0.00    -0.049 C 
ATOM     56  H25 RX4 d          27.795  -3.659  41.873  0.00  0.00     0.030 H 
ATOM     57  H26 RX4 d          26.025  -3.365  41.975  0.00  0.00     0.030 H 
ATOM     58  H27 RX4 d          26.709  -4.932  42.527  0.00  0.00     0.030 H 
ENDBRANCH  53  55
BRANCH  53  59
ATOM     59  C   RX4 d          28.481  -3.650  44.421  0.00  0.00     0.237 C 
ATOM     60  O   RX4 d          28.591  -4.580  45.289  0.00  0.00    -0.271 OA
ATOM     61  NAD RX4 d          29.525  -3.007  43.928  0.00  0.00    -0.368 N 
ATOM     62  H28 RX4 d          30.446  -3.223  44.255  0.00  0.00     0.159 HD
ATOM     63  H29 RX4 d          29.395  -2.304  43.228  0.00  0.00     0.159 HD
ENDBRANCH  53  59
ENDBRANCH  51  53
ENDBRANCH  43  49
ENDBRANCH  40  43
ENDBRANCH  37  40
ENDBRANCH   1  37
TORSDOF 16
ENDMDL
MODEL 4
REMARK VINA RESULT:      -6.2      1.961      8.548
REMARK  16 active torsions:
REMARK  status: ('A' for Active; 'I' for Inactive)
REMARK    1  A    between atoms: CBC_6  and  CAS_7 
REMARK    2  A    between atoms: CAS_7  and  CBG_8 
REMARK    3  A    between atoms: CBG_8  and  NAW_9 
REMARK    4  A    between atoms: CBG_8  and  P1_21 
REMARK       I    between atoms: NAW_9  and  CBB_10 
REMARK    5  A    between atoms: CBB_10  and  CBF_12 
REMARK    6  A    between atoms: CBF_12  and  CAR_13 
REMARK    7  A    between atoms: CBF_12  and  NAU_17 
REMARK    8  A    between atoms: CAR_13  and  CAZ_14 
REMARK       I    between atoms: NAU_17  and  CAX_18 
REMARK    9  A    between atoms: CAX_18  and  CAA_19 
REMARK   10  A    between atoms: P1_21  and  CAT_24 
REMARK   11  A    between atoms: CAT_24  and  CBD_25 
REMARK   12  A    between atoms: CBD_25  and  CAB_26 
REMARK   13  A    between atoms: CBD_25  and  CBA_27 
REMARK       I    between atoms: CBA_27  and  N_29 
REMARK   14  A    between atoms: N_29  and  CA_30 
REMARK   15  A    between atoms: CA_30  and  CB_31 
REMARK   16  A    between atoms: CA_30  and  C_32 
REMARK       I    between atoms: C_32  and  NAD_34 
ROOT
ATOM      1  CBG RX4 d          27.320   3.455  45.350  0.00  0.00     0.091 C 
ATOM      2  H8  RX4 d          26.440   3.238  44.727  0.00  0.00     0.089 H 
ENDROOT
BRANCH   1   3
ATOM      3  CAS RX4 d          28.242   4.468  44.569  0.00  0.00    -0.013 C 
ATOM      4  H6  RX4 d          28.462   5.346  45.193  0.00  0.00     0.044 H 
ATOM      5  H7  RX4 d          29.183   3.981  44.276  0.00  0.00     0.044 H 
BRANCH   3   6
ATOM      6  CBC RX4 d          27.436   4.885  43.313  0.00  0.00    -0.056 A 
ATOM      7  CAP RX4 d          27.841   6.092  42.689  0.00  0.00    -0.077 A 
ATOM      8  CAN RX4 d          27.196   6.632  41.585  0.00  0.00    -0.082 A 
ATOM      9  H1  RX4 d          28.697   6.619  43.094  0.00  0.00     0.084 H 
ATOM     10  CAM RX4 d          26.071   5.896  41.149  0.00  0.00    -0.083 A 
ATOM     11  H2  RX4 d          27.528   7.542  41.097  0.00  0.00     0.083 H 
ATOM     12  CAO RX4 d          25.622   4.707  41.771  0.00  0.00    -0.082 A 
ATOM     13  H3  RX4 d          25.521   6.263  40.291  0.00  0.00     0.083 H 
ATOM     14  CAQ RX4 d          26.311   4.187  42.879  0.00  0.00    -0.077 A 
ATOM     15  H4  RX4 d          24.744   4.196  41.391  0.00  0.00     0.083 H 
ATOM     16  H5  RX4 d          25.981   3.281  43.376  0.00  0.00     0.084 H 
ENDBRANCH   3   6
ENDBRANCH   1   3
BRANCH   1  17
ATOM     17  NAW RX4 d          26.894   4.018  46.629  0.00  0.00    -0.345 N 
ATOM     18  CBB RX4 d          25.582   4.149  46.841  0.00  0.00     0.241 C 
ATOM     19  OAI RX4 d          24.732   3.755  46.022  0.00  0.00    -0.271 OA
ATOM     20  H9  RX4 d          27.561   4.295  47.320  0.00  0.00     0.163 HD
BRANCH  18  21
ATOM     21  CBF RX4 d          25.090   4.994  48.028  0.00  0.00     0.098 C 
ATOM     22  H10 RX4 d          25.754   5.859  48.171  0.00  0.00     0.088 H 
BRANCH  21  23
ATOM     23  CAR RX4 d          25.068   4.209  49.300  0.00  0.00     0.043 C 
ATOM     24  H11 RX4 d          24.268   4.575  49.961  0.00  0.00     0.052 H 
ATOM     25  H12 RX4 d          26.037   4.291  49.816  0.00  0.00     0.052 H 
BRANCH  23  26
ATOM     26  CAZ RX4 d          24.800   2.740  48.895  0.00  0.00     0.175 C 
ATOM     27  OAK RX4 d          23.613   2.356  48.692  0.00  0.00    -0.648 OA
ATOM     28  OAG RX4 d          25.796   2.040  48.732  0.00  0.00    -0.648 OA
ENDBRANCH  23  26
ENDBRANCH  21  23
BRANCH  21  29
ATOM     29  NAU RX4 d          23.726   5.469  47.604  0.00  0.00    -0.348 N 
ATOM     30  CAX RX4 d          23.541   6.521  46.785  0.00  0.00     0.214 C 
ATOM     31  OAE RX4 d          24.474   7.229  46.336  0.00  0.00    -0.274 OA
ATOM     32  H13 RX4 d          22.923   4.983  47.947  0.00  0.00     0.163 HD
BRANCH  30  33
ATOM     33  CAA RX4 d          22.062   6.833  46.414  0.00  0.00    -0.003 C 
ATOM     34  H14 RX4 d          22.029   7.352  45.444  0.00  0.00     0.040 H 
ATOM     35  H15 RX4 d          21.618   7.475  47.188  0.00  0.00     0.040 H 
ATOM     36  H16 RX4 d          21.494   5.893  46.347  0.00  0.00     0.040 H 
ENDBRANCH  30  33
ENDBRANCH  21  29
ENDBRANCH  18  21
ENDBRANCH   1  17
BRANCH   1  37
ATOM     37  P1  RX4 d          28.160   1.910  45.764  0.00  0.00     0.130 P 
ATOM     38  O4  RX4 d          28.845   2.016  47.115  0.00  0.00    -0.666 OA
ATOM     39  O3  RX4 d          29.334   1.597  44.863  0.00  0.00    -0.666 OA
BRANCH  37  40
ATOM     40  CAT RX4 d          26.921   0.623  45.776  0.00  0.00     0.020 C 
ATOM     41  H17 RX4 d          26.035   1.019  46.293  0.00  0.00     0.050 H 
ATOM     42  H18 RX4 d          27.329  -0.225  46.346  0.00  0.00     0.050 H 
BRANCH  40  43
ATOM     43  CBD RX4 d          26.462   0.089  44.415  0.00  0.00     0.029 C 
ATOM     44  H19 RX4 d          25.459   0.470  44.173  0.00  0.00     0.054 H 
BRANCH  43  45
ATOM     45  CAB RX4 d          27.497   0.407  43.224  0.00  0.00    -0.064 C 
ATOM     46  H20 RX4 d          28.379   0.921  43.633  0.00  0.00     0.028 H 
ATOM     47  H21 RX4 d          27.010   1.052  42.478  0.00  0.00     0.028 H 
ATOM     48  H22 RX4 d          27.809  -0.535  42.748  0.00  0.00     0.028 H 
ENDBRANCH  43  45
BRANCH  43  49
ATOM     49  CBA RX4 d          26.493  -1.484  44.528  0.00  0.00     0.222 C 
ATOM     50  OAH RX4 d          25.958  -2.053  45.492  0.00  0.00    -0.273 OA
ATOM     51  N   RX4 d          27.187  -2.143  43.610  0.00  0.00    -0.348 N 
ATOM     52  H23 RX4 d          27.630  -1.658  42.856  0.00  0.00     0.163 HD
BRANCH  51  53
ATOM     53  CA  RX4 d          27.293  -3.645  43.730  0.00  0.00     0.086 C 
ATOM     54  H24 RX4 d          26.793  -4.005  44.641  0.00  0.00     0.086 H 
BRANCH  53  55
ATOM     55  CB  RX4 d          26.675  -4.309  42.490  0.00  0.00    -0.049 C 
ATOM     56  H25 RX4 d          26.455  -3.541  41.734  0.00  0.00     0.030 H 
ATOM     57  H26 RX4 d          25.744  -4.821  42.775  0.00  0.00     0.030 H 
ATOM     58  H27 RX4 d          27.384  -5.040  42.074  0.00  0.00     0.030 H 
ENDBRANCH  53  55
BRANCH  53  59
ATOM     59  C   RX4 d          28.830  -3.945  43.774  0.00  0.00     0.237 C 
ATOM     60  O   RX4 d          29.242  -5.132  43.544  0.00  0.00    -0.271 OA
ATOM     61  NAD RX4 d          29.652  -2.938  44.014  0.00  0.00    -0.368 N 
ATOM     62  H28 RX4 d          30.639  -3.096  44.048  0.00  0.00     0.159 HD
ATOM     63  H29 RX4 d          29.286  -2.019  44.161  0.00  0.00     0.159 HD
ENDBRANCH  53  59
ENDBRANCH  51  53
ENDBRANCH  43  49
ENDBRANCH  40  43
ENDBRANCH  37  40
ENDBRANCH   1  37
TORSDOF 16
ENDMDL
MODEL 5
REMARK VINA RESULT:      -6.2      2.107      8.972
REMARK  16 active torsions:
REMARK  status: ('A' for Active; 'I' for Inactive)
REMARK    1  A    between atoms: CBC_6  and  CAS_7 
REMARK    2  A    between atoms: CAS_7  and  CBG_8 
REMARK    3  A    between atoms: CBG_8  and  NAW_9 
REMARK    4  A    between atoms: CBG_8  and  P1_21 
REMARK       I    between atoms: NAW_9  and  CBB_10 
REMARK    5  A    between atoms: CBB_10  and  CBF_12 
REMARK    6  A    between atoms: CBF_12  and  CAR_13 
REMARK    7  A    between atoms: CBF_12  and  NAU_17 
REMARK    8  A    between atoms: CAR_13  and  CAZ_14 
REMARK       I    between atoms: NAU_17  and  CAX_18 
REMARK    9  A    between atoms: CAX_18  and  CAA_19 
REMARK   10  A    between atoms: P1_21  and  CAT_24 
REMARK   11  A    between atoms: CAT_24  and  CBD_25 
REMARK   12  A    between atoms: CBD_25  and  CAB_26 
REMARK   13  A    between atoms: CBD_25  and  CBA_27 
REMARK       I    between atoms: CBA_27  and  N_29 
REMARK   14  A    between atoms: N_29  and  CA_30 
REMARK   15  A    between atoms: CA_30  and  CB_31 
REMARK   16  A    between atoms: CA_30  and  C_32 
REMARK       I    between atoms: C_32  and  NAD_34 
ROOT
ATOM      1  CBG RX4 d          27.020   3.327  44.987  0.00  0.00     0.091 C 
ATOM      2  H8  RX4 d          26.223   2.940  44.336  0.00  0.00     0.089 H 
ENDROOT
BRANCH   1   3
ATOM      3  CAS RX4 d          28.053   4.112  44.092  0.00  0.00    -0.013 C 
ATOM      4  H6  RX4 d          28.521   4.924  44.669  0.00  0.00     0.044 H 
ATOM      5  H7  RX4 d          28.832   3.432  43.718  0.00  0.00     0.044 H 
BRANCH   3   6
ATOM      6  CBC RX4 d          27.231   4.693  42.914  0.00  0.00    -0.056 A 
ATOM      7  CAP RX4 d          27.443   6.065  42.625  0.00  0.00    -0.077 A 
ATOM      8  CAN RX4 d          26.754   6.750  41.635  0.00  0.00    -0.082 A 
ATOM      9  H1  RX4 d          28.181   6.605  43.207  0.00  0.00     0.084 H 
ATOM     10  CAM RX4 d          25.788   5.975  40.954  0.00  0.00    -0.083 A 
ATOM     11  H2  RX4 d          26.940   7.793  41.403  0.00  0.00     0.083 H 
ATOM     12  CAO RX4 d          25.529   4.614  41.241  0.00  0.00    -0.082 A 
ATOM     13  H3  RX4 d          25.212   6.449  40.168  0.00  0.00     0.083 H 
ATOM     14  CAQ RX4 d          26.259   3.953  42.244  0.00  0.00    -0.077 A 
ATOM     15  H4  RX4 d          24.766   4.079  40.686  0.00  0.00     0.083 H 
ATOM     16  H5  RX4 d          26.074   2.912  42.485  0.00  0.00     0.084 H 
ENDBRANCH   3   6
ENDBRANCH   1   3
BRANCH   1  17
ATOM     17  NAW RX4 d          26.446   4.199  46.008  0.00  0.00    -0.345 N 
ATOM     18  CBB RX4 d          25.133   4.105  46.235  0.00  0.00     0.241 C 
ATOM     19  OAI RX4 d          24.415   3.270  45.656  0.00  0.00    -0.271 OA
ATOM     20  H9  RX4 d          27.016   4.842  46.519  0.00  0.00     0.163 HD
BRANCH  18  21
ATOM     21  CBF RX4 d          24.434   5.186  47.076  0.00  0.00     0.098 C 
ATOM     22  H10 RX4 d          23.816   4.712  47.853  0.00  0.00     0.088 H 
BRANCH  21  23
ATOM     23  CAR RX4 d          23.546   6.054  46.242  0.00  0.00     0.043 C 
ATOM     24  H11 RX4 d          23.188   6.911  46.831  0.00  0.00     0.052 H 
ATOM     25  H12 RX4 d          22.686   5.476  45.872  0.00  0.00     0.052 H 
BRANCH  23  26
ATOM     26  CAZ RX4 d          24.413   6.542  45.057  0.00  0.00     0.175 C 
ATOM     27  OAK RX4 d          25.451   7.227  45.285  0.00  0.00    -0.648 OA
ATOM     28  OAG RX4 d          24.057   6.168  43.943  0.00  0.00    -0.648 OA
ENDBRANCH  23  26
ENDBRANCH  21  23
BRANCH  21  29
ATOM     29  NAU RX4 d          25.563   5.943  47.720  0.00  0.00    -0.348 N 
ATOM     30  CAX RX4 d          26.275   5.454  48.752  0.00  0.00     0.214 C 
ATOM     31  OAE RX4 d          26.040   4.352  49.303  0.00  0.00    -0.274 OA
ATOM     32  H13 RX4 d          25.795   6.849  47.367  0.00  0.00     0.163 HD
BRANCH  30  33
ATOM     33  CAA RX4 d          27.440   6.356  49.254  0.00  0.00    -0.003 C 
ATOM     34  H14 RX4 d          28.082   5.780  49.938  0.00  0.00     0.040 H 
ATOM     35  H15 RX4 d          27.028   7.227  49.784  0.00  0.00     0.040 H 
ATOM     36  H16 RX4 d          28.036   6.698  48.394  0.00  0.00     0.040 H 
ENDBRANCH  30  33
ENDBRANCH  21  29
ENDBRANCH  18  21
ENDBRANCH   1  17
BRANCH   1  37
ATOM     37  P1  RX4 d          27.771   1.957  45.894  0.00  0.00     0.130 P 
ATOM     38  O4  RX4 d          27.899   2.295  47.370  0.00  0.00    -0.666 OA
ATOM     39  O3  RX4 d          29.215   1.702  45.526  0.00  0.00    -0.666 OA
BRANCH  37  40
ATOM     40  CAT RX4 d          26.723   0.529  45.657  0.00  0.00     0.020 C 
ATOM     41  H17 RX4 d          25.680   0.862  45.758  0.00  0.00     0.050 H 
ATOM     42  H18 RX4 d          26.957  -0.191  46.454  0.00  0.00     0.050 H 
BRANCH  40  43
ATOM     43  CBD RX4 d          26.846  -0.206  44.318  0.00  0.00     0.029 C 
ATOM     44  H19 RX4 d          25.911  -0.115  43.744  0.00  0.00     0.054 H 
BRANCH  43  45
ATOM     45  CAB RX4 d          28.105   0.276  43.440  0.00  0.00    -0.064 C 
ATOM     46  H20 RX4 d          28.583   1.138  43.928  0.00  0.00     0.028 H 
ATOM     47  H21 RX4 d          27.762   0.567  42.436  0.00  0.00     0.028 H 
ATOM     48  H22 RX4 d          28.831  -0.547  43.355  0.00  0.00     0.028 H 
ENDBRANCH  43  45
BRANCH  43  49
ATOM     49  CBA RX4 d          27.187  -1.705  44.670  0.00  0.00     0.222 C 
ATOM     50  OAH RX4 d          27.517  -2.017  45.825  0.00  0.00    -0.273 OA
ATOM     51  N   RX4 d          27.196  -2.576  43.670  0.00  0.00    -0.348 N 
ATOM     52  H23 RX4 d          26.950  -2.293  42.743  0.00  0.00     0.163 HD
BRANCH  51  53
ATOM     53  CA  RX4 d          27.586  -4.005  43.964  0.00  0.00     0.086 C 
ATOM     54  H24 RX4 d          27.506  -4.223  45.039  0.00  0.00     0.086 H 
BRANCH  53  55
ATOM     55  CB  RX4 d          26.693  -4.961  43.161  0.00  0.00    -0.049 C 
ATOM     56  H25 RX4 d          26.224  -5.686  43.844  0.00  0.00     0.030 H 
ATOM     57  H26 RX4 d          27.304  -5.498  42.420  0.00  0.00     0.030 H 
ATOM     58  H27 RX4 d          25.910  -4.386  42.645  0.00  0.00     0.030 H 
ENDBRANCH  53  55
BRANCH  53  59
ATOM     59  C   RX4 d          29.068  -4.134  43.472  0.00  0.00     0.237 C 
ATOM     60  O   RX4 d          29.389  -5.100  42.700  0.00  0.00    -0.271 OA
ATOM     61  NAD RX4 d          29.930  -3.206  43.849  0.00  0.00    -0.368 N 
ATOM     62  H28 RX4 d          30.883  -3.258  43.552  0.00  0.00     0.159 HD
ATOM     63  H29 RX4 d          29.628  -2.451  44.432  0.00  0.00     0.159 HD
ENDBRANCH  53  59
ENDBRANCH  51  53
ENDBRANCH  43  49
ENDBRANCH  40  43
ENDBRANCH  37  40
ENDBRANCH   1  37
TORSDOF 16
ENDMDL
MODEL 6
REMARK VINA RESULT:      -6.1      2.127      8.708
REMARK  16 active torsions:
REMARK  status: ('A' for Active; 'I' for Inactive)
REMARK    1  A    between atoms: CBC_6  and  CAS_7 
REMARK    2  A    between atoms: CAS_7  and  CBG_8 
REMARK    3  A    between atoms: CBG_8  and  NAW_9 
REMARK    4  A    between atoms: CBG_8  and  P1_21 
REMARK       I    between atoms: NAW_9  and  CBB_10 
REMARK    5  A    between atoms: CBB_10  and  CBF_12 
REMARK    6  A    between atoms: CBF_12  and  CAR_13 
REMARK    7  A    between atoms: CBF_12  and  NAU_17 
REMARK    8  A    between atoms: CAR_13  and  CAZ_14 
REMARK       I    between atoms: NAU_17  and  CAX_18 
REMARK    9  A    between atoms: CAX_18  and  CAA_19 
REMARK   10  A    between atoms: P1_21  and  CAT_24 
REMARK   11  A    between atoms: CAT_24  and  CBD_25 
REMARK   12  A    between atoms: CBD_25  and  CAB_26 
REMARK   13  A    between atoms: CBD_25  and  CBA_27 
REMARK       I    between atoms: CBA_27  and  N_29 
REMARK   14  A    between atoms: N_29  and  CA_30 
REMARK   15  A    between atoms: CA_30  and  CB_31 
REMARK   16  A    between atoms: CA_30  and  C_32 
REMARK       I    between atoms: C_32  and  NAD_34 
ROOT
ATOM      1  CBG RX4 d          27.638   1.375  45.175  0.00  0.00     0.091 C 
ATOM      2  H8  RX4 d          28.569   1.219  44.611  0.00  0.00     0.089 H 
ENDROOT
BRANCH   1   3
ATOM      3  CAS RX4 d          28.014   1.830  46.637  0.00  0.00    -0.013 C 
ATOM      4  H6  RX4 d          28.127   0.955  47.294  0.00  0.00     0.044 H 
ATOM      5  H7  RX4 d          28.950   2.406  46.630  0.00  0.00     0.044 H 
BRANCH   3   6
ATOM      6  CBC RX4 d          26.837   2.717  47.116  0.00  0.00    -0.056 A 
ATOM      7  CAP RX4 d          27.062   4.116  47.085  0.00  0.00    -0.077 A 
ATOM      8  CAN RX4 d          26.131   5.047  47.524  0.00  0.00    -0.082 A 
ATOM      9  H1  RX4 d          28.009   4.477  46.700  0.00  0.00     0.084 H 
ATOM     10  CAM RX4 d          24.943   4.483  48.043  0.00  0.00    -0.083 A 
ATOM     11  H2  RX4 d          26.300   6.117  47.474  0.00  0.00     0.083 H 
ATOM     12  CAO RX4 d          24.702   3.091  48.117  0.00  0.00    -0.082 A 
ATOM     13  H3  RX4 d          24.173   5.155  48.404  0.00  0.00     0.083 H 
ATOM     14  CAQ RX4 d          25.666   2.182  47.650  0.00  0.00    -0.077 A 
ATOM     15  H4  RX4 d          23.771   2.725  48.536  0.00  0.00     0.083 H 
ATOM     16  H5  RX4 d          25.506   1.111  47.703  0.00  0.00     0.084 H 
ENDBRANCH   3   6
ENDBRANCH   1   3
BRANCH   1  17
ATOM     17  NAW RX4 d          26.819   2.384  44.510  0.00  0.00    -0.345 N 
ATOM     18  CBB RX4 d          27.410   3.154  43.592  0.00  0.00     0.241 C 
ATOM     19  OAI RX4 d          28.597   2.995  43.254  0.00  0.00    -0.271 OA
ATOM     20  H9  RX4 d          25.851   2.494  44.733  0.00  0.00     0.163 HD
BRANCH  18  21
ATOM     21  CBF RX4 d          26.685   4.409  43.079  0.00  0.00     0.098 C 
ATOM     22  H10 RX4 d          26.387   4.264  42.030  0.00  0.00     0.088 H 
BRANCH  21  23
ATOM     23  CAR RX4 d          27.552   5.624  43.153  0.00  0.00     0.043 C 
ATOM     24  H11 RX4 d          28.492   5.391  43.674  0.00  0.00     0.052 H 
ATOM     25  H12 RX4 d          27.029   6.434  43.684  0.00  0.00     0.052 H 
BRANCH  23  26
ATOM     26  CAZ RX4 d          27.837   6.039  41.690  0.00  0.00     0.175 C 
ATOM     27  OAK RX4 d          26.872   6.209  40.891  0.00  0.00    -0.648 OA
ATOM     28  OAG RX4 d          29.015   6.241  41.411  0.00  0.00    -0.648 OA
ENDBRANCH  23  26
ENDBRANCH  21  23
BRANCH  21  29
ATOM     29  NAU RX4 d          25.456   4.506  43.943  0.00  0.00    -0.348 N 
ATOM     30  CAX RX4 d          24.643   5.579  43.938  0.00  0.00     0.214 C 
ATOM     31  OAE RX4 d          24.853   6.611  43.256  0.00  0.00    -0.274 OA
ATOM     32  H13 RX4 d          25.234   3.741  44.547  0.00  0.00     0.163 HD
BRANCH  30  33
ATOM     33  CAA RX4 d          23.392   5.479  44.858  0.00  0.00    -0.003 C 
ATOM     34  H14 RX4 d          22.735   4.674  44.498  0.00  0.00     0.040 H 
ATOM     35  H15 RX4 d          22.846   6.433  44.839  0.00  0.00     0.040 H 
ATOM     36  H16 RX4 d          23.710   5.259  45.888  0.00  0.00     0.040 H 
ENDBRANCH  30  33
ENDBRANCH  21  29
ENDBRANCH  18  21
ENDBRANCH   1  17
BRANCH   1  37
ATOM     37  P1  RX4 d          26.654  -0.140  45.139  0.00  0.00     0.130 P 
ATOM     38  O4  RX4 d          25.213   0.164  44.767  0.00  0.00    -0.666 OA
ATOM     39  O3  RX4 d          26.477  -0.783  46.496  0.00  0.00    -0.666 OA
BRANCH  37  40
ATOM     40  CAT RX4 d          27.406  -1.229  43.938  0.00  0.00     0.020 C 
ATOM     41  H17 RX4 d          28.495  -1.178  44.079  0.00  0.00     0.050 H 
ATOM     42  H18 RX4 d          27.148  -0.850  42.938  0.00  0.00     0.050 H 
BRANCH  40  43
ATOM     43  CBD RX4 d          27.001  -2.706  43.993  0.00  0.00     0.029 C 
ATOM     44  H19 RX4 d          26.127  -2.839  44.648  0.00  0.00     0.054 H 
BRANCH  43  45
ATOM     45  CAB RX4 d          26.731  -3.346  42.541  0.00  0.00    -0.064 C 
ATOM     46  H20 RX4 d          26.838  -4.440  42.597  0.00  0.00     0.028 H 
ATOM     47  H21 RX4 d          27.459  -2.943  41.822  0.00  0.00     0.028 H 
ATOM     48  H22 RX4 d          25.712  -3.094  42.212  0.00  0.00     0.028 H 
ENDBRANCH  43  45
BRANCH  43  49
ATOM     49  CBA RX4 d          28.266  -3.489  44.517  0.00  0.00     0.222 C 
ATOM     50  OAH RX4 d          28.535  -3.504  45.729  0.00  0.00    -0.273 OA
ATOM     51  N   RX4 d          29.061  -4.036  43.607  0.00  0.00    -0.348 N 
ATOM     52  H23 RX4 d          28.834  -3.987  42.634  0.00  0.00     0.163 HD
BRANCH  51  53
ATOM     53  CA  RX4 d          30.316  -4.733  44.074  0.00  0.00     0.086 C 
ATOM     54  H24 RX4 d          30.850  -4.128  44.822  0.00  0.00     0.086 H 
BRANCH  53  55
ATOM     55  CB  RX4 d          29.959  -6.106  44.661  0.00  0.00    -0.049 C 
ATOM     56  H25 RX4 d          29.076  -6.009  45.310  0.00  0.00     0.030 H 
ATOM     57  H26 RX4 d          30.807  -6.485  45.250  0.00  0.00     0.030 H 
ATOM     58  H27 RX4 d          29.736  -6.807  43.843  0.00  0.00     0.030 H 
ENDBRANCH  53  55
BRANCH  53  59
ATOM     59  C   RX4 d          31.183  -4.924  42.783  0.00  0.00     0.237 C 
ATOM     60  O   RX4 d          32.419  -4.603  42.806  0.00  0.00    -0.271 OA
ATOM     61  NAD RX4 d          30.603  -5.452  41.719  0.00  0.00    -0.368 N 
ATOM     62  H28 RX4 d          31.128  -5.588  40.879  0.00  0.00     0.159 HD
ATOM     63  H29 RX4 d          29.639  -5.715  41.754  0.00  0.00     0.159 HD
ENDBRANCH  53  59
ENDBRANCH  51  53
ENDBRANCH  43  49
ENDBRANCH  40  43
ENDBRANCH  37  40
ENDBRANCH   1  37
TORSDOF 16
ENDMDL
MODEL 7
REMARK VINA RESULT:      -6.1      1.487      2.648
REMARK  16 active torsions:
REMARK  status: ('A' for Active; 'I' for Inactive)
REMARK    1  A    between atoms: CBC_6  and  CAS_7 
REMARK    2  A    between atoms: CAS_7  and  CBG_8 
REMARK    3  A    between atoms: CBG_8  and  NAW_9 
REMARK    4  A    between atoms: CBG_8  and  P1_21 
REMARK       I    between atoms: NAW_9  and  CBB_10 
REMARK    5  A    between atoms: CBB_10  and  CBF_12 
REMARK    6  A    between atoms: CBF_12  and  CAR_13 
REMARK    7  A    between atoms: CBF_12  and  NAU_17 
REMARK    8  A    between atoms: CAR_13  and  CAZ_14 
REMARK       I    between atoms: NAU_17  and  CAX_18 
REMARK    9  A    between atoms: CAX_18  and  CAA_19 
REMARK   10  A    between atoms: P1_21  and  CAT_24 
REMARK   11  A    between atoms: CAT_24  and  CBD_25 
REMARK   12  A    between atoms: CBD_25  and  CAB_26 
REMARK   13  A    between atoms: CBD_25  and  CBA_27 
REMARK       I    between atoms: CBA_27  and  N_29 
REMARK   14  A    between atoms: N_29  and  CA_30 
REMARK   15  A    between atoms: CA_30  and  CB_31 
REMARK   16  A    between atoms: CA_30  and  C_32 
REMARK       I    between atoms: C_32  and  NAD_34 
ROOT
ATOM      1  CBG RX4 d          26.982   0.036  44.604  0.00  0.00     0.091 C 
ATOM      2  H8  RX4 d          25.900   0.173  44.457  0.00  0.00     0.089 H 
ENDROOT
BRANCH   1   3
ATOM      3  CAS RX4 d          27.246  -0.203  46.140  0.00  0.00    -0.013 C 
ATOM      4  H6  RX4 d          26.943  -1.220  46.427  0.00  0.00     0.044 H 
ATOM      5  H7  RX4 d          28.310  -0.056  46.373  0.00  0.00     0.044 H 
BRANCH   3   6
ATOM      6  CBC RX4 d          26.380   0.847  46.882  0.00  0.00    -0.056 A 
ATOM      7  CAP RX4 d          25.011   0.895  46.514  0.00  0.00    -0.077 A 
ATOM      8  CAN RX4 d          24.111   1.808  47.046  0.00  0.00    -0.082 A 
ATOM      9  H1  RX4 d          24.650   0.184  45.780  0.00  0.00     0.084 H 
ATOM     10  CAM RX4 d          24.680   2.717  47.966  0.00  0.00    -0.083 A 
ATOM     11  H2  RX4 d          23.060   1.821  46.779  0.00  0.00     0.083 H 
ATOM     12  CAO RX4 d          26.047   2.716  48.329  0.00  0.00    -0.082 A 
ATOM     13  H3  RX4 d          24.031   3.458  48.420  0.00  0.00     0.083 H 
ATOM     14  CAQ RX4 d          26.923   1.767  47.776  0.00  0.00    -0.077 A 
ATOM     15  H4  RX4 d          26.419   3.450  49.036  0.00  0.00     0.083 H 
ATOM     16  H5  RX4 d          27.976   1.752  48.035  0.00  0.00     0.084 H 
ENDBRANCH   3   6
ENDBRANCH   1   3
BRANCH   1  17
ATOM     17  NAW RX4 d          27.450  -1.098  43.812  0.00  0.00    -0.345 N 
ATOM     18  CBB RX4 d          27.088  -2.321  44.209  0.00  0.00     0.241 C 
ATOM     19  OAI RX4 d          26.329  -2.510  45.176  0.00  0.00    -0.271 OA
ATOM     20  H9  RX4 d          28.020  -0.963  43.003  0.00  0.00     0.163 HD
BRANCH  18  21
ATOM     21  CBF RX4 d          27.783  -3.549  43.597  0.00  0.00     0.098 C 
ATOM     22  H10 RX4 d          28.771  -3.263  43.206  0.00  0.00     0.088 H 
BRANCH  21  23
ATOM     23  CAR RX4 d          26.990  -4.136  42.473  0.00  0.00     0.043 C 
ATOM     24  H11 RX4 d          27.017  -3.469  41.598  0.00  0.00     0.052 H 
ATOM     25  H12 RX4 d          25.946  -4.293  42.783  0.00  0.00     0.052 H 
BRANCH  23  26
ATOM     26  CAZ RX4 d          27.659  -5.489  42.136  0.00  0.00     0.175 C 
ATOM     27  OAK RX4 d          28.808  -5.503  41.609  0.00  0.00    -0.648 OA
ATOM     28  OAG RX4 d          27.035  -6.492  42.471  0.00  0.00    -0.648 OA
ENDBRANCH  23  26
ENDBRANCH  21  23
BRANCH  21  29
ATOM     29  NAU RX4 d          27.953  -4.495  44.756  0.00  0.00    -0.348 N 
ATOM     30  CAX RX4 d          29.153  -4.968  45.141  0.00  0.00     0.214 C 
ATOM     31  OAE RX4 d          30.229  -4.710  44.550  0.00  0.00    -0.274 OA
ATOM     32  H13 RX4 d          27.141  -4.783  45.261  0.00  0.00     0.163 HD
BRANCH  30  33
ATOM     33  CAA RX4 d          29.141  -5.893  46.393  0.00  0.00    -0.003 C 
ATOM     34  H14 RX4 d          30.160  -5.975  46.798  0.00  0.00     0.040 H 
ATOM     35  H15 RX4 d          28.778  -6.891  46.108  0.00  0.00     0.040 H 
ATOM     36  H16 RX4 d          28.475  -5.466  47.158  0.00  0.00     0.040 H 
ENDBRANCH  30  33
ENDBRANCH  21  29
ENDBRANCH  18  21
ENDBRANCH   1  17
BRANCH   1  37
ATOM     37  P1  RX4 d          27.863   1.472  43.951  0.00  0.00     0.130 P 
ATOM     38  O4  RX4 d          28.575   1.122  42.656  0.00  0.00    -0.666 OA
ATOM     39  O3  RX4 d          29.023   1.917  44.813  0.00  0.00    -0.666 OA
BRANCH  37  40
ATOM     40  CAT RX4 d          26.651   2.758  43.686  0.00  0.00     0.020 C 
ATOM     41  H17 RX4 d          26.336   3.128  44.672  0.00  0.00     0.050 H 
ATOM     42  H18 RX4 d          25.791   2.304  43.173  0.00  0.00     0.050 H 
BRANCH  40  43
ATOM     43  CBD RX4 d          27.096   3.970  42.859  0.00  0.00     0.029 C 
ATOM     44  H19 RX4 d          28.066   3.770  42.380  0.00  0.00     0.054 H 
BRANCH  43  45
ATOM     45  CAB RX4 d          26.005   4.433  41.770  0.00  0.00    -0.064 C 
ATOM     46  H20 RX4 d          25.273   5.102  42.247  0.00  0.00     0.028 H 
ATOM     47  H21 RX4 d          25.488   3.548  41.371  0.00  0.00     0.028 H 
ATOM     48  H22 RX4 d          26.508   4.965  40.949  0.00  0.00     0.028 H 
ENDBRANCH  43  45
BRANCH  43  49
ATOM     49  CBA RX4 d          27.163   5.185  43.862  0.00  0.00     0.222 C 
ATOM     50  OAH RX4 d          27.731   6.238  43.533  0.00  0.00    -0.273 OA
ATOM     51  N   RX4 d          26.674   4.993  45.080  0.00  0.00    -0.348 N 
ATOM     52  H23 RX4 d          26.243   4.125  45.328  0.00  0.00     0.163 HD
BRANCH  51  53
ATOM     53  CA  RX4 d          26.786   6.115  46.085  0.00  0.00     0.086 C 
ATOM     54  H24 RX4 d          27.017   7.069  45.588  0.00  0.00     0.086 H 
BRANCH  53  55
ATOM     55  CB  RX4 d          25.475   6.234  46.876  0.00  0.00    -0.049 C 
ATOM     56  H25 RX4 d          24.622   6.096  46.195  0.00  0.00     0.030 H 
ATOM     57  H26 RX4 d          25.417   7.229  47.341  0.00  0.00     0.030 H 
ATOM     58  H27 RX4 d          25.448   5.461  47.658  0.00  0.00     0.030 H 
ENDBRANCH  53  55
BRANCH  53  59
ATOM     59  C   RX4 d          27.944   5.688  47.050  0.00  0.00     0.237 C 
ATOM     60  O   RX4 d          28.643   4.656  46.769  0.00  0.00    -0.271 OA
ATOM     61  NAD RX4 d          28.178   6.442  48.109  0.00  0.00    -0.368 N 
ATOM     62  H28 RX4 d          28.911   6.197  48.745  0.00  0.00     0.159 HD
ATOM     63  H29 RX4 d          27.623   7.257  48.275  0.00  0.00     0.159 HD
ENDBRANCH  53  59
ENDBRANCH  51  53
ENDBRANCH  43  49
ENDBRANCH  40  43
ENDBRANCH  37  40
ENDBRANCH   1  37
TORSDOF 16
ENDMDL
MODEL 8
REMARK VINA RESULT:      -5.7      2.119      4.137
REMARK  16 active torsions:
REMARK  status: ('A' for Active; 'I' for Inactive)
REMARK    1  A    between atoms: CBC_6  and  CAS_7 
REMARK    2  A    between atoms: CAS_7  and  CBG_8 
REMARK    3  A    between atoms: CBG_8  and  NAW_9 
REMARK    4  A    between atoms: CBG_8  and  P1_21 
REMARK       I    between atoms: NAW_9  and  CBB_10 
REMARK    5  A    between atoms: CBB_10  and  CBF_12 
REMARK    6  A    between atoms: CBF_12  and  CAR_13 
REMARK    7  A    between atoms: CBF_12  and  NAU_17 
REMARK    8  A    between atoms: CAR_13  and  CAZ_14 
REMARK       I    between atoms: NAU_17  and  CAX_18 
REMARK    9  A    between atoms: CAX_18  and  CAA_19 
REMARK   10  A    between atoms: P1_21  and  CAT_24 
REMARK   11  A    between atoms: CAT_24  and  CBD_25 
REMARK   12  A    between atoms: CBD_25  and  CAB_26 
REMARK   13  A    between atoms: CBD_25  and  CBA_27 
REMARK       I    between atoms: CBA_27  and  N_29 
REMARK   14  A    between atoms: N_29  and  CA_30 
REMARK   15  A    between atoms: CA_30  and  CB_31 
REMARK   16  A    between atoms: CA_30  and  C_32 
REMARK       I    between atoms: C_32  and  NAD_34 
ROOT
ATOM      1  CBG RX4 d          27.228  -0.632  43.942  0.00  0.00     0.091 C 
ATOM      2  H8  RX4 d          28.297  -0.381  44.003  0.00  0.00     0.089 H 
ENDROOT
BRANCH   1   3
ATOM      3  CAS RX4 d          26.552   0.332  42.895  0.00  0.00    -0.013 C 
ATOM      4  H6  RX4 d          26.661  -0.070  41.877  0.00  0.00     0.044 H 
ATOM      5  H7  RX4 d          25.484   0.461  43.125  0.00  0.00     0.044 H 
BRANCH   3   6
ATOM      6  CBC RX4 d          27.299   1.683  43.025  0.00  0.00    -0.056 A 
ATOM      7  CAP RX4 d          26.570   2.835  42.635  0.00  0.00    -0.077 A 
ATOM      8  CAN RX4 d          27.107   4.115  42.645  0.00  0.00    -0.082 A 
ATOM      9  H1  RX4 d          25.542   2.711  42.315  0.00  0.00     0.084 H 
ATOM     10  CAM RX4 d          28.462   4.176  43.043  0.00  0.00    -0.083 A 
ATOM     11  H2  RX4 d          26.535   4.995  42.370  0.00  0.00     0.083 H 
ATOM     12  CAO RX4 d          29.225   3.041  43.405  0.00  0.00    -0.082 A 
ATOM     13  H3  RX4 d          28.944   5.146  43.072  0.00  0.00     0.083 H 
ATOM     14  CAQ RX4 d          28.640   1.764  43.394  0.00  0.00    -0.077 A 
ATOM     15  H4  RX4 d          30.265   3.158  43.692  0.00  0.00     0.083 H 
ATOM     16  H5  RX4 d          29.207   0.880  43.662  0.00  0.00     0.084 H 
ENDBRANCH   3   6
ENDBRANCH   1   3
BRANCH   1  17
ATOM     17  NAW RX4 d          27.069  -2.028  43.545  0.00  0.00    -0.345 N 
ATOM     18  CBB RX4 d          28.097  -2.854  43.759  0.00  0.00     0.241 C 
ATOM     19  OAI RX4 d          29.139  -2.485  44.332  0.00  0.00    -0.271 OA
ATOM     20  H9  RX4 d          26.221  -2.354  43.128  0.00  0.00     0.163 HD
BRANCH  18  21
ATOM     21  CBF RX4 d          28.098  -4.244  43.103  0.00  0.00     0.098 C 
ATOM     22  H10 RX4 d          28.456  -4.167  42.066  0.00  0.00     0.088 H 
BRANCH  21  23
ATOM     23  CAR RX4 d          26.731  -4.851  43.080  0.00  0.00     0.043 C 
ATOM     24  H11 RX4 d          26.250  -4.670  42.108  0.00  0.00     0.052 H 
ATOM     25  H12 RX4 d          26.111  -4.424  43.882  0.00  0.00     0.052 H 
BRANCH  23  26
ATOM     26  CAZ RX4 d          26.931  -6.368  43.307  0.00  0.00     0.175 C 
ATOM     27  OAK RX4 d          26.703  -6.864  44.447  0.00  0.00    -0.648 OA
ATOM     28  OAG RX4 d          27.248  -7.020  42.315  0.00  0.00    -0.648 OA
ENDBRANCH  23  26
ENDBRANCH  21  23
BRANCH  21  29
ATOM     29  NAU RX4 d          29.083  -5.039  43.919  0.00  0.00    -0.348 N 
ATOM     30  CAX RX4 d          30.319  -5.338  43.481  0.00  0.00     0.214 C 
ATOM     31  OAE RX4 d          30.752  -5.030  42.344  0.00  0.00    -0.274 OA
ATOM     32  H13 RX4 d          28.806  -5.357  44.825  0.00  0.00     0.163 HD
BRANCH  30  33
ATOM     33  CAA RX4 d          31.217  -6.121  44.483  0.00  0.00    -0.003 C 
ATOM     34  H14 RX4 d          31.999  -6.662  43.930  0.00  0.00     0.040 H 
ATOM     35  H15 RX4 d          30.601  -6.840  45.042  0.00  0.00     0.040 H 
ATOM     36  H16 RX4 d          31.685  -5.415  45.185  0.00  0.00     0.040 H 
ENDBRANCH  30  33
ENDBRANCH  21  29
ENDBRANCH  18  21
ENDBRANCH   1  17
BRANCH   1  37
ATOM     37  P1  RX4 d          26.491  -0.516  45.587  0.00  0.00     0.130 P 
ATOM     38  O4  RX4 d          27.528  -0.795  46.662  0.00  0.00    -0.666 OA
ATOM     39  O3  RX4 d          25.472  -1.596  45.875  0.00  0.00    -0.666 OA
BRANCH  37  40
ATOM     40  CAT RX4 d          25.829   1.135  45.754  0.00  0.00     0.020 C 
ATOM     41  H17 RX4 d          24.737   1.048  45.848  0.00  0.00     0.050 H 
ATOM     42  H18 RX4 d          26.074   1.686  44.834  0.00  0.00     0.050 H 
BRANCH  40  43
ATOM     43  CBD RX4 d          26.330   1.967  46.939  0.00  0.00     0.029 C 
ATOM     44  H19 RX4 d          26.778   1.314  47.703  0.00  0.00     0.054 H 
BRANCH  43  45
ATOM     45  CAB RX4 d          27.354   3.133  46.511  0.00  0.00    -0.064 C 
ATOM     46  H20 RX4 d          27.795   2.892  45.532  0.00  0.00     0.028 H 
ATOM     47  H21 RX4 d          28.153   3.213  47.263  0.00  0.00     0.028 H 
ATOM     48  H22 RX4 d          26.815   4.090  46.445  0.00  0.00     0.028 H 
ENDBRANCH  43  45
BRANCH  43  49
ATOM     49  CBA RX4 d          25.077   2.753  47.485  0.00  0.00     0.222 C 
ATOM     50  OAH RX4 d          24.058   2.139  47.838  0.00  0.00    -0.273 OA
ATOM     51  N   RX4 d          25.133   4.078  47.459  0.00  0.00    -0.348 N 
ATOM     52  H23 RX4 d          25.958   4.549  47.146  0.00  0.00     0.163 HD
BRANCH  51  53
ATOM     53  CA  RX4 d          23.922   4.859  47.911  0.00  0.00     0.086 C 
ATOM     54  H24 RX4 d          23.025   4.221  47.930  0.00  0.00     0.086 H 
BRANCH  53  55
ATOM     55  CB  RX4 d          24.179   5.452  49.303  0.00  0.00    -0.049 C 
ATOM     56  H25 RX4 d          23.903   6.518  49.305  0.00  0.00     0.030 H 
ATOM     57  H26 RX4 d          25.245   5.349  49.555  0.00  0.00     0.030 H 
ATOM     58  H27 RX4 d          23.572   4.916  50.048  0.00  0.00     0.030 H 
ENDBRANCH  53  55
BRANCH  53  59
ATOM     59  C   RX4 d          23.768   6.017  46.867  0.00  0.00     0.237 C 
ATOM     60  O   RX4 d          24.276   7.160  47.123  0.00  0.00    -0.271 OA
ATOM     61  NAD RX4 d          23.143   5.751  45.733  0.00  0.00    -0.368 N 
ATOM     62  H28 RX4 d          23.028   6.468  45.046  0.00  0.00     0.159 HD
ATOM     63  H29 RX4 d          22.785   4.833  45.563  0.00  0.00     0.159 HD
ENDBRANCH  53  59
ENDBRANCH  51  53
ENDBRANCH  43  49
ENDBRANCH  40  43
ENDBRANCH  37  40
ENDBRANCH   1  37
TORSDOF 16
ENDMDL
MODEL 9
REMARK VINA RESULT:      -5.3      2.503      4.145
REMARK  16 active torsions:
REMARK  status: ('A' for Active; 'I' for Inactive)
REMARK    1  A    between atoms: CBC_6  and  CAS_7 
REMARK    2  A    between atoms: CAS_7  and  CBG_8 
REMARK    3  A    between atoms: CBG_8  and  NAW_9 
REMARK    4  A    between atoms: CBG_8  and  P1_21 
REMARK       I    between atoms: NAW_9  and  CBB_10 
REMARK    5  A    between atoms: CBB_10  and  CBF_12 
REMARK    6  A    between atoms: CBF_12  and  CAR_13 
REMARK    7  A    between atoms: CBF_12  and  NAU_17 
REMARK    8  A    between atoms: CAR_13  and  CAZ_14 
REMARK       I    between atoms: NAU_17  and  CAX_18 
REMARK    9  A    between atoms: CAX_18  and  CAA_19 
REMARK   10  A    between atoms: P1_21  and  CAT_24 
REMARK   11  A    between atoms: CAT_24  and  CBD_25 
REMARK   12  A    between atoms: CBD_25  and  CAB_26 
REMARK   13  A    between atoms: CBD_25  and  CBA_27 
REMARK       I    between atoms: CBA_27  and  N_29 
REMARK   14  A    between atoms: N_29  and  CA_30 
REMARK   15  A    between atoms: CA_30  and  CB_31 
REMARK   16  A    between atoms: CA_30  and  C_32 
REMARK       I    between atoms: C_32  and  NAD_34 
ROOT
ATOM      1  CBG RX4 d          27.761   0.064  44.478  0.00  0.00     0.091 C 
ATOM      2  H8  RX4 d          28.450  -0.019  45.332  0.00  0.00     0.089 H 
ENDROOT
BRANCH   1   3
ATOM      3  CAS RX4 d          28.315   1.170  43.501  0.00  0.00    -0.013 C 
ATOM      4  H6  RX4 d          29.331   0.913  43.168  0.00  0.00     0.044 H 
ATOM      5  H7  RX4 d          27.657   1.273  42.626  0.00  0.00     0.044 H 
BRANCH   3   6
ATOM      6  CBC RX4 d          28.332   2.485  44.322  0.00  0.00    -0.056 A 
ATOM      7  CAP RX4 d          28.196   3.683  43.577  0.00  0.00    -0.077 A 
ATOM      8  CAN RX4 d          28.239   4.946  44.152  0.00  0.00    -0.082 A 
ATOM      9  H1  RX4 d          28.052   3.610  42.505  0.00  0.00     0.084 H 
ATOM     10  CAM RX4 d          28.467   4.944  45.547  0.00  0.00    -0.083 A 
ATOM     11  H2  RX4 d          28.108   5.857  43.579  0.00  0.00     0.083 H 
ATOM     12  CAO RX4 d          28.639   3.767  46.312  0.00  0.00    -0.082 A 
ATOM     13  H3  RX4 d          28.512   5.898  46.059  0.00  0.00     0.083 H 
ATOM     14  CAQ RX4 d          28.576   2.508  45.694  0.00  0.00    -0.077 A 
ATOM     15  H4  RX4 d          28.820   3.838  47.379  0.00  0.00     0.083 H 
ATOM     16  H5  RX4 d          28.711   1.592  46.259  0.00  0.00     0.084 H 
ENDBRANCH   3   6
ENDBRANCH   1   3
BRANCH   1  17
ATOM     17  NAW RX4 d          27.655  -1.224  43.801  0.00  0.00    -0.345 N 
ATOM     18  CBB RX4 d          27.754  -2.327  44.548  0.00  0.00     0.241 C 
ATOM     19  OAI RX4 d          27.870  -2.284  45.786  0.00  0.00    -0.271 OA
ATOM     20  H9  RX4 d          27.512  -1.279  42.813  0.00  0.00     0.163 HD
BRANCH  18  21
ATOM     21  CBF RX4 d          27.942  -3.690  43.862  0.00  0.00     0.098 C 
ATOM     22  H10 RX4 d          28.255  -3.542  42.817  0.00  0.00     0.088 H 
BRANCH  21  23
ATOM     23  CAR RX4 d          26.681  -4.493  43.860  0.00  0.00     0.043 C 
ATOM     24  H11 RX4 d          26.031  -4.180  43.029  0.00  0.00     0.052 H 
ATOM     25  H12 RX4 d          26.146  -4.365  44.813  0.00  0.00     0.052 H 
BRANCH  23  26
ATOM     26  CAZ RX4 d          27.111  -5.968  43.679  0.00  0.00     0.175 C 
ATOM     27  OAK RX4 d          27.544  -6.358  42.558  0.00  0.00    -0.648 OA
ATOM     28  OAG RX4 d          27.057  -6.668  44.687  0.00  0.00    -0.648 OA
ENDBRANCH  23  26
ENDBRANCH  21  23
BRANCH  21  29
ATOM     29  NAU RX4 d          29.057  -4.344  44.634  0.00  0.00    -0.348 N 
ATOM     30  CAX RX4 d          30.259  -4.616  44.093  0.00  0.00     0.214 C 
ATOM     31  OAE RX4 d          30.550  -4.397  42.892  0.00  0.00    -0.274 OA
ATOM     32  H13 RX4 d          28.897  -4.587  45.590  0.00  0.00     0.163 HD
BRANCH  30  33
ATOM     33  CAA RX4 d          31.305  -5.245  45.059  0.00  0.00    -0.003 C 
ATOM     34  H14 RX4 d          31.584  -4.509  45.827  0.00  0.00     0.040 H 
ATOM     35  H15 RX4 d          32.199  -5.538  44.490  0.00  0.00     0.040 H 
ATOM     36  H16 RX4 d          30.870  -6.133  45.542  0.00  0.00     0.040 H 
ENDBRANCH  30  33
ENDBRANCH  21  29
ENDBRANCH  18  21
ENDBRANCH   1  17
BRANCH   1  37
ATOM     37  P1  RX4 d          26.098   0.426  45.083  0.00  0.00     0.130 P 
ATOM     38  O4  RX4 d          26.075   0.465  46.602  0.00  0.00    -0.666 OA
ATOM     39  O3  RX4 d          25.097  -0.673  44.804  0.00  0.00    -0.666 OA
BRANCH  37  40
ATOM     40  CAT RX4 d          25.618   2.004  44.397  0.00  0.00     0.020 C 
ATOM     41  H17 RX4 d          25.202   1.819  43.396  0.00  0.00     0.050 H 
ATOM     42  H18 RX4 d          26.526   2.618  44.308  0.00  0.00     0.050 H 
BRANCH  40  43
ATOM     43  CBD RX4 d          24.584   2.817  45.184  0.00  0.00     0.029 C 
ATOM     44  H19 RX4 d          23.689   2.209  45.381  0.00  0.00     0.054 H 
BRANCH  43  45
ATOM     45  CAB RX4 d          25.168   3.435  46.552  0.00  0.00    -0.064 C 
ATOM     46  H20 RX4 d          25.009   2.721  47.373  0.00  0.00     0.028 H 
ATOM     47  H21 RX4 d          24.648   4.377  46.779  0.00  0.00     0.028 H 
ATOM     48  H22 RX4 d          26.245   3.628  46.437  0.00  0.00     0.028 H 
ENDBRANCH  43  45
BRANCH  43  49
ATOM     49  CBA RX4 d          24.265   4.088  44.307  0.00  0.00     0.222 C 
ATOM     50  OAH RX4 d          23.165   4.655  44.404  0.00  0.00    -0.273 OA
ATOM     51  N   RX4 d          25.175   4.452  43.413  0.00  0.00    -0.348 N 
ATOM     52  H23 RX4 d          26.044   3.962  43.339  0.00  0.00     0.163 HD
BRANCH  51  53
ATOM     53  CA  RX4 d          24.868   5.624  42.511  0.00  0.00     0.086 C 
ATOM     54  H24 RX4 d          23.789   5.695  42.309  0.00  0.00     0.086 H 
BRANCH  53  55
ATOM     55  CB  RX4 d          25.373   6.921  43.158  0.00  0.00    -0.049 C 
ATOM     56  H25 RX4 d          26.300   7.243  42.661  0.00  0.00     0.030 H 
ATOM     57  H26 RX4 d          25.571   6.746  44.226  0.00  0.00     0.030 H 
ATOM     58  H27 RX4 d          24.609   7.706  43.050  0.00  0.00     0.030 H 
ENDBRANCH  53  55
BRANCH  53  59
ATOM     59  C   RX4 d          25.671   5.347  41.194  0.00  0.00     0.237 C 
ATOM     60  O   RX4 d          26.374   6.283  40.682  0.00  0.00    -0.271 OA
ATOM     61  NAD RX4 d          25.618   4.131  40.679  0.00  0.00    -0.368 N 
ATOM     62  H28 RX4 d          26.119   3.922  39.839  0.00  0.00     0.159 HD
ATOM     63  H29 RX4 d          25.076   3.421  41.129  0.00  0.00     0.159 HD
ENDBRANCH  53  59
ENDBRANCH  51  53
ENDBRANCH  43  49
ENDBRANCH  40  43
ENDBRANCH  37  40
ENDBRANCH   1  37
TORSDOF 16
ENDMDL
MODEL 10
REMARK VINA RESULT:      -5.3      2.458      8.099
REMARK  16 active torsions:
REMARK  status: ('A' for Active; 'I' for Inactive)
REMARK    1  A    between atoms: CBC_6  and  CAS_7 
REMARK    2  A    between atoms: CAS_7  and  CBG_8 
REMARK    3  A    between atoms: CBG_8  and  NAW_9 
REMARK    4  A    between atoms: CBG_8  and  P1_21 
REMARK       I    between atoms: NAW_9  and  CBB_10 
REMARK    5  A    between atoms: CBB_10  and  CBF_12 
REMARK    6  A    between atoms: CBF_12  and  CAR_13 
REMARK    7  A    between atoms: CBF_12  and  NAU_17 
REMARK    8  A    between atoms: CAR_13  and  CAZ_14 
REMARK       I    between atoms: NAU_17  and  CAX_18 
REMARK    9  A    between atoms: CAX_18  and  CAA_19 
REMARK   10  A    between atoms: P1_21  and  CAT_24 
REMARK   11  A    between atoms: CAT_24  and  CBD_25 
REMARK   12  A    between atoms: CBD_25  and  CAB_26 
REMARK   13  A    between atoms: CBD_25  and  CBA_27 
REMARK       I    between atoms: CBA_27  and  N_29 
REMARK   14  A    between atoms: N_29  and  CA_30 
REMARK   15  A    between atoms: CA_30  and  CB_31 
REMARK   16  A    between atoms: CA_30  and  C_32 
REMARK       I    between atoms: C_32  and  NAD_34 
ROOT
ATOM      1  CBG RX4 d          25.230   4.388  47.678  0.00  0.00     0.091 C 
ATOM      2  H8  RX4 d          25.445   4.879  48.638  0.00  0.00     0.089 H 
ENDROOT
BRANCH   1   3
ATOM      3  CAS RX4 d          23.863   4.950  47.131  0.00  0.00    -0.013 C 
ATOM      4  H6  RX4 d          23.115   4.146  47.066  0.00  0.00     0.044 H 
ATOM      5  H7  RX4 d          23.486   5.749  47.786  0.00  0.00     0.044 H 
BRANCH   3   6
ATOM      6  CBC RX4 d          24.174   5.511  45.720  0.00  0.00    -0.056 A 
ATOM      7  CAP RX4 d          24.091   4.584  44.651  0.00  0.00    -0.077 A 
ATOM      8  CAN RX4 d          24.385   4.911  43.334  0.00  0.00    -0.082 A 
ATOM      9  H1  RX4 d          23.782   3.569  44.873  0.00  0.00     0.084 H 
ATOM     10  CAM RX4 d          24.812   6.245  43.147  0.00  0.00    -0.083 A 
ATOM     11  H2  RX4 d          24.293   4.202  42.518  0.00  0.00     0.083 H 
ATOM     12  CAO RX4 d          24.937   7.184  44.197  0.00  0.00    -0.082 A 
ATOM     13  H3  RX4 d          25.058   6.566  42.142  0.00  0.00     0.083 H 
ATOM     14  CAQ RX4 d          24.618   6.816  45.514  0.00  0.00    -0.077 A 
ATOM     15  H4  RX4 d          25.280   8.191  43.984  0.00  0.00     0.083 H 
ATOM     16  H5  RX4 d          24.712   7.518  46.336  0.00  0.00     0.084 H 
ENDBRANCH   3   6
ENDBRANCH   1   3
BRANCH   1  17
ATOM     17  NAW RX4 d          26.314   4.647  46.735  0.00  0.00    -0.345 N 
ATOM     18  CBB RX4 d          27.485   5.053  47.235  0.00  0.00     0.241 C 
ATOM     19  OAI RX4 d          27.688   5.154  48.458  0.00  0.00    -0.271 OA
ATOM     20  H9  RX4 d          26.185   4.524  45.752  0.00  0.00     0.163 HD
BRANCH  18  21
ATOM     21  CBF RX4 d          28.556   5.616  46.286  0.00  0.00     0.098 C 
ATOM     22  H10 RX4 d          29.499   5.064  46.419  0.00  0.00     0.088 H 
BRANCH  21  23
ATOM     23  CAR RX4 d          28.824   7.064  46.542  0.00  0.00     0.043 C 
ATOM     24  H11 RX4 d          28.059   7.480  47.214  0.00  0.00     0.052 H 
ATOM     25  H12 RX4 d          28.826   7.625  45.595  0.00  0.00     0.052 H 
BRANCH  23  26
ATOM     26  CAZ RX4 d          30.219   7.132  47.208  0.00  0.00     0.175 C 
ATOM     27  OAK RX4 d          31.255   7.150  46.485  0.00  0.00    -0.648 OA
ATOM     28  OAG RX4 d          30.222   7.229  48.432  0.00  0.00    -0.648 OA
ENDBRANCH  23  26
ENDBRANCH  21  23
BRANCH  21  29
ATOM     29  NAU RX4 d          28.007   5.351  44.909  0.00  0.00    -0.348 N 
ATOM     30  CAX RX4 d          28.099   4.152  44.304  0.00  0.00     0.214 C 
ATOM     31  OAE RX4 d          28.686   3.162  44.802  0.00  0.00    -0.274 OA
ATOM     32  H13 RX4 d          27.556   6.099  44.423  0.00  0.00     0.163 HD
BRANCH  30  33
ATOM     33  CAA RX4 d          27.427   4.052  42.904  0.00  0.00    -0.003 C 
ATOM     34  H14 RX4 d          26.886   4.985  42.688  0.00  0.00     0.040 H 
ATOM     35  H15 RX4 d          26.721   3.209  42.895  0.00  0.00     0.040 H 
ATOM     36  H16 RX4 d          28.200   3.891  42.137  0.00  0.00     0.040 H 
ENDBRANCH  30  33
ENDBRANCH  21  29
ENDBRANCH  18  21
ENDBRANCH   1  17
BRANCH   1  37
ATOM     37  P1  RX4 d          25.215   2.597  47.909  0.00  0.00     0.130 P 
ATOM     38  O4  RX4 d          23.797   2.057  47.827  0.00  0.00    -0.666 OA
ATOM     39  O3  RX4 d          25.615   2.160  49.301  0.00  0.00    -0.666 OA
BRANCH  37  40
ATOM     40  CAT RX4 d          26.241   1.890  46.629  0.00  0.00     0.020 C 
ATOM     41  H17 RX4 d          27.067   1.356  47.122  0.00  0.00     0.050 H 
ATOM     42  H18 RX4 d          26.646   2.720  46.032  0.00  0.00     0.050 H 
BRANCH  40  43
ATOM     43  CBD RX4 d          25.568   0.909  45.663  0.00  0.00     0.029 C 
ATOM     44  H19 RX4 d          24.512   0.765  45.938  0.00  0.00     0.054 H 
BRANCH  43  45
ATOM     45  CAB RX4 d          25.702   1.343  44.119  0.00  0.00    -0.064 C 
ATOM     46  H20 RX4 d          25.926   0.457  43.507  0.00  0.00     0.028 H 
ATOM     47  H21 RX4 d          26.515   2.077  44.014  0.00  0.00     0.028 H 
ATOM     48  H22 RX4 d          24.757   1.793  43.780  0.00  0.00     0.028 H 
ENDBRANCH  43  45
BRANCH  43  49
ATOM     49  CBA RX4 d          26.397  -0.430  45.748  0.00  0.00     0.222 C 
ATOM     50  OAH RX4 d          27.192  -0.615  46.683  0.00  0.00    -0.273 OA
ATOM     51  N   RX4 d          26.273  -1.285  44.742  0.00  0.00    -0.348 N 
ATOM     52  H23 RX4 d          25.643  -1.100  43.988  0.00  0.00     0.163 HD
BRANCH  51  53
ATOM     53  CA  RX4 d          27.106  -2.545  44.762  0.00  0.00     0.086 C 
ATOM     54  H24 RX4 d          27.298  -2.875  45.793  0.00  0.00     0.086 H 
BRANCH  53  55
ATOM     55  CB  RX4 d          26.389  -3.652  43.976  0.00  0.00    -0.049 C 
ATOM     56  H25 RX4 d          27.067  -4.056  43.209  0.00  0.00     0.030 H 
ATOM     57  H26 RX4 d          25.494  -3.236  43.490  0.00  0.00     0.030 H 
ATOM     58  H27 RX4 d          26.093  -4.457  44.664  0.00  0.00     0.030 H 
ENDBRANCH  53  55
BRANCH  53  59
ATOM     59  C   RX4 d          28.440  -2.164  44.034  0.00  0.00     0.237 C 
ATOM     60  O   RX4 d          29.301  -3.076  43.791  0.00  0.00    -0.271 OA
ATOM     61  NAD RX4 d          28.608  -0.907  43.663  0.00  0.00    -0.368 N 
ATOM     62  H28 RX4 d          29.448  -0.631  43.196  0.00  0.00     0.159 HD
ATOM     63  H29 RX4 d          27.895  -0.231  43.850  0.00  0.00     0.159 HD
ENDBRANCH  53  59
ENDBRANCH  51  53
ENDBRANCH  43  49
ENDBRANCH  40  43
ENDBRANCH  37  40
ENDBRANCH   1  37
TORSDOF 16
ENDMDL
