MODEL 1
REMARK VINA RESULT:      -5.7      0.000      0.000
REMARK  5 active torsions:
REMARK  status: ('A' for Active; 'I' for Inactive)
REMARK    1  A    between atoms: S1_9  and  N1_1 
REMARK    2  A    between atoms: C5_5  and  O3_15 
REMARK    3  A    between atoms: O3_15  and  C8_6 
REMARK    4  A    between atoms: C8_6  and  C9_16 
REMARK    5  A    between atoms: C1_10  and  S1_9 
ROOT
ATOM      1  C2  EZL d          -3.433   3.742  15.298  0.00  0.00     0.076 A 
ATOM      2  C3  EZL d          -4.642   4.402  15.073  0.00  0.00     0.039 A 
ATOM      3  C4  EZL d          -4.630   5.710  14.522  0.00  0.00    -0.032 A 
ATOM      4  C5  EZL d          -3.288   6.163  14.289  0.00  0.00     0.070 A 
ATOM      5  C1  EZL d          -4.928   2.234  15.961  0.00  0.00     0.214 A 
ATOM      6  N2  EZL d          -3.624   2.490  15.870  0.00  0.00    -0.227 NA
ATOM      7  S2  EZL d          -5.950   3.455  15.464  0.00  0.00    -0.054 SA
ATOM      8  C6  EZL d          -2.050   5.550  14.519  0.00  0.00    -0.049 A 
ATOM      9  C7  EZL d          -2.108   4.231  15.082  0.00  0.00    -0.051 A 
ATOM     10  H3  EZL d          -5.518   6.292  14.305  0.00  0.00     0.090 H 
ATOM     11  H6  EZL d          -1.110   6.039  14.287  0.00  0.00     0.087 H 
ATOM     12  H7  EZL d          -1.222   3.655  15.323  0.00  0.00     0.087 H 
ENDROOT
BRANCH   4  13
ATOM     13  O3  EZL d          -3.224   7.432  13.699  0.00  0.00    -0.351 OA
BRANCH  13  14
ATOM     14  C8  EZL d          -2.020   8.299  13.793  0.00  0.00     0.023 C 
ATOM     15  H4  EZL d          -2.002   8.988  12.937  0.00  0.00     0.074 H 
ATOM     16  H5  EZL d          -1.119   7.669  13.775  0.00  0.00     0.074 H 
BRANCH  14  17
ATOM     17  C9  EZL d          -2.042   9.113  15.096  0.00  0.00    -0.056 C 
ATOM     18  H8  EZL d          -2.675  10.002  14.962  0.00  0.00     0.030 H 
ATOM     19  H9  EZL d          -1.018   9.426  15.350  0.00  0.00     0.030 H 
ATOM     20  H10 EZL d          -2.448   8.493  15.909  0.00  0.00     0.030 H 
ENDBRANCH  14  17
ENDBRANCH  13  14
ENDBRANCH   4  13
BRANCH   5  21
ATOM     21  S1  EZL d          -5.574   0.698  16.616  0.00  0.00     0.281 S 
ATOM     22  O1  EZL d          -5.241   0.744  18.008  0.00  0.00    -0.199 OA
ATOM     23  O2  EZL d          -6.975   0.771  16.311  0.00  0.00    -0.199 OA
BRANCH  21  24
ATOM     24  N1  EZL d          -4.826  -0.463  15.860  0.00  0.00    -0.323 N 
ATOM     25  H1  EZL d          -3.877  -0.678  16.089  0.00  0.00     0.169 HD
ATOM     26  H2  EZL d          -5.301  -0.985  15.151  0.00  0.00     0.169 HD
ENDBRANCH  21  24
ENDBRANCH   5  21
TORSDOF 5
ENDMDL
MODEL 2
REMARK VINA RESULT:      -5.1      3.184      6.626
REMARK  5 active torsions:
REMARK  status: ('A' for Active; 'I' for Inactive)
REMARK    1  A    between atoms: S1_9  and  N1_1 
REMARK    2  A    between atoms: C5_5  and  O3_15 
REMARK    3  A    between atoms: O3_15  and  C8_6 
REMARK    4  A    between atoms: C8_6  and  C9_16 
REMARK    5  A    between atoms: C1_10  and  S1_9 
ROOT
ATOM      1  C2  EZL d          -4.588   5.254  14.784  0.00  0.00     0.076 A 
ATOM      2  C3  EZL d          -3.628   4.243  14.837  0.00  0.00     0.039 A 
ATOM      3  C4  EZL d          -4.023   2.925  15.188  0.00  0.00    -0.032 A 
ATOM      4  C5  EZL d          -5.430   2.860  15.460  0.00  0.00     0.070 A 
ATOM      5  C1  EZL d          -2.731   6.330  14.198  0.00  0.00     0.214 A 
ATOM      6  N2  EZL d          -4.028   6.483  14.458  0.00  0.00    -0.227 NA
ATOM      7  S2  EZL d          -2.122   4.790  14.397  0.00  0.00    -0.054 SA
ATOM      8  C6  EZL d          -6.424   3.846  15.443  0.00  0.00    -0.049 A 
ATOM      9  C7  EZL d          -5.981   5.164  15.088  0.00  0.00    -0.051 A 
ATOM     10  H3  EZL d          -3.349   2.078  15.243  0.00  0.00     0.090 H 
ATOM     11  H6  EZL d          -7.459   3.629  15.682  0.00  0.00     0.087 H 
ATOM     12  H7  EZL d          -6.647   6.019  15.054  0.00  0.00     0.087 H 
ENDROOT
BRANCH   4  13
ATOM     13  O3  EZL d          -5.878   1.567  15.763  0.00  0.00    -0.351 OA
BRANCH  13  14
ATOM     14  C8  EZL d          -6.785   1.283  16.906  0.00  0.00     0.023 C 
ATOM     15  H4  EZL d          -7.734   0.878  16.524  0.00  0.00     0.074 H 
ATOM     16  H5  EZL d          -6.981   2.217  17.454  0.00  0.00     0.074 H 
BRANCH  14  17
ATOM     17  C9  EZL d          -6.148   0.262  17.861  0.00  0.00    -0.056 C 
ATOM     18  H8  EZL d          -5.176   0.641  18.208  0.00  0.00     0.030 H 
ATOM     19  H9  EZL d          -6.002  -0.692  17.332  0.00  0.00     0.030 H 
ATOM     20  H10 EZL d          -6.810   0.105  18.725  0.00  0.00     0.030 H 
ENDBRANCH  14  17
ENDBRANCH  13  14
ENDBRANCH   4  13
BRANCH   5  21
ATOM     21  S1  EZL d          -1.671   7.686  13.705  0.00  0.00     0.281 S 
ATOM     22  O1  EZL d          -1.348   8.343  14.935  0.00  0.00    -0.199 OA
ATOM     23  O2  EZL d          -0.578   7.030  13.046  0.00  0.00    -0.199 OA
BRANCH  21  24
ATOM     24  N1  EZL d          -2.524   8.599  12.747  0.00  0.00    -0.323 N 
ATOM     25  H1  EZL d          -2.108   9.400  12.317  0.00  0.00     0.169 HD
ATOM     26  H2  EZL d          -3.483   8.377  12.569  0.00  0.00     0.169 HD
ENDBRANCH  21  24
ENDBRANCH   5  21
TORSDOF 5
ENDMDL
MODEL 3
REMARK VINA RESULT:      -5.1      1.745      2.180
REMARK  5 active torsions:
REMARK  status: ('A' for Active; 'I' for Inactive)
REMARK    1  A    between atoms: S1_9  and  N1_1 
REMARK    2  A    between atoms: C5_5  and  O3_15 
REMARK    3  A    between atoms: O3_15  and  C8_6 
REMARK    4  A    between atoms: C8_6  and  C9_16 
REMARK    5  A    between atoms: C1_10  and  S1_9 
ROOT
ATOM      1  C2  EZL d          -4.255   4.728  13.583  0.00  0.00     0.076 A 
ATOM      2  C3  EZL d          -3.115   4.966  14.352  0.00  0.00     0.039 A 
ATOM      3  C4  EZL d          -2.418   6.193  14.201  0.00  0.00    -0.032 A 
ATOM      4  C5  EZL d          -3.037   7.025  13.210  0.00  0.00     0.070 A 
ATOM      5  C1  EZL d          -4.112   2.877  14.808  0.00  0.00     0.214 A 
ATOM      6  N2  EZL d          -4.794   3.471  13.830  0.00  0.00    -0.227 NA
ATOM      7  S2  EZL d          -2.801   3.718  15.404  0.00  0.00    -0.054 SA
ATOM      8  C6  EZL d          -4.162   6.821  12.400  0.00  0.00    -0.049 A 
ATOM      9  C7  EZL d          -4.834   5.566  12.580  0.00  0.00    -0.051 A 
ATOM     10  H3  EZL d          -1.532   6.467  14.763  0.00  0.00     0.090 H 
ATOM     11  H6  EZL d          -4.502   7.561  11.685  0.00  0.00     0.087 H 
ATOM     12  H7  EZL d          -5.706   5.277  12.005  0.00  0.00     0.087 H 
ENDROOT
BRANCH   4  13
ATOM     13  O3  EZL d          -2.413   8.270  13.059  0.00  0.00    -0.351 OA
BRANCH  13  14
ATOM     14  C8  EZL d          -1.226   8.672  13.859  0.00  0.00     0.023 C 
ATOM     15  H4  EZL d          -0.523   9.220  13.215  0.00  0.00     0.074 H 
ATOM     16  H5  EZL d          -0.735   7.771  14.255  0.00  0.00     0.074 H 
BRANCH  14  17
ATOM     17  C9  EZL d          -1.645   9.575  15.030  0.00  0.00    -0.056 C 
ATOM     18  H8  EZL d          -2.516  10.178  14.735  0.00  0.00     0.030 H 
ATOM     19  H9  EZL d          -0.810  10.240  15.297  0.00  0.00     0.030 H 
ATOM     20  H10 EZL d          -1.908   8.952  15.897  0.00  0.00     0.030 H 
ENDBRANCH  14  17
ENDBRANCH  13  14
ENDBRANCH   4  13
BRANCH   5  21
ATOM     21  S1  EZL d          -4.529   1.253  15.436  0.00  0.00     0.281 S 
ATOM     22  O1  EZL d          -3.560   1.016  16.464  0.00  0.00    -0.199 OA
ATOM     23  O2  EZL d          -5.884   1.409  15.885  0.00  0.00    -0.199 OA
BRANCH  21  24
ATOM     24  N1  EZL d          -4.379   0.252  14.231  0.00  0.00    -0.323 N 
ATOM     25  H1  EZL d          -4.874  -0.617  14.237  0.00  0.00     0.169 HD
ATOM     26  H2  EZL d          -3.787   0.485  13.458  0.00  0.00     0.169 HD
ENDBRANCH  21  24
ENDBRANCH   5  21
TORSDOF 5
ENDMDL
MODEL 4
REMARK VINA RESULT:      -5.0      1.931      2.161
REMARK  5 active torsions:
REMARK  status: ('A' for Active; 'I' for Inactive)
REMARK    1  A    between atoms: S1_9  and  N1_1 
REMARK    2  A    between atoms: C5_5  and  O3_15 
REMARK    3  A    between atoms: O3_15  and  C8_6 
REMARK    4  A    between atoms: C8_6  and  C9_16 
REMARK    5  A    between atoms: C1_10  and  S1_9 
ROOT
ATOM      1  C2  EZL d          -3.619   3.712  13.198  0.00  0.00     0.076 A 
ATOM      2  C3  EZL d          -4.424   4.547  13.973  0.00  0.00     0.039 A 
ATOM      3  C4  EZL d          -4.526   5.923  13.640  0.00  0.00    -0.032 A 
ATOM      4  C5  EZL d          -3.718   6.242  12.498  0.00  0.00     0.070 A 
ATOM      5  C1  EZL d          -4.448   2.304  14.707  0.00  0.00     0.214 A 
ATOM      6  N2  EZL d          -3.607   2.409  13.680  0.00  0.00    -0.227 NA
ATOM      7  S2  EZL d          -5.206   3.713  15.180  0.00  0.00    -0.054 SA
ATOM      8  C6  EZL d          -2.879   5.448  11.705  0.00  0.00    -0.049 A 
ATOM      9  C7  EZL d          -2.801   4.065  12.080  0.00  0.00    -0.051 A 
ATOM     10  H3  EZL d          -5.135   6.641  14.178  0.00  0.00     0.090 H 
ATOM     11  H6  EZL d          -2.325   5.851  10.865  0.00  0.00     0.087 H 
ATOM     12  H7  EZL d          -2.176   3.348  11.559  0.00  0.00     0.087 H 
ENDROOT
BRANCH   4  13
ATOM     13  O3  EZL d          -3.823   7.581  12.098  0.00  0.00    -0.351 OA
BRANCH  13  14
ATOM     14  C8  EZL d          -2.650   8.492  12.039  0.00  0.00     0.023 C 
ATOM     15  H4  EZL d          -2.950   9.439  11.568  0.00  0.00     0.074 H 
ATOM     16  H5  EZL d          -1.856   8.021  11.441  0.00  0.00     0.074 H 
BRANCH  14  17
ATOM     17  C9  EZL d          -2.116   8.778  13.451  0.00  0.00    -0.056 C 
ATOM     18  H8  EZL d          -2.885   8.517  14.193  0.00  0.00     0.030 H 
ATOM     19  H9  EZL d          -1.867   9.846  13.540  0.00  0.00     0.030 H 
ATOM     20  H10 EZL d          -1.214   8.175  13.632  0.00  0.00     0.030 H 
ENDBRANCH  14  17
ENDBRANCH  13  14
ENDBRANCH   4  13
BRANCH   5  21
ATOM     21  S1  EZL d          -4.737   0.765  15.575  0.00  0.00     0.281 S 
ATOM     22  O1  EZL d          -4.769  -0.221  14.537  0.00  0.00    -0.199 OA
ATOM     23  O2  EZL d          -3.624   0.680  16.478  0.00  0.00    -0.199 OA
BRANCH  21  24
ATOM     24  N1  EZL d          -6.126   0.912  16.302  0.00  0.00    -0.323 N 
ATOM     25  H1  EZL d          -6.763   0.142  16.323  0.00  0.00     0.169 HD
ATOM     26  H2  EZL d          -6.370   1.775  16.744  0.00  0.00     0.169 HD
ENDBRANCH  21  24
ENDBRANCH   5  21
TORSDOF 5
ENDMDL
MODEL 5
REMARK VINA RESULT:      -5.0      2.928      6.391
REMARK  5 active torsions:
REMARK  status: ('A' for Active; 'I' for Inactive)
REMARK    1  A    between atoms: S1_9  and  N1_1 
REMARK    2  A    between atoms: C5_5  and  O3_15 
REMARK    3  A    between atoms: O3_15  and  C8_6 
REMARK    4  A    between atoms: C8_6  and  C9_16 
REMARK    5  A    between atoms: C1_10  and  S1_9 
ROOT
ATOM      1  C2  EZL d          -4.083   2.862  13.692  0.00  0.00     0.076 A 
ATOM      2  C3  EZL d          -4.027   3.328  15.007  0.00  0.00     0.039 A 
ATOM      3  C4  EZL d          -4.260   2.424  16.076  0.00  0.00    -0.032 A 
ATOM      4  C5  EZL d          -4.545   1.105  15.589  0.00  0.00     0.070 A 
ATOM      5  C1  EZL d          -3.573   5.010  13.415  0.00  0.00     0.214 A 
ATOM      6  N2  EZL d          -3.865   3.880  12.772  0.00  0.00    -0.227 NA
ATOM      7  S2  EZL d          -3.619   4.937  15.080  0.00  0.00    -0.054 SA
ATOM      8  C6  EZL d          -4.635   0.597  14.287  0.00  0.00    -0.049 A 
ATOM      9  C7  EZL d          -4.398   1.546  13.236  0.00  0.00    -0.051 A 
ATOM     10  H3  EZL d          -4.226   2.694  17.125  0.00  0.00     0.090 H 
ATOM     11  H6  EZL d          -4.868  -0.443  14.085  0.00  0.00     0.087 H 
ATOM     12  H7  EZL d          -4.454   1.285  12.185  0.00  0.00     0.087 H 
ENDROOT
BRANCH   4  13
ATOM     13  O3  EZL d          -4.733   0.164  16.610  0.00  0.00    -0.351 OA
BRANCH  13  14
ATOM     14  C8  EZL d          -5.760   0.331  17.672  0.00  0.00     0.023 C 
ATOM     15  H4  EZL d          -5.355   0.972  18.469  0.00  0.00     0.074 H 
ATOM     16  H5  EZL d          -6.012  -0.655  18.089  0.00  0.00     0.074 H 
BRANCH  14  17
ATOM     17  C9  EZL d          -7.030   0.977  17.099  0.00  0.00    -0.056 C 
ATOM     18  H8  EZL d          -7.256   0.535  16.118  0.00  0.00     0.030 H 
ATOM     19  H9  EZL d          -6.871   2.060  16.987  0.00  0.00     0.030 H 
ATOM     20  H10 EZL d          -7.872   0.800  17.783  0.00  0.00     0.030 H 
ENDBRANCH  14  17
ENDBRANCH  13  14
ENDBRANCH   4  13
BRANCH   5  21
ATOM     21  S1  EZL d          -3.193   6.540  12.568  0.00  0.00     0.281 S 
ATOM     22  O1  EZL d          -2.100   6.201  11.707  0.00  0.00    -0.199 OA
ATOM     23  O2  EZL d          -4.424   6.869  11.907  0.00  0.00    -0.199 OA
BRANCH  21  24
ATOM     24  N1  EZL d          -2.779   7.578  13.677  0.00  0.00    -0.323 N 
ATOM     25  H1  EZL d          -3.318   8.410  13.811  0.00  0.00     0.169 HD
ATOM     26  H2  EZL d          -1.977   7.405  14.249  0.00  0.00     0.169 HD
ENDBRANCH  21  24
ENDBRANCH   5  21
TORSDOF 5
ENDMDL
MODEL 6
REMARK VINA RESULT:      -4.6      3.120      6.537
REMARK  5 active torsions:
REMARK  status: ('A' for Active; 'I' for Inactive)
REMARK    1  A    between atoms: S1_9  and  N1_1 
REMARK    2  A    between atoms: C5_5  and  O3_15 
REMARK    3  A    between atoms: O3_15  and  C8_6 
REMARK    4  A    between atoms: C8_6  and  C9_16 
REMARK    5  A    between atoms: C1_10  and  S1_9 
ROOT
ATOM      1  C2  EZL d          -3.861   3.858  13.174  0.00  0.00     0.076 A 
ATOM      2  C3  EZL d          -4.177   4.262  14.471  0.00  0.00     0.039 A 
ATOM      3  C4  EZL d          -4.714   3.316  15.384  0.00  0.00    -0.032 A 
ATOM      4  C5  EZL d          -4.861   2.027  14.770  0.00  0.00     0.070 A 
ATOM      5  C1  EZL d          -3.273   6.004  13.161  0.00  0.00     0.214 A 
ATOM      6  N2  EZL d          -3.381   4.912  12.406  0.00  0.00    -0.227 NA
ATOM      7  S2  EZL d          -3.791   5.856  14.739  0.00  0.00    -0.054 SA
ATOM      8  C6  EZL d          -4.581   1.582  13.471  0.00  0.00    -0.049 A 
ATOM      9  C7  EZL d          -4.046   2.572  12.580  0.00  0.00    -0.051 A 
ATOM     10  H3  EZL d          -4.977   3.537  16.412  0.00  0.00     0.090 H 
ATOM     11  H6  EZL d          -4.757   0.558  13.160  0.00  0.00     0.087 H 
ATOM     12  H7  EZL d          -3.803   2.361  11.545  0.00  0.00     0.087 H 
ENDROOT
BRANCH   4  13
ATOM     13  O3  EZL d          -5.341   1.045  15.646  0.00  0.00    -0.351 OA
BRANCH  13  14
ATOM     14  C8  EZL d          -5.646   1.326  17.074  0.00  0.00     0.023 C 
ATOM     15  H4  EZL d          -5.636   2.414  17.239  0.00  0.00     0.074 H 
ATOM     16  H5  EZL d          -4.881   0.853  17.707  0.00  0.00     0.074 H 
BRANCH  14  17
ATOM     17  C9  EZL d          -7.028   0.772  17.451  0.00  0.00    -0.056 C 
ATOM     18  H8  EZL d          -7.798   1.526  17.231  0.00  0.00     0.030 H 
ATOM     19  H9  EZL d          -7.046   0.530  18.523  0.00  0.00     0.030 H 
ATOM     20  H10 EZL d          -7.230  -0.138  16.866  0.00  0.00     0.030 H 
ENDBRANCH  14  17
ENDBRANCH  13  14
ENDBRANCH   4  13
BRANCH   5  21
ATOM     21  S1  EZL d          -2.652   7.562  12.535  0.00  0.00     0.281 S 
ATOM     22  O1  EZL d          -3.714   8.055  11.711  0.00  0.00    -0.199 OA
ATOM     23  O2  EZL d          -2.390   8.317  13.727  0.00  0.00    -0.199 OA
BRANCH  21  24
ATOM     24  N1  EZL d          -1.357   7.229  11.705  0.00  0.00    -0.323 N 
ATOM     25  H1  EZL d          -0.707   6.548  12.042  0.00  0.00     0.169 HD
ATOM     26  H2  EZL d          -1.184   7.700  10.839  0.00  0.00     0.169 HD
ENDBRANCH  21  24
ENDBRANCH   5  21
TORSDOF 5
ENDMDL
MODEL 7
REMARK VINA RESULT:      -4.4      2.034      2.594
REMARK  5 active torsions:
REMARK  status: ('A' for Active; 'I' for Inactive)
REMARK    1  A    between atoms: S1_9  and  N1_1 
REMARK    2  A    between atoms: C5_5  and  O3_15 
REMARK    3  A    between atoms: O3_15  and  C8_6 
REMARK    4  A    between atoms: C8_6  and  C9_16 
REMARK    5  A    between atoms: C1_10  and  S1_9 
ROOT
ATOM      1  C2  EZL d          -3.192   5.591  14.859  0.00  0.00     0.076 A 
ATOM      2  C3  EZL d          -2.542   5.201  13.687  0.00  0.00     0.039 A 
ATOM      3  C4  EZL d          -1.772   6.152  12.968  0.00  0.00    -0.032 A 
ATOM      4  C5  EZL d          -1.809   7.438  13.604  0.00  0.00     0.070 A 
ATOM      5  C1  EZL d          -3.726   3.436  14.713  0.00  0.00     0.214 A 
ATOM      6  N2  EZL d          -3.925   4.550  15.416  0.00  0.00    -0.227 NA
ATOM      7  S2  EZL d          -2.757   3.585  13.364  0.00  0.00    -0.054 SA
ATOM      8  C6  EZL d          -2.463   7.882  14.761  0.00  0.00    -0.049 A 
ATOM      9  C7  EZL d          -3.234   6.889  15.453  0.00  0.00    -0.051 A 
ATOM     10  H3  EZL d          -1.226   5.936  12.057  0.00  0.00     0.090 H 
ATOM     11  H6  EZL d          -2.391   8.906  15.109  0.00  0.00     0.087 H 
ATOM     12  H7  EZL d          -3.801   7.107  16.352  0.00  0.00     0.087 H 
ENDROOT
BRANCH   4  13
ATOM     13  O3  EZL d          -1.022   8.401  12.958  0.00  0.00    -0.351 OA
BRANCH  13  14
ATOM     14  C8  EZL d          -1.608   9.575  12.259  0.00  0.00     0.023 C 
ATOM     15  H4  EZL d          -0.950   9.867  11.428  0.00  0.00     0.074 H 
ATOM     16  H5  EZL d          -1.696  10.411  12.968  0.00  0.00     0.074 H 
BRANCH  14  17
ATOM     17  C9  EZL d          -3.000   9.234  11.705  0.00  0.00    -0.056 C 
ATOM     18  H8  EZL d          -3.135   8.142  11.699  0.00  0.00     0.030 H 
ATOM     19  H9  EZL d          -3.090   9.621  10.679  0.00  0.00     0.030 H 
ATOM     20  H10 EZL d          -3.771   9.695  12.339  0.00  0.00     0.030 H 
ENDBRANCH  14  17
ENDBRANCH  13  14
ENDBRANCH   4  13
BRANCH   5  21
ATOM     21  S1  EZL d          -4.475   1.868  15.144  0.00  0.00     0.281 S 
ATOM     22  O1  EZL d          -3.652   1.367  16.204  0.00  0.00    -0.199 OA
ATOM     23  O2  EZL d          -5.813   2.230  15.515  0.00  0.00    -0.199 OA
BRANCH  21  24
ATOM     24  N1  EZL d          -4.403   0.966  13.856  0.00  0.00    -0.323 N 
ATOM     25  H1  EZL d          -4.459  -0.029  13.938  0.00  0.00     0.169 HD
ATOM     26  H2  EZL d          -4.301   1.388  12.955  0.00  0.00     0.169 HD
ENDBRANCH  21  24
ENDBRANCH   5  21
TORSDOF 5
ENDMDL
MODEL 8
REMARK VINA RESULT:      -4.3      3.845      6.772
REMARK  5 active torsions:
REMARK  status: ('A' for Active; 'I' for Inactive)
REMARK    1  A    between atoms: S1_9  and  N1_1 
REMARK    2  A    between atoms: C5_5  and  O3_15 
REMARK    3  A    between atoms: O3_15  and  C8_6 
REMARK    4  A    between atoms: C8_6  and  C9_16 
REMARK    5  A    between atoms: C1_10  and  S1_9 
ROOT
ATOM      1  C2  EZL d          -4.133   5.669  14.371  0.00  0.00     0.076 A 
ATOM      2  C3  EZL d          -3.569   5.146  13.207  0.00  0.00     0.039 A 
ATOM      3  C4  EZL d          -4.001   3.879  12.733  0.00  0.00    -0.032 A 
ATOM      4  C5  EZL d          -4.996   3.312  13.597  0.00  0.00     0.070 A 
ATOM      5  C1  EZL d          -2.713   7.272  13.769  0.00  0.00     0.214 A 
ATOM      6  N2  EZL d          -3.576   6.896  14.711  0.00  0.00    -0.227 NA
ATOM      7  S2  EZL d          -2.474   6.191  12.522  0.00  0.00    -0.054 SA
ATOM      8  C6  EZL d          -5.573   3.786  14.782  0.00  0.00    -0.049 A 
ATOM      9  C7  EZL d          -5.105   5.067  15.229  0.00  0.00    -0.051 A 
ATOM     10  H3  EZL d          -3.627   3.402  11.834  0.00  0.00     0.090 H 
ATOM     11  H6  EZL d          -6.323   3.223  15.326  0.00  0.00     0.087 H 
ATOM     12  H7  EZL d          -5.458   5.538  16.139  0.00  0.00     0.087 H 
ENDROOT
BRANCH   4  13
ATOM     13  O3  EZL d          -5.490   2.082  13.143  0.00  0.00    -0.351 OA
BRANCH  13  14
ATOM     14  C8  EZL d          -4.798   1.275  12.105  0.00  0.00     0.023 C 
ATOM     15  H4  EZL d          -3.894   1.808  11.776  0.00  0.00     0.074 H 
ATOM     16  H5  EZL d          -5.472   1.134  11.247  0.00  0.00     0.074 H 
BRANCH  14  17
ATOM     17  C9  EZL d          -4.398  -0.098  12.665  0.00  0.00    -0.056 C 
ATOM     18  H8  EZL d          -3.940  -0.701  11.867  0.00  0.00     0.030 H 
ATOM     19  H9  EZL d          -5.293  -0.613  13.047  0.00  0.00     0.030 H 
ATOM     20  H10 EZL d          -3.676   0.035  13.483  0.00  0.00     0.030 H 
ENDBRANCH  14  17
ENDBRANCH  13  14
ENDBRANCH   4  13
BRANCH   5  21
ATOM     21  S1  EZL d          -1.817   8.820  13.832  0.00  0.00     0.281 S 
ATOM     22  O1  EZL d          -2.343   9.574  12.734  0.00  0.00    -0.199 OA
ATOM     23  O2  EZL d          -2.126   9.329  15.139  0.00  0.00    -0.199 OA
BRANCH  21  24
ATOM     24  N1  EZL d          -0.295   8.468  13.639  0.00  0.00    -0.323 N 
ATOM     25  H1  EZL d           0.015   7.521  13.731  0.00  0.00     0.169 HD
ATOM     26  H2  EZL d           0.362   9.191  13.424  0.00  0.00     0.169 HD
ENDBRANCH  21  24
ENDBRANCH   5  21
TORSDOF 5
ENDMDL
MODEL 9
REMARK VINA RESULT:      -2.8      1.893      2.288
REMARK  5 active torsions:
REMARK  status: ('A' for Active; 'I' for Inactive)
REMARK    1  A    between atoms: S1_9  and  N1_1 
REMARK    2  A    between atoms: C5_5  and  O3_15 
REMARK    3  A    between atoms: O3_15  and  C8_6 
REMARK    4  A    between atoms: C8_6  and  C9_16 
REMARK    5  A    between atoms: C1_10  and  S1_9 
ROOT
ATOM      1  C2  EZL d          -2.578   3.940  13.880  0.00  0.00     0.076 A 
ATOM      2  C3  EZL d          -3.085   5.070  14.524  0.00  0.00     0.039 A 
ATOM      3  C4  EZL d          -2.506   6.340  14.261  0.00  0.00    -0.032 A 
ATOM      4  C5  EZL d          -1.420   6.233  13.329  0.00  0.00     0.070 A 
ATOM      5  C1  EZL d          -4.233   3.091  15.100  0.00  0.00     0.214 A 
ATOM      6  N2  EZL d          -3.235   2.781  14.274  0.00  0.00    -0.227 NA
ATOM      7  S2  EZL d          -4.385   4.704  15.492  0.00  0.00    -0.054 SA
ATOM      8  C6  EZL d          -0.863   5.125  12.678  0.00  0.00    -0.049 A 
ATOM      9  C7  EZL d          -1.475   3.861  12.976  0.00  0.00    -0.051 A 
ATOM     10  H3  EZL d          -2.841   7.269  14.706  0.00  0.00     0.090 H 
ATOM     11  H6  EZL d          -0.027   5.216  11.994  0.00  0.00     0.087 H 
ATOM     12  H7  EZL d          -1.128   2.925  12.551  0.00  0.00     0.087 H 
ENDROOT
BRANCH   4  13
ATOM     13  O3  EZL d          -0.847   7.468  12.999  0.00  0.00    -0.351 OA
BRANCH  13  14
ATOM     14  C8  EZL d          -1.111   8.153  11.706  0.00  0.00     0.023 C 
ATOM     15  H4  EZL d          -1.555   7.435  11.001  0.00  0.00     0.074 H 
ATOM     16  H5  EZL d          -0.163   8.530  11.297  0.00  0.00     0.074 H 
BRANCH  14  17
ATOM     17  C9  EZL d          -2.079   9.329  11.906  0.00  0.00    -0.056 C 
ATOM     18  H8  EZL d          -3.104   8.945  12.020  0.00  0.00     0.030 H 
ATOM     19  H9  EZL d          -2.031   9.995  11.032  0.00  0.00     0.030 H 
ATOM     20  H10 EZL d          -1.795   9.889  12.809  0.00  0.00     0.030 H 
ENDBRANCH  14  17
ENDBRANCH  13  14
ENDBRANCH   4  13
BRANCH   5  21
ATOM     21  S1  EZL d          -5.336   1.864  15.795  0.00  0.00     0.281 S 
ATOM     22  O1  EZL d          -6.621   2.209  15.265  0.00  0.00    -0.199 OA
ATOM     23  O2  EZL d          -4.786   0.622  15.331  0.00  0.00    -0.199 OA
BRANCH  21  24
ATOM     24  N1  EZL d          -5.270   2.034  17.359  0.00  0.00    -0.323 N 
ATOM     25  H1  EZL d          -6.107   1.979  17.904  0.00  0.00     0.169 HD
ATOM     26  H2  EZL d          -4.391   2.197  17.807  0.00  0.00     0.169 HD
ENDBRANCH  21  24
ENDBRANCH   5  21
TORSDOF 5
ENDMDL
