MODEL 1
REMARK VINA RESULT:      -6.8      0.000      0.000
REMARK  4 active torsions:
REMARK  status: ('A' for Active; 'I' for Inactive)
REMARK    1  A    between atoms: C1_2  and  C6_3 
REMARK    2  A    between atoms: C6_3  and  C7_4 
REMARK    3  A    between atoms: C7_4  and  C8_5 
REMARK    4  A    between atoms: C8_5  and  C9_6 
ROOT
ATOM      1  N1  BDI d          15.604  16.953  20.191  0.00  0.00    -0.338 N 
ATOM      2  C1  BDI d          16.794  17.289  19.724  0.00  0.00     0.105 A 
ATOM      3  N2  BDI d          17.593  17.533  20.625  0.00  0.00    -0.227 NA
ATOM      4  C2  BDI d          17.014  17.388  21.920  0.00  0.00     0.160 A 
ATOM      5  C4  BDI d          17.529  17.560  23.312  0.00  0.00     0.291 A 
ATOM      6  N5  BDI d          16.607  17.312  24.336  0.00  0.00    -0.262 N 
ATOM      7  N4  BDI d          15.186  16.898  24.081  0.00  0.00    -0.262 N 
ATOM      8  C5  BDI d          14.652  16.721  22.790  0.00  0.00     0.289 A 
ATOM      9  O1  BDI d          13.457  16.372  22.559  0.00  0.00    -0.264 OA
ATOM     10  C3  BDI d          15.665  16.993  21.640  0.00  0.00     0.138 A 
ATOM     11  O3  BDI d          18.695  17.898  23.505  0.00  0.00    -0.264 OA
ATOM     12  H1  BDI d          14.778  16.705  19.626  0.00  0.00     0.167 HD
ATOM     13  H11 BDI d          16.909  17.416  25.284  0.00  0.00     0.190 HD
ATOM     14  H12 BDI d          14.588  16.740  24.867  0.00  0.00     0.190 HD
ENDROOT
BRANCH   2  15
ATOM     15  C6  BDI d          17.098  17.357  18.225  0.00  0.00    -0.010 C 
ATOM     16  H2  BDI d          17.346  16.339  17.892  0.00  0.00     0.044 H 
ATOM     17  H3  BDI d          17.973  18.009  18.095  0.00  0.00     0.044 H 
BRANCH  15  18
ATOM     18  C7  BDI d          15.967  17.896  17.291  0.00  0.00    -0.059 C 
ATOM     19  H4  BDI d          15.299  18.556  17.864  0.00  0.00     0.033 H 
ATOM     20  H5  BDI d          15.390  17.052  16.887  0.00  0.00     0.033 H 
BRANCH  18  21
ATOM     21  C8  BDI d          16.612  18.699  16.113  0.00  0.00    -0.068 C 
ATOM     22  H6  BDI d          17.204  18.004  15.498  0.00  0.00     0.032 H 
ATOM     23  H7  BDI d          17.275  19.469  16.535  0.00  0.00     0.032 H 
BRANCH  21  24
ATOM     24  C9  BDI d          15.564  19.391  15.208  0.00  0.00    -0.077 C 
ATOM     25  H8  BDI d          16.078  19.936  14.403  0.00  0.00     0.027 H 
ATOM     26  H9  BDI d          14.970  20.097  15.808  0.00  0.00     0.027 H 
ATOM     27  H10 BDI d          14.899  18.632  14.770  0.00  0.00     0.027 H 
ENDBRANCH  21  24
ENDBRANCH  18  21
ENDBRANCH  15  18
ENDBRANCH   2  15
TORSDOF 4
ENDMDL
