MODEL 1
REMARK VINA RESULT:      -6.8      0.000      0.000
REMARK  4 active torsions:
REMARK  status: ('A' for Active; 'I' for Inactive)
REMARK    1  A    between atoms: C1_2  and  C6_3 
REMARK    2  A    between atoms: C6_3  and  C7_4 
REMARK    3  A    between atoms: C7_4  and  C8_5 
REMARK    4  A    between atoms: C8_5  and  C9_6 
ROOT
ATOM      1  N1  BDI d          15.568  17.024  20.190  0.00  0.00    -0.338 N 
ATOM      2  C1  BDI d          16.755  17.367  19.720  0.00  0.00     0.105 A 
ATOM      3  N2  BDI d          17.566  17.578  20.619  0.00  0.00    -0.227 NA
ATOM      4  C2  BDI d          17.000  17.397  21.916  0.00  0.00     0.160 A 
ATOM      5  C4  BDI d          17.532  17.523  23.306  0.00  0.00     0.291 A 
ATOM      6  N5  BDI d          16.620  17.250  24.333  0.00  0.00    -0.262 N 
ATOM      7  N4  BDI d          15.193  16.854  24.081  0.00  0.00    -0.262 N 
ATOM      8  C5  BDI d          14.644  16.720  22.792  0.00  0.00     0.289 A 
ATOM      9  O1  BDI d          13.443  16.386  22.564  0.00  0.00    -0.264 OA
ATOM     10  C3  BDI d          15.646  17.020  21.639  0.00  0.00     0.138 A 
ATOM     11  O3  BDI d          18.702  17.848  23.496  0.00  0.00    -0.264 OA
ATOM     12  H1  BDI d          14.735  16.800  19.627  0.00  0.00     0.167 HD
ATOM     13  H11 BDI d          16.933  17.323  25.280  0.00  0.00     0.190 HD
ATOM     14  H12 BDI d          14.603  16.676  24.869  0.00  0.00     0.190 HD
ENDROOT
BRANCH   2  15
ATOM     15  C6  BDI d          17.043  17.479  18.221  0.00  0.00    -0.010 C 
ATOM     16  H2  BDI d          17.434  16.507  17.886  0.00  0.00     0.044 H 
ATOM     17  H3  BDI d          17.816  18.250  18.090  0.00  0.00     0.044 H 
BRANCH  15  18
ATOM     18  C7  BDI d          15.845  17.851  17.290  0.00  0.00    -0.059 C 
ATOM     19  H4  BDI d          15.095  18.417  17.862  0.00  0.00     0.033 H 
ATOM     20  H5  BDI d          15.387  16.933  16.894  0.00  0.00     0.033 H 
BRANCH  18  21
ATOM     21  C8  BDI d          16.368  18.727  16.104  0.00  0.00    -0.068 C 
ATOM     22  H6  BDI d          17.343  19.152  16.386  0.00  0.00     0.032 H 
ATOM     23  H7  BDI d          15.650  19.541  15.926  0.00  0.00     0.032 H 
BRANCH  21  24
ATOM     24  C9  BDI d          16.540  17.925  14.790  0.00  0.00    -0.077 C 
ATOM     25  H8  BDI d          17.448  17.308  14.854  0.00  0.00     0.027 H 
ATOM     26  H9  BDI d          16.630  18.622  13.944  0.00  0.00     0.027 H 
ATOM     27  H10 BDI d          15.665  17.276  14.640  0.00  0.00     0.027 H 
ENDBRANCH  21  24
ENDBRANCH  18  21
ENDBRANCH  15  18
ENDBRANCH   2  15
TORSDOF 4
ENDMDL
MODEL 2
REMARK VINA RESULT:      -6.5      0.803      2.688
REMARK  4 active torsions:
REMARK  status: ('A' for Active; 'I' for Inactive)
REMARK    1  A    between atoms: C1_2  and  C6_3 
REMARK    2  A    between atoms: C6_3  and  C7_4 
REMARK    3  A    between atoms: C7_4  and  C8_5 
REMARK    4  A    between atoms: C8_5  and  C9_6 
ROOT
ATOM      1  N1  BDI d          16.896  17.327  20.296  0.00  0.00    -0.338 N 
ATOM      2  C1  BDI d          15.796  17.033  19.626  0.00  0.00     0.105 A 
ATOM      3  N2  BDI d          14.848  16.796  20.371  0.00  0.00    -0.227 NA
ATOM      4  C2  BDI d          15.200  16.903  21.750  0.00  0.00     0.160 A 
ATOM      5  C4  BDI d          14.449  16.722  23.028  0.00  0.00     0.291 A 
ATOM      6  N5  BDI d          15.188  16.925  24.200  0.00  0.00    -0.262 N 
ATOM      7  N4  BDI d          16.642  17.303  24.201  0.00  0.00    -0.262 N 
ATOM      8  C5  BDI d          17.394  17.487  23.024  0.00  0.00     0.289 A 
ATOM      9  O1  BDI d          18.619  17.806  23.009  0.00  0.00    -0.264 OA
ATOM     10  C3  BDI d          16.586  17.264  21.713  0.00  0.00     0.138 A 
ATOM     11  O3  BDI d          13.260  16.413  23.012  0.00  0.00    -0.264 OA
ATOM     12  H1  BDI d          17.812  17.561  19.886  0.00  0.00     0.167 HD
ATOM     13  H11 BDI d          14.725  16.814  25.080  0.00  0.00     0.190 HD
ATOM     14  H12 BDI d          17.100  17.430  25.081  0.00  0.00     0.190 HD
ENDROOT
BRANCH   2  15
ATOM     15  C6  BDI d          15.751  16.999  18.096  0.00  0.00    -0.010 C 
ATOM     16  H2  BDI d          14.698  17.090  17.794  0.00  0.00     0.044 H 
ATOM     17  H3  BDI d          16.142  16.023  17.776  0.00  0.00     0.044 H 
BRANCH  15  18
ATOM     18  C7  BDI d          16.557  18.100  17.334  0.00  0.00    -0.059 C 
ATOM     19  H4  BDI d          17.608  17.790  17.242  0.00  0.00     0.033 H 
ATOM     20  H5  BDI d          16.501  19.048  17.889  0.00  0.00     0.033 H 
BRANCH  18  21
ATOM     21  C8  BDI d          15.942  18.293  15.909  0.00  0.00    -0.068 C 
ATOM     22  H6  BDI d          16.135  17.385  15.318  0.00  0.00     0.032 H 
ATOM     23  H7  BDI d          16.431  19.153  15.429  0.00  0.00     0.032 H 
BRANCH  21  24
ATOM     24  C9  BDI d          14.414  18.547  15.939  0.00  0.00    -0.077 C 
ATOM     25  H8  BDI d          14.188  19.482  15.405  0.00  0.00     0.027 H 
ATOM     26  H9  BDI d          14.077  18.630  16.982  0.00  0.00     0.027 H 
ATOM     27  H10 BDI d          13.894  17.710  15.450  0.00  0.00     0.027 H 
ENDBRANCH  21  24
ENDBRANCH  18  21
ENDBRANCH  15  18
ENDBRANCH   2  15
TORSDOF 4
ENDMDL
MODEL 3
REMARK VINA RESULT:      -6.5      0.994      1.100
REMARK  4 active torsions:
REMARK  status: ('A' for Active; 'I' for Inactive)
REMARK    1  A    between atoms: C1_2  and  C6_3 
REMARK    2  A    between atoms: C6_3  and  C7_4 
REMARK    3  A    between atoms: C7_4  and  C8_5 
REMARK    4  A    between atoms: C8_5  and  C9_6 
ROOT
ATOM      1  N1  BDI d          14.426  16.543  20.622  0.00  0.00    -0.338 N 
ATOM      2  C1  BDI d          15.377  16.716  19.720  0.00  0.00     0.105 A 
ATOM      3  N2  BDI d          16.453  17.017  20.232  0.00  0.00    -0.227 NA
ATOM      4  C2  BDI d          16.375  17.098  21.655  0.00  0.00     0.160 A 
ATOM      5  C4  BDI d          17.360  17.419  22.731  0.00  0.00     0.291 A 
ATOM      6  N5  BDI d          16.861  17.388  24.039  0.00  0.00    -0.262 N 
ATOM      7  N4  BDI d          15.433  17.058  24.368  0.00  0.00    -0.262 N 
ATOM      8  C5  BDI d          14.467  16.748  23.391  0.00  0.00     0.289 A 
ATOM      9  O1  BDI d          13.260  16.467  23.653  0.00  0.00    -0.264 OA
ATOM     10  C3  BDI d          15.006  16.778  21.932  0.00  0.00     0.138 A 
ATOM     11  O3  BDI d          18.525  17.686  22.446  0.00  0.00    -0.264 OA
ATOM     12  H1  BDI d          13.447  16.287  20.429  0.00  0.00     0.167 HD
ATOM     13  H11 BDI d          17.487  17.597  24.791  0.00  0.00     0.190 HD
ATOM     14  H12 BDI d          15.154  17.058  25.328  0.00  0.00     0.190 HD
ENDROOT
BRANCH   2  15
ATOM     15  C6  BDI d          15.124  16.553  18.219  0.00  0.00    -0.010 C 
ATOM     16  H2  BDI d          14.157  16.044  18.101  0.00  0.00     0.044 H 
ATOM     17  H3  BDI d          15.925  15.917  17.816  0.00  0.00     0.044 H 
BRANCH  15  18
ATOM     18  C7  BDI d          15.080  17.856  17.357  0.00  0.00    -0.059 C 
ATOM     19  H4  BDI d          14.689  18.686  17.963  0.00  0.00     0.033 H 
ATOM     20  H5  BDI d          14.426  17.699  16.486  0.00  0.00     0.033 H 
BRANCH  18  21
ATOM     21  C8  BDI d          16.526  18.200  16.869  0.00  0.00    -0.068 C 
ATOM     22  H6  BDI d          17.071  17.259  16.699  0.00  0.00     0.032 H 
ATOM     23  H7  BDI d          17.032  18.780  17.655  0.00  0.00     0.032 H 
BRANCH  21  24
ATOM     24  C9  BDI d          16.541  19.024  15.559  0.00  0.00    -0.077 C 
ATOM     25  H8  BDI d          17.438  18.768  14.976  0.00  0.00     0.027 H 
ATOM     26  H9  BDI d          16.556  20.097  15.801  0.00  0.00     0.027 H 
ATOM     27  H10 BDI d          15.642  18.793  14.969  0.00  0.00     0.027 H 
ENDBRANCH  21  24
ENDBRANCH  18  21
ENDBRANCH  15  18
ENDBRANCH   2  15
TORSDOF 4
ENDMDL
MODEL 4
REMARK VINA RESULT:      -5.5      2.905      5.619
REMARK  4 active torsions:
REMARK  status: ('A' for Active; 'I' for Inactive)
REMARK    1  A    between atoms: C1_2  and  C6_3 
REMARK    2  A    between atoms: C6_3  and  C7_4 
REMARK    3  A    between atoms: C7_4  and  C8_5 
REMARK    4  A    between atoms: C8_5  and  C9_6 
ROOT
ATOM      1  N1  BDI d          16.169  16.950  20.094  0.00  0.00    -0.338 N 
ATOM      2  C1  BDI d          17.342  17.542  19.952  0.00  0.00     0.105 A 
ATOM      3  N2  BDI d          17.506  17.980  18.817  0.00  0.00    -0.227 NA
ATOM      4  C2  BDI d          16.388  17.726  17.968  0.00  0.00     0.160 A 
ATOM      5  C4  BDI d          16.080  18.034  16.539  0.00  0.00     0.291 A 
ATOM      6  N5  BDI d          14.832  17.595  16.079  0.00  0.00    -0.262 N 
ATOM      7  N4  BDI d          13.848  16.861  16.945  0.00  0.00    -0.262 N 
ATOM      8  C5  BDI d          14.090  16.547  18.296  0.00  0.00     0.289 A 
ATOM      9  O1  BDI d          13.270  15.929  19.038  0.00  0.00    -0.264 OA
ATOM     10  C3  BDI d          15.473  17.029  18.822  0.00  0.00     0.138 A 
ATOM     11  O3  BDI d          16.894  18.637  15.844  0.00  0.00    -0.264 OA
ATOM     12  H1  BDI d          15.811  16.510  20.954  0.00  0.00     0.167 HD
ATOM     13  H11 BDI d          14.584  17.779  15.128  0.00  0.00     0.190 HD
ATOM     14  H12 BDI d          12.977  16.580  16.541  0.00  0.00     0.190 HD
ENDROOT
BRANCH   2  15
ATOM     15  C6  BDI d          18.352  17.645  21.098  0.00  0.00    -0.010 C 
ATOM     16  H2  BDI d          18.414  18.704  21.389  0.00  0.00     0.044 H 
ATOM     17  H3  BDI d          19.326  17.313  20.711  0.00  0.00     0.044 H 
BRANCH  15  18
ATOM     18  C7  BDI d          18.053  16.819  22.390  0.00  0.00    -0.059 C 
ATOM     19  H4  BDI d          18.951  16.255  22.682  0.00  0.00     0.033 H 
ATOM     20  H5  BDI d          17.228  16.118  22.197  0.00  0.00     0.033 H 
BRANCH  18  21
ATOM     21  C8  BDI d          17.651  17.796  23.544  0.00  0.00    -0.068 C 
ATOM     22  H6  BDI d          18.192  18.744  23.405  0.00  0.00     0.032 H 
ATOM     23  H7  BDI d          17.943  17.344  24.503  0.00  0.00     0.032 H 
BRANCH  21  24
ATOM     24  C9  BDI d          16.132  18.095  23.580  0.00  0.00    -0.077 C 
ATOM     25  H8  BDI d          15.971  19.181  23.509  0.00  0.00     0.027 H 
ATOM     26  H9  BDI d          15.708  17.723  24.524  0.00  0.00     0.027 H 
ATOM     27  H10 BDI d          15.639  17.594  22.734  0.00  0.00     0.027 H 
ENDBRANCH  21  24
ENDBRANCH  18  21
ENDBRANCH  15  18
ENDBRANCH   2  15
TORSDOF 4
ENDMDL
MODEL 5
REMARK VINA RESULT:      -5.4      2.926      5.916
REMARK  4 active torsions:
REMARK  status: ('A' for Active; 'I' for Inactive)
REMARK    1  A    between atoms: C1_2  and  C6_3 
REMARK    2  A    between atoms: C6_3  and  C7_4 
REMARK    3  A    between atoms: C7_4  and  C8_5 
REMARK    4  A    between atoms: C8_5  and  C9_6 
ROOT
ATOM      1  N1  BDI d          17.221  17.865  18.551  0.00  0.00    -0.338 N 
ATOM      2  C1  BDI d          17.096  17.478  19.809  0.00  0.00     0.105 A 
ATOM      3  N2  BDI d          16.047  16.870  20.004  0.00  0.00    -0.227 NA
ATOM      4  C2  BDI d          15.257  16.752  18.822  0.00  0.00     0.160 A 
ATOM      5  C4  BDI d          13.935  16.128  18.516  0.00  0.00     0.291 A 
ATOM      6  N5  BDI d          13.504  16.240  17.189  0.00  0.00    -0.262 N 
ATOM      7  N4  BDI d          14.299  16.935  16.121  0.00  0.00    -0.262 N 
ATOM      8  C5  BDI d          15.550  17.537  16.357  0.00  0.00     0.289 A 
ATOM      9  O1  BDI d          16.232  18.126  15.468  0.00  0.00    -0.264 OA
ATOM     10  C3  BDI d          16.043  17.422  17.829  0.00  0.00     0.138 A 
ATOM     11  O3  BDI d          13.296  15.562  19.400  0.00  0.00    -0.264 OA
ATOM     12  H1  BDI d          18.015  18.388  18.154  0.00  0.00     0.167 HD
ATOM     13  H11 BDI d          12.623  15.837  16.939  0.00  0.00     0.190 HD
ATOM     14  H12 BDI d          13.922  16.973  15.195  0.00  0.00     0.190 HD
ENDROOT
BRANCH   2  15
ATOM     15  C6  BDI d          18.159  17.778  20.869  0.00  0.00    -0.010 C 
ATOM     16  H2  BDI d          18.120  18.856  21.081  0.00  0.00     0.044 H 
ATOM     17  H3  BDI d          19.137  17.524  20.437  0.00  0.00     0.044 H 
BRANCH  15  18
ATOM     18  C7  BDI d          18.038  17.026  22.234  0.00  0.00    -0.059 C 
ATOM     19  H4  BDI d          19.042  16.853  22.648  0.00  0.00     0.033 H 
ATOM     20  H5  BDI d          17.534  16.061  22.079  0.00  0.00     0.033 H 
BRANCH  18  21
ATOM     21  C8  BDI d          17.204  17.898  23.229  0.00  0.00    -0.068 C 
ATOM     22  H6  BDI d          17.030  18.883  22.772  0.00  0.00     0.032 H 
ATOM     23  H7  BDI d          17.783  18.022  24.156  0.00  0.00     0.032 H 
BRANCH  21  24
ATOM     24  C9  BDI d          15.835  17.268  23.583  0.00  0.00    -0.077 C 
ATOM     25  H8  BDI d          15.616  16.449  22.881  0.00  0.00     0.027 H 
ATOM     26  H9  BDI d          15.049  18.033  23.508  0.00  0.00     0.027 H 
ATOM     27  H10 BDI d          15.866  16.873  24.609  0.00  0.00     0.027 H 
ENDBRANCH  21  24
ENDBRANCH  18  21
ENDBRANCH  15  18
ENDBRANCH   2  15
TORSDOF 4
ENDMDL
MODEL 6
REMARK VINA RESULT:      -5.4      2.794      6.106
REMARK  4 active torsions:
REMARK  status: ('A' for Active; 'I' for Inactive)
REMARK    1  A    between atoms: C1_2  and  C6_3 
REMARK    2  A    between atoms: C6_3  and  C7_4 
REMARK    3  A    between atoms: C7_4  and  C8_5 
REMARK    4  A    between atoms: C8_5  and  C9_6 
ROOT
ATOM      1  N1  BDI d          15.516  16.793  20.745  0.00  0.00    -0.338 N 
ATOM      2  C1  BDI d          14.211  16.603  20.839  0.00  0.00     0.105 A 
ATOM      3  N2  BDI d          13.640  16.775  19.765  0.00  0.00    -0.227 NA
ATOM      4  C2  BDI d          14.542  17.134  18.720  0.00  0.00     0.160 A 
ATOM      5  C4  BDI d          14.375  17.448  17.269  0.00  0.00     0.291 A 
ATOM      6  N5  BDI d          15.551  17.762  16.577  0.00  0.00    -0.262 N 
ATOM      7  N4  BDI d          16.906  17.788  17.226  0.00  0.00    -0.262 N 
ATOM      8  C5  BDI d          17.116  17.499  18.588  0.00  0.00     0.289 A 
ATOM      9  O1  BDI d          18.251  17.516  19.149  0.00  0.00    -0.264 OA
ATOM     10  C3  BDI d          15.818  17.148  19.371  0.00  0.00     0.138 A 
ATOM     11  O3  BDI d          13.260  17.422  16.752  0.00  0.00    -0.264 OA
ATOM     12  H1  BDI d          16.198  16.704  21.512  0.00  0.00     0.167 HD
ATOM     13  H11 BDI d          15.486  17.980  15.603  0.00  0.00     0.190 HD
ATOM     14  H12 BDI d          17.698  18.023  16.663  0.00  0.00     0.190 HD
ENDROOT
BRANCH   2  15
ATOM     15  C6  BDI d          13.531  16.216  22.154  0.00  0.00    -0.010 C 
ATOM     16  H2  BDI d          13.798  15.171  22.370  0.00  0.00     0.044 H 
ATOM     17  H3  BDI d          12.445  16.291  21.999  0.00  0.00     0.044 H 
BRANCH  15  18
ATOM     18  C7  BDI d          13.885  17.063  23.418  0.00  0.00    -0.059 C 
ATOM     19  H4  BDI d          13.209  16.794  24.243  0.00  0.00     0.033 H 
ATOM     20  H5  BDI d          13.774  18.133  23.188  0.00  0.00     0.033 H 
BRANCH  18  21
ATOM     21  C8  BDI d          15.363  16.770  23.837  0.00  0.00    -0.068 C 
ATOM     22  H6  BDI d          15.786  16.034  23.136  0.00  0.00     0.032 H 
ATOM     23  H7  BDI d          15.363  16.350  24.853  0.00  0.00     0.032 H 
BRANCH  21  24
ATOM     24  C9  BDI d          16.257  18.034  23.823  0.00  0.00    -0.077 C 
ATOM     25  H8  BDI d          17.254  17.782  24.215  0.00  0.00     0.027 H 
ATOM     26  H9  BDI d          15.802  18.812  24.454  0.00  0.00     0.027 H 
ATOM     27  H10 BDI d          16.352  18.406  22.793  0.00  0.00     0.027 H 
ENDBRANCH  21  24
ENDBRANCH  18  21
ENDBRANCH  15  18
ENDBRANCH   2  15
TORSDOF 4
ENDMDL
MODEL 7
REMARK VINA RESULT:      -5.3      3.904      7.061
REMARK  4 active torsions:
REMARK  status: ('A' for Active; 'I' for Inactive)
REMARK    1  A    between atoms: C1_2  and  C6_3 
REMARK    2  A    between atoms: C6_3  and  C7_4 
REMARK    3  A    between atoms: C7_4  and  C8_5 
REMARK    4  A    between atoms: C8_5  and  C9_6 
ROOT
ATOM      1  N1  BDI d          15.938  17.818  18.183  0.00  0.00    -0.338 N 
ATOM      2  C1  BDI d          15.182  16.857  18.686  0.00  0.00     0.105 A 
ATOM      3  N2  BDI d          14.534  16.276  17.820  0.00  0.00    -0.227 NA
ATOM      4  C2  BDI d          14.775  16.800  16.515  0.00  0.00     0.160 A 
ATOM      5  C4  BDI d          14.260  16.469  15.152  0.00  0.00     0.291 A 
ATOM      6  N5  BDI d          14.766  17.250  14.106  0.00  0.00    -0.262 N 
ATOM      7  N4  BDI d          15.763  18.355  14.311  0.00  0.00    -0.262 N 
ATOM      8  C5  BDI d          16.280  18.705  15.573  0.00  0.00     0.289 A 
ATOM      9  O1  BDI d          17.121  19.633  15.762  0.00  0.00    -0.264 OA
ATOM     10  C3  BDI d          15.727  17.846  16.747  0.00  0.00     0.138 A 
ATOM     11  O3  BDI d          13.445  15.562  15.000  0.00  0.00    -0.264 OA
ATOM     12  H1  BDI d          16.566  18.437  18.715  0.00  0.00     0.167 HD
ATOM     13  H11 BDI d          14.448  17.063  13.176  0.00  0.00     0.190 HD
ATOM     14  H12 BDI d          16.076  18.867  13.511  0.00  0.00     0.190 HD
ENDROOT
BRANCH   2  15
ATOM     15  C6  BDI d          15.147  16.540  20.183  0.00  0.00    -0.010 C 
ATOM     16  H2  BDI d          15.158  15.446  20.290  0.00  0.00     0.044 H 
ATOM     17  H3  BDI d          14.204  16.938  20.583  0.00  0.00     0.044 H 
BRANCH  15  18
ATOM     18  C7  BDI d          16.307  17.110  21.061  0.00  0.00    -0.059 C 
ATOM     19  H4  BDI d          16.586  18.110  20.699  0.00  0.00     0.033 H 
ATOM     20  H5  BDI d          17.179  16.441  20.999  0.00  0.00     0.033 H 
BRANCH  18  21
ATOM     21  C8  BDI d          15.828  17.206  22.547  0.00  0.00    -0.068 C 
ATOM     22  H6  BDI d          15.619  16.190  22.915  0.00  0.00     0.032 H 
ATOM     23  H7  BDI d          14.906  17.804  22.580  0.00  0.00     0.032 H 
BRANCH  21  24
ATOM     24  C9  BDI d          16.876  17.862  23.479  0.00  0.00    -0.077 C 
ATOM     25  H8  BDI d          16.571  17.727  24.527  0.00  0.00     0.027 H 
ATOM     26  H9  BDI d          16.946  18.937  23.254  0.00  0.00     0.027 H 
ATOM     27  H10 BDI d          17.857  17.390  23.319  0.00  0.00     0.027 H 
ENDBRANCH  21  24
ENDBRANCH  18  21
ENDBRANCH  15  18
ENDBRANCH   2  15
TORSDOF 4
ENDMDL
MODEL 8
REMARK VINA RESULT:      -5.1      1.914      3.509
REMARK  4 active torsions:
REMARK  status: ('A' for Active; 'I' for Inactive)
REMARK    1  A    between atoms: C1_2  and  C6_3 
REMARK    2  A    between atoms: C6_3  and  C7_4 
REMARK    3  A    between atoms: C7_4  and  C8_5 
REMARK    4  A    between atoms: C8_5  and  C9_6 
ROOT
ATOM      1  N1  BDI d          16.092  17.586  17.823  0.00  0.00    -0.338 N 
ATOM      2  C1  BDI d          14.812  17.374  17.573  0.00  0.00     0.105 A 
ATOM      3  N2  BDI d          14.188  17.060  18.584  0.00  0.00    -0.227 NA
ATOM      4  C2  BDI d          15.019  17.010  19.743  0.00  0.00     0.160 A 
ATOM      5  C4  BDI d          14.774  16.690  21.181  0.00  0.00     0.291 A 
ATOM      6  N5  BDI d          15.895  16.757  22.018  0.00  0.00    -0.262 N 
ATOM      7  N4  BDI d          17.267  17.125  21.527  0.00  0.00    -0.262 N 
ATOM      8  C5  BDI d          17.549  17.436  20.183  0.00  0.00     0.289 A 
ATOM      9  O1  BDI d          18.699  17.749  19.755  0.00  0.00    -0.264 OA
ATOM     10  C3  BDI d          16.313  17.365  19.240  0.00  0.00     0.138 A 
ATOM     11  O3  BDI d          13.646  16.391  21.568  0.00  0.00    -0.264 OA
ATOM     12  H1  BDI d          16.807  17.860  17.134  0.00  0.00     0.167 HD
ATOM     13  H11 BDI d          15.777  16.550  22.989  0.00  0.00     0.190 HD
ATOM     14  H12 BDI d          18.017  17.151  22.188  0.00  0.00     0.190 HD
ENDROOT
BRANCH   2  15
ATOM     15  C6  BDI d          14.216  17.512  16.170  0.00  0.00    -0.010 C 
ATOM     16  H2  BDI d          13.134  17.333  16.251  0.00  0.00     0.044 H 
ATOM     17  H3  BDI d          14.670  16.735  15.540  0.00  0.00     0.044 H 
BRANCH  15  18
ATOM     18  C7  BDI d          14.412  18.881  15.442  0.00  0.00    -0.059 C 
ATOM     19  H4  BDI d          15.027  19.546  16.067  0.00  0.00     0.033 H 
ATOM     20  H5  BDI d          13.432  19.348  15.265  0.00  0.00     0.033 H 
BRANCH  18  21
ATOM     21  C8  BDI d          15.130  18.638  14.074  0.00  0.00    -0.068 C 
ATOM     22  H6  BDI d          15.114  19.575  13.498  0.00  0.00     0.032 H 
ATOM     23  H7  BDI d          14.581  17.860  13.524  0.00  0.00     0.032 H 
BRANCH  21  24
ATOM     24  C9  BDI d          16.601  18.184  14.236  0.00  0.00    -0.077 C 
ATOM     25  H8  BDI d          17.225  18.685  13.481  0.00  0.00     0.027 H 
ATOM     26  H9  BDI d          16.666  17.094  14.100  0.00  0.00     0.027 H 
ATOM     27  H10 BDI d          16.959  18.450  15.242  0.00  0.00     0.027 H 
ENDBRANCH  21  24
ENDBRANCH  18  21
ENDBRANCH  15  18
ENDBRANCH   2  15
TORSDOF 4
ENDMDL
