MODEL 1
REMARK VINA RESULT:      -5.4      0.000      0.000
REMARK  9 active torsions:
REMARK  status: ('A' for Active; 'I' for Inactive)
REMARK    1  A    between atoms: C1_1  and  C2_3 
REMARK    2  A    between atoms: C2_3  and  C3_4 
REMARK    3  A    between atoms: C3_4  and  C4_5 
REMARK    4  A    between atoms: C4_5  and  C5_6 
REMARK    5  A    between atoms: C5_6  and  C6_7 
REMARK    6  A    between atoms: C6_7  and  C7_8 
REMARK    7  A    between atoms: C7_8  and  C8_9 
REMARK    8  A    between atoms: C8_9  and  C9_10 
REMARK    9  A    between atoms: C9_10  and  C10_11 
ROOT
ATOM      1  C6  DKA d           1.559  -1.294  24.251  0.00  0.00    -0.065 C 
ATOM      2  H9  DKA d           0.991  -0.925  25.118  0.00  0.00     0.033 H 
ATOM      3  H10 DKA d           2.637  -1.191  24.448  0.00  0.00     0.033 H 
ENDROOT
BRANCH   1   4
ATOM      4  C5  DKA d           1.194  -0.458  23.024  0.00  0.00    -0.065 C 
ATOM      5  H7  DKA d           0.114  -0.553  22.840  0.00  0.00     0.033 H 
ATOM      6  H8  DKA d           1.440   0.595  23.228  0.00  0.00     0.033 H 
BRANCH   4   7
ATOM      7  C4  DKA d           1.944  -0.904  21.780  0.00  0.00    -0.065 C 
ATOM      8  H5  DKA d           2.386  -1.894  21.965  0.00  0.00     0.033 H 
ATOM      9  H6  DKA d           1.237  -0.970  20.941  0.00  0.00     0.033 H 
BRANCH   7  10
ATOM     10  C3  DKA d           3.056   0.075  21.415  0.00  0.00    -0.056 C 
ATOM     11  H3  DKA d           3.915  -0.119  22.075  0.00  0.00     0.033 H 
ATOM     12  H4  DKA d           3.348  -0.111  20.370  0.00  0.00     0.033 H 
BRANCH  10  13
ATOM     13  C2  DKA d           2.671   1.558  21.550  0.00  0.00     0.016 C 
ATOM     14  H1  DKA d           2.716   2.033  20.558  0.00  0.00     0.049 H 
ATOM     15  H2  DKA d           1.647   1.630  21.944  0.00  0.00     0.049 H 
BRANCH  13  16
ATOM     16  C1  DKA d           3.620   2.283  22.492  0.00  0.00     0.172 C 
ATOM     17  O1  DKA d           3.521   2.207  23.716  0.00  0.00    -0.648 OA
ATOM     18  O2  DKA d           4.611   3.059  22.041  0.00  0.00    -0.648 OA
ENDBRANCH  13  16
ENDBRANCH  10  13
ENDBRANCH   7  10
ENDBRANCH   4   7
ENDBRANCH   1   4
BRANCH   1  19
ATOM     19  C7  DKA d           1.234  -2.758  24.035  0.00  0.00    -0.065 C 
ATOM     20  H11 DKA d           2.139  -3.352  24.233  0.00  0.00     0.033 H 
ATOM     21  H12 DKA d           0.923  -2.899  22.990  0.00  0.00     0.033 H 
BRANCH  19  22
ATOM     22  C8  DKA d           0.116  -3.252  24.950  0.00  0.00    -0.065 C 
ATOM     23  H13 DKA d           0.403  -4.224  25.378  0.00  0.00     0.033 H 
ATOM     24  H14 DKA d          -0.806  -3.367  24.363  0.00  0.00     0.033 H 
BRANCH  22  25
ATOM     25  C9  DKA d          -0.132  -2.262  26.080  0.00  0.00    -0.069 C 
ATOM     26  H15 DKA d          -1.159  -1.879  25.997  0.00  0.00     0.032 H 
ATOM     27  H16 DKA d           0.580  -1.428  25.985  0.00  0.00     0.032 H 
BRANCH  25  28
ATOM     28  C10 DKA d           0.044  -2.902  27.437  0.00  0.00    -0.077 C 
ATOM     29  H17 DKA d           0.892  -2.432  27.956  0.00  0.00     0.027 H 
ATOM     30  H18 DKA d           0.239  -3.977  27.314  0.00  0.00     0.027 H 
ATOM     31  H19 DKA d          -0.872  -2.761  28.030  0.00  0.00     0.027 H 
ENDBRANCH  25  28
ENDBRANCH  22  25
ENDBRANCH  19  22
ENDBRANCH   1  19
TORSDOF 9
ENDMDL
MODEL 2
REMARK VINA RESULT:      -5.2      3.399      6.195
REMARK  9 active torsions:
REMARK  status: ('A' for Active; 'I' for Inactive)
REMARK    1  A    between atoms: C1_1  and  C2_3 
REMARK    2  A    between atoms: C2_3  and  C3_4 
REMARK    3  A    between atoms: C3_4  and  C4_5 
REMARK    4  A    between atoms: C4_5  and  C5_6 
REMARK    5  A    between atoms: C5_6  and  C6_7 
REMARK    6  A    between atoms: C6_7  and  C7_8 
REMARK    7  A    between atoms: C7_8  and  C8_9 
REMARK    8  A    between atoms: C8_9  and  C9_10 
REMARK    9  A    between atoms: C9_10  and  C10_11 
ROOT
ATOM      1  C6  DKA d           1.551   0.348  22.401  0.00  0.00    -0.065 C 
ATOM      2  H9  DKA d           1.307   0.515  23.461  0.00  0.00     0.033 H 
ATOM      3  H10 DKA d           0.628   0.385  21.803  0.00  0.00     0.033 H 
ENDROOT
BRANCH   1   4
ATOM      4  C5  DKA d           2.189  -1.032  22.247  0.00  0.00    -0.065 C 
ATOM      5  H7  DKA d           2.073  -1.362  21.204  0.00  0.00     0.033 H 
ATOM      6  H8  DKA d           3.260  -0.956  22.490  0.00  0.00     0.033 H 
BRANCH   4   7
ATOM      7  C4  DKA d           1.552  -2.066  23.161  0.00  0.00    -0.065 C 
ATOM      8  H5  DKA d           0.598  -2.391  22.722  0.00  0.00     0.033 H 
ATOM      9  H6  DKA d           2.227  -2.929  23.249  0.00  0.00     0.033 H 
BRANCH   7  10
ATOM     10  C3  DKA d           1.289  -1.498  24.553  0.00  0.00    -0.056 C 
ATOM     11  H3  DKA d           2.165  -1.713  25.183  0.00  0.00     0.033 H 
ATOM     12  H4  DKA d           1.162  -0.409  24.461  0.00  0.00     0.033 H 
BRANCH  10  13
ATOM     13  C2  DKA d           0.043  -2.070  25.251  0.00  0.00     0.016 C 
ATOM     14  H1  DKA d          -0.536  -1.243  25.688  0.00  0.00     0.049 H 
ATOM     15  H2  DKA d          -0.575  -2.598  24.510  0.00  0.00     0.049 H 
BRANCH  13  16
ATOM     16  C1  DKA d           0.436  -3.041  26.355  0.00  0.00     0.172 C 
ATOM     17  O1  DKA d           0.483  -2.711  27.539  0.00  0.00    -0.648 OA
ATOM     18  O2  DKA d           0.767  -4.311  26.096  0.00  0.00    -0.648 OA
ENDBRANCH  13  16
ENDBRANCH  10  13
ENDBRANCH   7  10
ENDBRANCH   4   7
ENDBRANCH   1   4
BRANCH   1  19
ATOM     19  C7  DKA d           2.487   1.443  21.933  0.00  0.00    -0.065 C 
ATOM     20  H11 DKA d           1.952   2.081  21.215  0.00  0.00     0.033 H 
ATOM     21  H12 DKA d           3.353   0.978  21.437  0.00  0.00     0.033 H 
BRANCH  19  22
ATOM     22  C8  DKA d           2.991   2.314  23.080  0.00  0.00    -0.065 C 
ATOM     23  H13 DKA d           3.979   1.951  23.403  0.00  0.00     0.033 H 
ATOM     24  H14 DKA d           2.285   2.250  23.920  0.00  0.00     0.033 H 
BRANCH  22  25
ATOM     25  C9  DKA d           3.113   3.767  22.641  0.00  0.00    -0.069 C 
ATOM     26  H15 DKA d           4.122   3.932  22.235  0.00  0.00     0.032 H 
ATOM     27  H16 DKA d           2.958   4.417  23.514  0.00  0.00     0.032 H 
BRANCH  25  28
ATOM     28  C10 DKA d           2.096   4.122  21.581  0.00  0.00    -0.077 C 
ATOM     29  H17 DKA d           1.085   4.054  22.008  0.00  0.00     0.027 H 
ATOM     30  H18 DKA d           2.186   3.422  20.737  0.00  0.00     0.027 H 
ATOM     31  H19 DKA d           2.278   5.147  21.228  0.00  0.00     0.027 H 
ENDBRANCH  25  28
ENDBRANCH  22  25
ENDBRANCH  19  22
ENDBRANCH   1  19
TORSDOF 9
ENDMDL
MODEL 3
REMARK VINA RESULT:      -5.2      1.583      2.004
REMARK  9 active torsions:
REMARK  status: ('A' for Active; 'I' for Inactive)
REMARK    1  A    between atoms: C1_1  and  C2_3 
REMARK    2  A    between atoms: C2_3  and  C3_4 
REMARK    3  A    between atoms: C3_4  and  C4_5 
REMARK    4  A    between atoms: C4_5  and  C5_6 
REMARK    5  A    between atoms: C5_6  and  C6_7 
REMARK    6  A    between atoms: C6_7  and  C7_8 
REMARK    7  A    between atoms: C7_8  and  C8_9 
REMARK    8  A    between atoms: C8_9  and  C9_10 
REMARK    9  A    between atoms: C9_10  and  C10_11 
ROOT
ATOM      1  C6  DKA d           1.061  -1.233  23.865  0.00  0.00    -0.065 C 
ATOM      2  H9  DKA d          -0.003  -1.034  24.058  0.00  0.00     0.033 H 
ATOM      3  H10 DKA d           1.671  -0.752  24.644  0.00  0.00     0.033 H 
ENDROOT
BRANCH   1   4
ATOM      4  C5  DKA d           1.439  -0.649  22.504  0.00  0.00    -0.065 C 
ATOM      5  H7  DKA d           2.517  -0.801  22.340  0.00  0.00     0.033 H 
ATOM      6  H8  DKA d           0.871  -1.175  21.723  0.00  0.00     0.033 H 
BRANCH   4   7
ATOM      7  C4  DKA d           1.136   0.838  22.412  0.00  0.00    -0.065 C 
ATOM      8  H5  DKA d           0.512   1.021  21.525  0.00  0.00     0.033 H 
ATOM      9  H6  DKA d           0.589   1.147  23.314  0.00  0.00     0.033 H 
BRANCH   7  10
ATOM     10  C3  DKA d           2.413   1.665  22.298  0.00  0.00    -0.056 C 
ATOM     11  H3  DKA d           2.209   2.525  21.643  0.00  0.00     0.033 H 
ATOM     12  H4  DKA d           2.680   2.024  23.303  0.00  0.00     0.033 H 
BRANCH  10  13
ATOM     13  C2  DKA d           3.620   0.900  21.725  0.00  0.00     0.016 C 
ATOM     14  H1  DKA d           4.528   1.203  22.267  0.00  0.00     0.049 H 
ATOM     15  H2  DKA d           3.457  -0.180  21.856  0.00  0.00     0.049 H 
BRANCH  13  16
ATOM     16  C1  DKA d           3.800   1.200  20.244  0.00  0.00     0.172 C 
ATOM     17  O1  DKA d           3.983   2.339  19.818  0.00  0.00    -0.648 OA
ATOM     18  O2  DKA d           3.755   0.238  19.316  0.00  0.00    -0.648 OA
ENDBRANCH  13  16
ENDBRANCH  10  13
ENDBRANCH   7  10
ENDBRANCH   4   7
ENDBRANCH   1   4
BRANCH   1  19
ATOM     19  C7  DKA d           1.299  -2.729  23.906  0.00  0.00    -0.065 C 
ATOM     20  H11 DKA d           2.326  -2.913  24.254  0.00  0.00     0.033 H 
ATOM     21  H12 DKA d           1.177  -3.133  22.890  0.00  0.00     0.033 H 
BRANCH  19  22
ATOM     22  C8  DKA d           0.330  -3.451  24.839  0.00  0.00    -0.065 C 
ATOM     23  H13 DKA d           0.889  -4.178  25.448  0.00  0.00     0.033 H 
ATOM     24  H14 DKA d          -0.424  -3.979  24.238  0.00  0.00     0.033 H 
BRANCH  22  25
ATOM     25  C9  DKA d          -0.369  -2.462  25.761  0.00  0.00    -0.069 C 
ATOM     26  H15 DKA d          -1.456  -2.598  25.670  0.00  0.00     0.032 H 
ATOM     27  H16 DKA d          -0.101  -1.439  25.454  0.00  0.00     0.032 H 
BRANCH  25  28
ATOM     28  C10 DKA d           0.030  -2.658  27.204  0.00  0.00    -0.077 C 
ATOM     29  H17 DKA d          -0.824  -2.422  27.856  0.00  0.00     0.027 H 
ATOM     30  H18 DKA d           0.871  -1.992  27.447  0.00  0.00     0.027 H 
ATOM     31  H19 DKA d           0.333  -3.703  27.362  0.00  0.00     0.027 H 
ENDBRANCH  25  28
ENDBRANCH  22  25
ENDBRANCH  19  22
ENDBRANCH   1  19
TORSDOF 9
ENDMDL
MODEL 4
REMARK VINA RESULT:      -4.7      3.398      6.353
REMARK  9 active torsions:
REMARK  status: ('A' for Active; 'I' for Inactive)
REMARK    1  A    between atoms: C1_1  and  C2_3 
REMARK    2  A    between atoms: C2_3  and  C3_4 
REMARK    3  A    between atoms: C3_4  and  C4_5 
REMARK    4  A    between atoms: C4_5  and  C5_6 
REMARK    5  A    between atoms: C5_6  and  C6_7 
REMARK    6  A    between atoms: C6_7  and  C7_8 
REMARK    7  A    between atoms: C7_8  and  C8_9 
REMARK    8  A    between atoms: C8_9  and  C9_10 
REMARK    9  A    between atoms: C9_10  and  C10_11 
ROOT
ATOM      1  C6  DKA d           1.974   1.115  22.198  0.00  0.00    -0.065 C 
ATOM      2  H9  DKA d           1.955   1.682  23.141  0.00  0.00     0.033 H 
ATOM      3  H10 DKA d           1.374   1.643  21.441  0.00  0.00     0.033 H 
ENDROOT
BRANCH   1   4
ATOM      4  C5  DKA d           1.370  -0.269  22.436  0.00  0.00    -0.065 C 
ATOM      5  H7  DKA d           0.281  -0.210  22.290  0.00  0.00     0.033 H 
ATOM      6  H8  DKA d           1.800  -0.972  21.707  0.00  0.00     0.033 H 
BRANCH   4   7
ATOM      7  C4  DKA d           1.648  -0.785  23.838  0.00  0.00    -0.065 C 
ATOM      8  H5  DKA d           2.733  -0.918  23.961  0.00  0.00     0.033 H 
ATOM      9  H6  DKA d           1.284  -0.049  24.568  0.00  0.00     0.033 H 
BRANCH   7  10
ATOM     10  C3  DKA d           0.954  -2.120  24.091  0.00  0.00    -0.056 C 
ATOM     11  H3  DKA d           0.403  -2.399  23.182  0.00  0.00     0.033 H 
ATOM     12  H4  DKA d           1.727  -2.876  24.297  0.00  0.00     0.033 H 
BRANCH  10  13
ATOM     13  C2  DKA d          -0.035  -2.112  25.270  0.00  0.00     0.016 C 
ATOM     14  H1  DKA d          -0.100  -1.093  25.678  0.00  0.00     0.049 H 
ATOM     15  H2  DKA d          -1.027  -2.426  24.910  0.00  0.00     0.049 H 
BRANCH  13  16
ATOM     16  C1  DKA d           0.419  -3.061  26.369  0.00  0.00     0.172 C 
ATOM     17  O1  DKA d           0.508  -2.715  27.545  0.00  0.00    -0.648 OA
ATOM     18  O2  DKA d           0.761  -4.328  26.113  0.00  0.00    -0.648 OA
ENDBRANCH  13  16
ENDBRANCH  10  13
ENDBRANCH   7  10
ENDBRANCH   4   7
ENDBRANCH   1   4
BRANCH   1  19
ATOM     19  C7  DKA d           3.405   1.015  21.712  0.00  0.00    -0.065 C 
ATOM     20  H11 DKA d           3.703  -0.044  21.710  0.00  0.00     0.033 H 
ATOM     21  H12 DKA d           4.052   1.578  22.402  0.00  0.00     0.033 H 
BRANCH  19  22
ATOM     22  C8  DKA d           3.587   1.576  20.304  0.00  0.00    -0.065 C 
ATOM     23  H13 DKA d           4.439   2.273  20.300  0.00  0.00     0.033 H 
ATOM     24  H14 DKA d           2.674   2.112  20.008  0.00  0.00     0.033 H 
BRANCH  22  25
ATOM     25  C9  DKA d           3.854   0.456  19.308  0.00  0.00    -0.069 C 
ATOM     26  H15 DKA d           4.531   0.830  18.526  0.00  0.00     0.032 H 
ATOM     27  H16 DKA d           2.901   0.150  18.852  0.00  0.00     0.032 H 
BRANCH  25  28
ATOM     28  C10 DKA d           4.488  -0.746  19.968  0.00  0.00    -0.077 C 
ATOM     29  H17 DKA d           5.578  -0.707  19.830  0.00  0.00     0.027 H 
ATOM     30  H18 DKA d           4.092  -1.665  19.513  0.00  0.00     0.027 H 
ATOM     31  H19 DKA d           4.254  -0.739  21.043  0.00  0.00     0.027 H 
ENDBRANCH  25  28
ENDBRANCH  22  25
ENDBRANCH  19  22
ENDBRANCH   1  19
TORSDOF 9
ENDMDL
MODEL 5
REMARK VINA RESULT:      -4.3      1.551      2.280
REMARK  9 active torsions:
REMARK  status: ('A' for Active; 'I' for Inactive)
REMARK    1  A    between atoms: C1_1  and  C2_3 
REMARK    2  A    between atoms: C2_3  and  C3_4 
REMARK    3  A    between atoms: C3_4  and  C4_5 
REMARK    4  A    between atoms: C4_5  and  C5_6 
REMARK    5  A    between atoms: C5_6  and  C6_7 
REMARK    6  A    between atoms: C6_7  and  C7_8 
REMARK    7  A    between atoms: C7_8  and  C8_9 
REMARK    8  A    between atoms: C8_9  and  C9_10 
REMARK    9  A    between atoms: C9_10  and  C10_11 
ROOT
ATOM      1  C6  DKA d           1.939  -1.309  22.108  0.00  0.00    -0.065 C 
ATOM      2  H9  DKA d           1.564  -2.343  22.094  0.00  0.00     0.033 H 
ATOM      3  H10 DKA d           1.415  -0.718  21.342  0.00  0.00     0.033 H 
ENDROOT
BRANCH   1   4
ATOM      4  C5  DKA d           3.436  -1.317  21.794  0.00  0.00    -0.065 C 
ATOM      5  H7  DKA d           3.979  -1.705  22.668  0.00  0.00     0.033 H 
ATOM      6  H8  DKA d           3.612  -1.975  20.930  0.00  0.00     0.033 H 
BRANCH   4   7
ATOM      7  C4  DKA d           3.963   0.071  21.468  0.00  0.00    -0.065 C 
ATOM      8  H5  DKA d           3.975   0.674  22.388  0.00  0.00     0.033 H 
ATOM      9  H6  DKA d           4.985  -0.019  21.074  0.00  0.00     0.033 H 
BRANCH   7  10
ATOM     10  C3  DKA d           3.091   0.772  20.429  0.00  0.00    -0.056 C 
ATOM     11  H3  DKA d           2.693   0.009  19.744  0.00  0.00     0.033 H 
ATOM     12  H4  DKA d           2.258   1.263  20.954  0.00  0.00     0.033 H 
BRANCH  10  13
ATOM     13  C2  DKA d           3.825   1.833  19.591  0.00  0.00     0.016 C 
ATOM     14  H1  DKA d           4.885   1.554  19.505  0.00  0.00     0.049 H 
ATOM     15  H2  DKA d           3.374   1.876  18.589  0.00  0.00     0.049 H 
BRANCH  13  16
ATOM     16  C1  DKA d           3.723   3.205  20.242  0.00  0.00     0.172 C 
ATOM     17  O1  DKA d           3.060   4.120  19.754  0.00  0.00    -0.648 OA
ATOM     18  O2  DKA d           4.362   3.500  21.378  0.00  0.00    -0.648 OA
ENDBRANCH  13  16
ENDBRANCH  10  13
ENDBRANCH   7  10
ENDBRANCH   4   7
ENDBRANCH   1   4
BRANCH   1  19
ATOM     19  C7  DKA d           1.667  -0.704  23.470  0.00  0.00    -0.065 C 
ATOM     20  H11 DKA d           1.284   0.318  23.332  0.00  0.00     0.033 H 
ATOM     21  H12 DKA d           2.610  -0.669  24.036  0.00  0.00     0.033 H 
BRANCH  19  22
ATOM     22  C8  DKA d           0.644  -1.504  24.273  0.00  0.00    -0.065 C 
ATOM     23  H13 DKA d           0.080  -2.157  23.590  0.00  0.00     0.033 H 
ATOM     24  H14 DKA d          -0.047  -0.809  24.771  0.00  0.00     0.033 H 
BRANCH  22  25
ATOM     25  C9  DKA d           1.336  -2.360  25.324  0.00  0.00    -0.069 C 
ATOM     26  H15 DKA d           2.262  -1.857  25.639  0.00  0.00     0.032 H 
ATOM     27  H16 DKA d           1.581  -3.337  24.882  0.00  0.00     0.032 H 
BRANCH  25  28
ATOM     28  C10 DKA d           0.462  -2.579  26.537  0.00  0.00    -0.077 C 
ATOM     29  H17 DKA d           0.640  -3.587  26.939  0.00  0.00     0.027 H 
ATOM     30  H18 DKA d          -0.595  -2.479  26.251  0.00  0.00     0.027 H 
ATOM     31  H19 DKA d           0.706  -1.829  27.304  0.00  0.00     0.027 H 
ENDBRANCH  25  28
ENDBRANCH  22  25
ENDBRANCH  19  22
ENDBRANCH   1  19
TORSDOF 9
ENDMDL
MODEL 6
REMARK VINA RESULT:      -4.0      2.999      6.060
REMARK  9 active torsions:
REMARK  status: ('A' for Active; 'I' for Inactive)
REMARK    1  A    between atoms: C1_1  and  C2_3 
REMARK    2  A    between atoms: C2_3  and  C3_4 
REMARK    3  A    between atoms: C3_4  and  C4_5 
REMARK    4  A    between atoms: C4_5  and  C5_6 
REMARK    5  A    between atoms: C5_6  and  C6_7 
REMARK    6  A    between atoms: C6_7  and  C7_8 
REMARK    7  A    between atoms: C7_8  and  C8_9 
REMARK    8  A    between atoms: C8_9  and  C9_10 
REMARK    9  A    between atoms: C9_10  and  C10_11 
ROOT
ATOM      1  C6  DKA d           3.691   0.989  22.366  0.00  0.00    -0.065 C 
ATOM      2  H9  DKA d           4.461   0.416  22.902  0.00  0.00     0.033 H 
ATOM      3  H10 DKA d           3.578   1.978  22.832  0.00  0.00     0.033 H 
ENDROOT
BRANCH   1   4
ATOM      4  C5  DKA d           2.360   0.240  22.455  0.00  0.00    -0.065 C 
ATOM      5  H7  DKA d           1.945   0.377  23.465  0.00  0.00     0.033 H 
ATOM      6  H8  DKA d           1.667   0.662  21.713  0.00  0.00     0.033 H 
BRANCH   4   7
ATOM      7  C4  DKA d           2.518  -1.248  22.189  0.00  0.00    -0.065 C 
ATOM      8  H5  DKA d           2.164  -1.468  21.171  0.00  0.00     0.033 H 
ATOM      9  H6  DKA d           3.581  -1.515  22.273  0.00  0.00     0.033 H 
BRANCH   7  10
ATOM     10  C3  DKA d           1.717  -2.083  23.183  0.00  0.00    -0.056 C 
ATOM     11  H3  DKA d           1.014  -2.712  22.617  0.00  0.00     0.033 H 
ATOM     12  H4  DKA d           2.419  -2.726  23.736  0.00  0.00     0.033 H 
BRANCH  10  13
ATOM     13  C2  DKA d           0.911  -1.261  24.204  0.00  0.00     0.016 C 
ATOM     14  H1  DKA d           1.501  -0.383  24.505  0.00  0.00     0.049 H 
ATOM     15  H2  DKA d          -0.029  -0.930  23.738  0.00  0.00     0.049 H 
BRANCH  13  16
ATOM     16  C1  DKA d           0.588  -2.092  25.438  0.00  0.00     0.172 C 
ATOM     17  O1  DKA d          -0.549  -2.489  25.688  0.00  0.00    -0.648 OA
ATOM     18  O2  DKA d           1.525  -2.425  26.332  0.00  0.00    -0.648 OA
ENDBRANCH  13  16
ENDBRANCH  10  13
ENDBRANCH   7  10
ENDBRANCH   4   7
ENDBRANCH   1   4
BRANCH   1  19
ATOM     19  C7  DKA d           4.124   1.169  20.925  0.00  0.00    -0.065 C 
ATOM     20  H11 DKA d           3.888   0.250  20.368  0.00  0.00     0.033 H 
ATOM     21  H12 DKA d           5.211   1.342  20.903  0.00  0.00     0.033 H 
BRANCH  19  22
ATOM     22  C8  DKA d           3.428   2.345  20.246  0.00  0.00    -0.065 C 
ATOM     23  H13 DKA d           2.369   2.093  20.084  0.00  0.00     0.033 H 
ATOM     24  H14 DKA d           3.910   2.540  19.277  0.00  0.00     0.033 H 
BRANCH  22  25
ATOM     25  C9  DKA d           3.517   3.595  21.109  0.00  0.00    -0.069 C 
ATOM     26  H15 DKA d           4.059   4.374  20.551  0.00  0.00     0.032 H 
ATOM     27  H16 DKA d           4.068   3.353  22.030  0.00  0.00     0.032 H 
BRANCH  25  28
ATOM     28  C10 DKA d           2.151   4.122  21.482  0.00  0.00    -0.077 C 
ATOM     29  H17 DKA d           2.253   5.123  21.925  0.00  0.00     0.027 H 
ATOM     30  H18 DKA d           1.683   3.444  22.210  0.00  0.00     0.027 H 
ATOM     31  H19 DKA d           1.523   4.182  20.581  0.00  0.00     0.027 H 
ENDBRANCH  25  28
ENDBRANCH  22  25
ENDBRANCH  19  22
ENDBRANCH   1  19
TORSDOF 9
ENDMDL
MODEL 7
REMARK VINA RESULT:      -3.9      2.533      4.448
REMARK  9 active torsions:
REMARK  status: ('A' for Active; 'I' for Inactive)
REMARK    1  A    between atoms: C1_1  and  C2_3 
REMARK    2  A    between atoms: C2_3  and  C3_4 
REMARK    3  A    between atoms: C3_4  and  C4_5 
REMARK    4  A    between atoms: C4_5  and  C5_6 
REMARK    5  A    between atoms: C5_6  and  C6_7 
REMARK    6  A    between atoms: C6_7  and  C7_8 
REMARK    7  A    between atoms: C7_8  and  C8_9 
REMARK    8  A    between atoms: C8_9  and  C9_10 
REMARK    9  A    between atoms: C9_10  and  C10_11 
ROOT
ATOM      1  C6  DKA d           2.168  -1.801  22.380  0.00  0.00    -0.065 C 
ATOM      2  H9  DKA d           1.489  -2.099  21.568  0.00  0.00     0.033 H 
ATOM      3  H10 DKA d           2.318  -2.650  23.063  0.00  0.00     0.033 H 
ENDROOT
BRANCH   1   4
ATOM      4  C5  DKA d           1.538  -0.643  23.156  0.00  0.00    -0.065 C 
ATOM      5  H7  DKA d           0.449  -0.792  23.191  0.00  0.00     0.033 H 
ATOM      6  H8  DKA d           1.942  -0.643  24.179  0.00  0.00     0.033 H 
BRANCH   4   7
ATOM      7  C4  DKA d           1.828   0.704  22.515  0.00  0.00    -0.065 C 
ATOM      8  H5  DKA d           2.241   0.539  21.509  0.00  0.00     0.033 H 
ATOM      9  H6  DKA d           0.890   1.272  22.437  0.00  0.00     0.033 H 
BRANCH   7  10
ATOM     10  C3  DKA d           2.830   1.512  23.335  0.00  0.00    -0.056 C 
ATOM     11  H3  DKA d           2.267   2.179  24.004  0.00  0.00     0.033 H 
ATOM     12  H4  DKA d           3.427   0.810  23.936  0.00  0.00     0.033 H 
BRANCH  10  13
ATOM     13  C2  DKA d           3.794   2.371  22.499  0.00  0.00     0.016 C 
ATOM     14  H1  DKA d           4.450   2.938  23.176  0.00  0.00     0.049 H 
ATOM     15  H2  DKA d           4.406   1.712  21.864  0.00  0.00     0.049 H 
BRANCH  13  16
ATOM     16  C1  DKA d           3.029   3.344  21.615  0.00  0.00     0.172 C 
ATOM     17  O1  DKA d           3.341   3.558  20.444  0.00  0.00    -0.648 OA
ATOM     18  O2  DKA d           1.978   4.036  22.067  0.00  0.00    -0.648 OA
ENDBRANCH  13  16
ENDBRANCH  10  13
ENDBRANCH   7  10
ENDBRANCH   4   7
ENDBRANCH   1   4
BRANCH   1  19
ATOM     19  C7  DKA d           3.503  -1.403  21.785  0.00  0.00    -0.065 C 
ATOM     20  H11 DKA d           4.302  -1.711  22.475  0.00  0.00     0.033 H 
ATOM     21  H12 DKA d           3.523  -0.309  21.665  0.00  0.00     0.033 H 
BRANCH  19  22
ATOM     22  C8  DKA d           3.755  -2.048  20.425  0.00  0.00    -0.065 C 
ATOM     23  H13 DKA d           3.049  -2.881  20.285  0.00  0.00     0.033 H 
ATOM     24  H14 DKA d           4.785  -2.431  20.392  0.00  0.00     0.033 H 
BRANCH  22  25
ATOM     25  C9  DKA d           3.562  -1.036  19.305  0.00  0.00    -0.069 C 
ATOM     26  H15 DKA d           2.492  -0.793  19.226  0.00  0.00     0.032 H 
ATOM     27  H16 DKA d           3.907  -1.482  18.360  0.00  0.00     0.032 H 
BRANCH  25  28
ATOM     28  C10 DKA d           4.336   0.236  19.556  0.00  0.00    -0.077 C 
ATOM     29  H17 DKA d           4.867   0.529  18.638  0.00  0.00     0.027 H 
ATOM     30  H18 DKA d           5.063   0.071  20.364  0.00  0.00     0.027 H 
ATOM     31  H19 DKA d           3.640   1.037  19.847  0.00  0.00     0.027 H 
ENDBRANCH  25  28
ENDBRANCH  22  25
ENDBRANCH  19  22
ENDBRANCH   1  19
TORSDOF 9
ENDMDL
MODEL 8
REMARK VINA RESULT:      -3.1      3.088      5.822
REMARK  9 active torsions:
REMARK  status: ('A' for Active; 'I' for Inactive)
REMARK    1  A    between atoms: C1_1  and  C2_3 
REMARK    2  A    between atoms: C2_3  and  C3_4 
REMARK    3  A    between atoms: C3_4  and  C4_5 
REMARK    4  A    between atoms: C4_5  and  C5_6 
REMARK    5  A    between atoms: C5_6  and  C6_7 
REMARK    6  A    between atoms: C6_7  and  C7_8 
REMARK    7  A    between atoms: C7_8  and  C8_9 
REMARK    8  A    between atoms: C8_9  and  C9_10 
REMARK    9  A    between atoms: C9_10  and  C10_11 
ROOT
ATOM      1  C6  DKA d           3.853   0.427  21.695  0.00  0.00    -0.065 C 
ATOM      2  H9  DKA d           4.170  -0.625  21.749  0.00  0.00     0.033 H 
ATOM      3  H10 DKA d           4.504   1.040  22.337  0.00  0.00     0.033 H 
ENDROOT
BRANCH   1   4
ATOM      4  C5  DKA d           2.412   0.540  22.193  0.00  0.00    -0.065 C 
ATOM      5  H7  DKA d           2.416   0.521  23.293  0.00  0.00     0.033 H 
ATOM      6  H8  DKA d           1.991   1.495  21.844  0.00  0.00     0.033 H 
BRANCH   4   7
ATOM      7  C4  DKA d           1.538  -0.595  21.687  0.00  0.00    -0.065 C 
ATOM      8  H5  DKA d           0.647  -0.171  21.202  0.00  0.00     0.033 H 
ATOM      9  H6  DKA d           2.107  -1.186  20.956  0.00  0.00     0.033 H 
BRANCH   7  10
ATOM     10  C3  DKA d           1.093  -1.510  22.825  0.00  0.00    -0.056 C 
ATOM     11  H3  DKA d           0.003  -1.414  22.937  0.00  0.00     0.033 H 
ATOM     12  H4  DKA d           1.344  -2.545  22.551  0.00  0.00     0.033 H 
BRANCH  10  13
ATOM     13  C2  DKA d           1.745  -1.201  24.185  0.00  0.00     0.016 C 
ATOM     14  H1  DKA d           2.834  -1.327  24.098  0.00  0.00     0.049 H 
ATOM     15  H2  DKA d           1.517  -0.161  24.465  0.00  0.00     0.049 H 
BRANCH  13  16
ATOM     16  C1  DKA d           1.219  -2.134  25.265  0.00  0.00     0.172 C 
ATOM     17  O1  DKA d           1.865  -3.095  25.680  0.00  0.00    -0.648 OA
ATOM     18  O2  DKA d           0.012  -1.970  25.817  0.00  0.00    -0.648 OA
ENDBRANCH  13  16
ENDBRANCH  10  13
ENDBRANCH   7  10
ENDBRANCH   4   7
ENDBRANCH   1   4
BRANCH   1  19
ATOM     19  C7  DKA d           3.979   0.908  20.263  0.00  0.00    -0.065 C 
ATOM     20  H11 DKA d           4.728   1.712  20.226  0.00  0.00     0.033 H 
ATOM     21  H12 DKA d           3.004   1.298  19.935  0.00  0.00     0.033 H 
BRANCH  19  22
ATOM     22  C8  DKA d           4.407  -0.203  19.308  0.00  0.00    -0.065 C 
ATOM     23  H13 DKA d           5.495  -0.351  19.389  0.00  0.00     0.033 H 
ATOM     24  H14 DKA d           4.153   0.088  18.278  0.00  0.00     0.033 H 
BRANCH  22  25
ATOM     25  C9  DKA d           3.699  -1.508  19.646  0.00  0.00    -0.069 C 
ATOM     26  H15 DKA d           2.804  -1.600  19.015  0.00  0.00     0.032 H 
ATOM     27  H16 DKA d           3.400  -1.486  20.705  0.00  0.00     0.032 H 
BRANCH  25  28
ATOM     28  C10 DKA d           4.587  -2.707  19.415  0.00  0.00    -0.077 C 
ATOM     29  H17 DKA d           4.108  -3.604  19.833  0.00  0.00     0.027 H 
ATOM     30  H18 DKA d           5.558  -2.546  19.908  0.00  0.00     0.027 H 
ATOM     31  H19 DKA d           4.743  -2.845  18.335  0.00  0.00     0.027 H 
ENDBRANCH  25  28
ENDBRANCH  22  25
ENDBRANCH  19  22
ENDBRANCH   1  19
TORSDOF 9
ENDMDL
