MODEL 1
REMARK VINA RESULT:     -11.5      0.000      0.000
REMARK  20 active torsions:
REMARK  status: ('A' for Active; 'I' for Inactive)
REMARK    1  A    between atoms: C1_1  and  C23_23 
REMARK    2  A    between atoms: C1_1  and  C2_2 
REMARK    3  A    between atoms: C2_2  and  C18_18 
REMARK    4  A    between atoms: C2_2  and  C3_3 
REMARK    5  A    between atoms: C21_21  and  C4_4 
REMARK    6  A    between atoms: C13_13  and  C5_5 
REMARK    7  A    between atoms: C18_18  and  C7_7 
REMARK    8  A    between atoms: C7_7  and  C16_16 
REMARK    9  A    between atoms: C7_7  and  C8_8 
REMARK   10  A    between atoms: C8_8  and  C9_9 
REMARK   11  A    between atoms: C9_9  and  C10_10 
REMARK       I    between atoms: C16_16  and  N18_45 
REMARK   12  A    between atoms: N18_45  and  C19_19 
REMARK   13  A    between atoms: C19_19  and  C27_27 
REMARK   14  A    between atoms: C19_19  and  C20_20 
REMARK   15  A    between atoms: C20_20  and  C21_21 
REMARK   16  A    between atoms: C21_21  and  C22_22 
REMARK   17  A    between atoms: C23_23  and  C24_24 
REMARK   18  A    between atoms: C24_24  and  C25_25 
REMARK   19  A    between atoms: C25_25  and  N1_44 
REMARK       I    between atoms: C27_27  and  N29_46 
REMARK   20  A    between atoms: N29_46  and  C30_30 
ROOT
ATOM      1  C7  L04 d          35.118  37.605  23.591  0.00  0.00     0.025 C 
ATOM      2  H8  L04 d          35.492  37.518  24.622  0.00  0.00     0.054 H 
ENDROOT
BRANCH   1   3
ATOM      3  C18 L04 d          34.233  38.847  23.496  0.00  0.00    -0.041 C 
ATOM      4  H18 L04 d          34.067  39.058  22.430  0.00  0.00     0.035 H 
ATOM      5  H19 L04 d          33.272  38.610  23.977  0.00  0.00     0.035 H 
BRANCH   3   6
ATOM      6  C2  L04 d          34.776  40.122  24.144  0.00  0.00     0.031 C 
ATOM      7  H3  L04 d          35.622  39.827  24.782  0.00  0.00     0.056 H 
BRANCH   6   8
ATOM      8  C1  L04 d          33.757  40.822  25.056  0.00  0.00    -0.052 C 
ATOM      9  H1  L04 d          33.639  40.219  25.967  0.00  0.00     0.034 H 
ATOM     10  H2  L04 d          34.156  41.813  25.320  0.00  0.00     0.034 H 
BRANCH   8  11
ATOM     11  C23 L04 d          32.386  41.013  24.430  0.00  0.00    -0.063 C 
ATOM     12  H27 L04 d          32.473  40.917  23.338  0.00  0.00     0.033 H 
ATOM     13  H28 L04 d          32.013  42.016  24.682  0.00  0.00     0.033 H 
BRANCH  11  14
ATOM     14  C24 L04 d          31.397  39.974  24.941  0.00  0.00    -0.050 C 
ATOM     15  H29 L04 d          31.723  39.629  25.934  0.00  0.00     0.035 H 
ATOM     16  H30 L04 d          31.382  39.123  24.244  0.00  0.00     0.035 H 
BRANCH  14  17
ATOM     17  C25 L04 d          29.990  40.542  25.054  0.00  0.00    -0.002 C 
ATOM     18  H31 L04 d          30.063  41.632  25.186  0.00  0.00     0.064 H 
ATOM     19  H32 L04 d          29.503  40.099  25.935  0.00  0.00     0.064 H 
BRANCH  17  20
ATOM     20  N1  L04 d          29.162  40.271  23.880  0.00  0.00    -0.344 N 
ATOM     21  C28 L04 d          29.440  40.603  22.478  0.00  0.00     0.023 A 
ATOM     22  C36 L04 d          28.240  39.989  21.758  0.00  0.00    -0.025 A 
ATOM     23  H33 L04 d          30.383  40.149  22.139  0.00  0.00     0.071 H 
ATOM     24  H34 L04 d          29.481  41.692  22.326  0.00  0.00     0.071 H 
ATOM     25  C29 L04 d          27.365  39.426  22.722  0.00  0.00     0.040 A 
ATOM     26  C38 L04 d          27.929  39.889  20.397  0.00  0.00    -0.074 A 
ATOM     27  C26 L04 d          27.969  39.649  24.042  0.00  0.00     0.254 A 
ATOM     28  C37 L04 d          26.196  38.774  22.304  0.00  0.00    -0.067 A 
ATOM     29  O1  L04 d          27.489  39.290  25.120  0.00  0.00    -0.267 OA
ATOM     30  C40 L04 d          25.910  38.685  20.950  0.00  0.00    -0.082 A 
ATOM     31  H40 L04 d          25.521  38.342  23.034  0.00  0.00     0.085 H 
ATOM     32  C39 L04 d          26.763  39.236  20.009  0.00  0.00    -0.082 A 
ATOM     33  H43 L04 d          25.009  38.178  20.626  0.00  0.00     0.083 H 
ATOM     34  H42 L04 d          26.519  39.157  18.956  0.00  0.00     0.083 H 
ATOM     35  H41 L04 d          28.589  40.317  19.652  0.00  0.00     0.084 H 
ENDBRANCH  17  20
ENDBRANCH  14  17
ENDBRANCH  11  14
ENDBRANCH   8  11
ENDBRANCH   6   8
BRANCH   6  36
ATOM     36  C3  L04 d          35.321  41.064  23.064  0.00  0.00     0.177 C 
ATOM     37  O5  L04 d          36.511  41.471  23.032  0.00  0.00    -0.648 OA
ATOM     38  O4  L04 d          34.523  41.465  22.213  0.00  0.00    -0.648 OA
ENDBRANCH   6  36
ENDBRANCH   3   6
ENDBRANCH   1   3
BRANCH   1  39
ATOM     39  C16 L04 d          36.301  37.718  22.640  0.00  0.00     0.222 C 
ATOM     40  O17 L04 d          36.129  37.815  21.422  0.00  0.00    -0.273 OA
ATOM     41  N18 L04 d          37.504  37.703  23.205  0.00  0.00    -0.347 N 
ATOM     42  H46 L04 d          37.577  37.645  24.201  0.00  0.00     0.163 HD
BRANCH  41  43
ATOM     43  C19 L04 d          38.715  37.768  22.402  0.00  0.00     0.090 C 
ATOM     44  H20 L04 d          38.449  37.849  21.337  0.00  0.00     0.087 H 
BRANCH  43  45
ATOM     45  C27 L04 d          39.494  36.480  22.645  0.00  0.00     0.245 C 
ATOM     46  O28 L04 d          39.027  35.600  23.373  0.00  0.00    -0.271 OA
ATOM     47  N29 L04 d          40.639  36.356  21.973  0.00  0.00    -0.325 N 
ATOM     48  H47 L04 d          40.873  37.117  21.367  0.00  0.00     0.169 HD
BRANCH  47  49
ATOM     49  C30 L04 d          41.545  35.314  22.004  0.00  0.00     0.034 A 
ATOM     50  C35 L04 d          41.331  34.083  21.386  0.00  0.00    -0.057 A 
ATOM     51  C34 L04 d          42.282  33.069  21.463  0.00  0.00    -0.081 A 
ATOM     52  H39 L04 d          40.411  33.912  20.838  0.00  0.00     0.086 H 
ATOM     53  C33 L04 d          43.469  33.282  22.165  0.00  0.00    -0.083 A 
ATOM     54  H38 L04 d          42.101  32.116  20.979  0.00  0.00     0.083 H 
ATOM     55  C32 L04 d          43.693  34.506  22.786  0.00  0.00    -0.081 A 
ATOM     56  H37 L04 d          44.213  32.496  22.226  0.00  0.00     0.083 H 
ATOM     57  C31 L04 d          42.736  35.512  22.702  0.00  0.00    -0.057 A 
ATOM     58  H36 L04 d          44.612  34.675  23.335  0.00  0.00     0.083 H 
ATOM     59  H35 L04 d          42.918  36.465  23.186  0.00  0.00     0.086 H 
ENDBRANCH  47  49
ENDBRANCH  43  45
BRANCH  43  60
ATOM     60  C20 L04 d          39.571  38.973  22.798  0.00  0.00    -0.035 C 
ATOM     61  H21 L04 d          40.489  38.582  23.260  0.00  0.00     0.037 H 
ATOM     62  H22 L04 d          38.999  39.546  23.544  0.00  0.00     0.037 H 
BRANCH  60  63
ATOM     63  C21 L04 d          39.997  39.955  21.703  0.00  0.00    -0.059 C 
ATOM     64  H23 L04 d          39.585  40.949  21.931  0.00  0.00     0.038 H 
BRANCH  63  65
ATOM     65  C4  L04 d          41.514  40.033  21.698  0.00  0.00    -0.073 C 
ATOM     66  H4  L04 d          41.902  39.710  22.675  0.00  0.00     0.028 H 
ATOM     67  H5  L04 d          41.827  41.069  21.502  0.00  0.00     0.028 H 
ATOM     68  H6  L04 d          41.912  39.374  20.911  0.00  0.00     0.028 H 
ENDBRANCH  63  65
BRANCH  63  69
ATOM     69  C22 L04 d          39.473  39.510  20.338  0.00  0.00    -0.073 C 
ATOM     70  H24 L04 d          40.304  39.482  19.618  0.00  0.00     0.028 H 
ATOM     71  H25 L04 d          38.709  40.220  19.989  0.00  0.00     0.028 H 
ATOM     72  H26 L04 d          39.029  38.507  20.425  0.00  0.00     0.028 H 
ENDBRANCH  63  69
ENDBRANCH  60  63
ENDBRANCH  43  60
ENDBRANCH  41  43
ENDBRANCH   1  39
BRANCH   1  73
ATOM     73  C8  L04 d          34.332  36.339  23.237  0.00  0.00    -0.050 C 
ATOM     74  H9  L04 d          33.822  36.506  22.277  0.00  0.00     0.034 H 
ATOM     75  H10 L04 d          33.584  36.165  24.025  0.00  0.00     0.034 H 
BRANCH  73  76
ATOM     76  C9  L04 d          35.184  35.104  23.112  0.00  0.00    -0.040 C 
ATOM     77  H11 L04 d          36.081  35.366  22.533  0.00  0.00     0.040 H 
ATOM     78  H12 L04 d          34.605  34.344  22.567  0.00  0.00     0.040 H 
BRANCH  76  79
ATOM     79  C10 L04 d          35.626  34.510  24.413  0.00  0.00    -0.058 A 
ATOM     80  C15 L04 d          35.663  33.131  24.584  0.00  0.00    -0.076 A 
ATOM     81  C14 L04 d          36.104  32.574  25.776  0.00  0.00    -0.072 A 
ATOM     82  H16 L04 d          35.344  32.483  23.776  0.00  0.00     0.084 H 
ATOM     83  C13 L04 d          36.513  33.391  26.823  0.00  0.00    -0.026 A 
ATOM     84  H15 L04 d          36.130  31.497  25.891  0.00  0.00     0.084 H 
ATOM     85  C12 L04 d          36.471  34.771  26.650  0.00  0.00    -0.072 A 
ATOM     86  C11 L04 d          36.032  35.324  25.462  0.00  0.00    -0.076 A 
ATOM     87  H14 L04 d          36.786  35.422  27.459  0.00  0.00     0.084 H 
ATOM     88  H13 L04 d          36.005  36.402  25.347  0.00  0.00     0.084 H 
BRANCH  83  89
ATOM     89  C5  L04 d          36.985  32.817  28.093  0.00  0.00    -0.026 A 
ATOM     90  C43 L04 d          37.584  33.626  29.052  0.00  0.00    -0.069 A 
ATOM     91  C42 L04 d          38.039  33.086  30.247  0.00  0.00    -0.045 A 
ATOM     92  H45 L04 d          37.698  34.688  28.864  0.00  0.00     0.085 H 
ATOM     93  C41 L04 d          37.905  31.730  30.507  0.00  0.00     0.116 A 
ATOM     94  H44 L04 d          38.503  33.731  30.984  0.00  0.00     0.088 H 
ATOM     95  C17 L04 d          37.294  30.920  29.561  0.00  0.00    -0.045 A 
ATOM     96  F1  L04 d          38.366  31.215  31.666  0.00  0.00    -0.206 F 
ATOM     97  C6  L04 d          36.844  31.459  28.360  0.00  0.00    -0.069 A 
ATOM     98  H17 L04 d          37.166  29.862  29.759  0.00  0.00     0.088 H 
ATOM     99  H7  L04 d          36.379  30.814  27.623  0.00  0.00     0.085 H 
ENDBRANCH  83  89
ENDBRANCH  76  79
ENDBRANCH  73  76
ENDBRANCH   1  73
TORSDOF 20
ENDMDL
MODEL 2
REMARK VINA RESULT:     -11.4      3.858     11.515
REMARK  20 active torsions:
REMARK  status: ('A' for Active; 'I' for Inactive)
REMARK    1  A    between atoms: C1_1  and  C23_23 
REMARK    2  A    between atoms: C1_1  and  C2_2 
REMARK    3  A    between atoms: C2_2  and  C18_18 
REMARK    4  A    between atoms: C2_2  and  C3_3 
REMARK    5  A    between atoms: C21_21  and  C4_4 
REMARK    6  A    between atoms: C13_13  and  C5_5 
REMARK    7  A    between atoms: C18_18  and  C7_7 
REMARK    8  A    between atoms: C7_7  and  C16_16 
REMARK    9  A    between atoms: C7_7  and  C8_8 
REMARK   10  A    between atoms: C8_8  and  C9_9 
REMARK   11  A    between atoms: C9_9  and  C10_10 
REMARK       I    between atoms: C16_16  and  N18_45 
REMARK   12  A    between atoms: N18_45  and  C19_19 
REMARK   13  A    between atoms: C19_19  and  C27_27 
REMARK   14  A    between atoms: C19_19  and  C20_20 
REMARK   15  A    between atoms: C20_20  and  C21_21 
REMARK   16  A    between atoms: C21_21  and  C22_22 
REMARK   17  A    between atoms: C23_23  and  C24_24 
REMARK   18  A    between atoms: C24_24  and  C25_25 
REMARK   19  A    between atoms: C25_25  and  N1_44 
REMARK       I    between atoms: C27_27  and  N29_46 
REMARK   20  A    between atoms: N29_46  and  C30_30 
ROOT
ATOM      1  C7  L04 d          33.976  38.589  24.513  0.00  0.00     0.025 C 
ATOM      2  H8  L04 d          34.634  38.335  25.357  0.00  0.00     0.054 H 
ENDROOT
BRANCH   1   3
ATOM      3  C18 L04 d          34.242  37.606  23.373  0.00  0.00    -0.041 C 
ATOM      4  H18 L04 d          33.307  37.488  22.808  0.00  0.00     0.035 H 
ATOM      5  H19 L04 d          35.010  38.050  22.722  0.00  0.00     0.035 H 
BRANCH   3   6
ATOM      6  C2  L04 d          34.723  36.211  23.775  0.00  0.00     0.031 C 
ATOM      7  H3  L04 d          34.349  36.018  24.791  0.00  0.00     0.056 H 
BRANCH   6   8
ATOM      8  C1  L04 d          36.253  36.089  23.837  0.00  0.00    -0.052 C 
ATOM      9  H1  L04 d          36.584  35.479  22.984  0.00  0.00     0.034 H 
ATOM     10  H2  L04 d          36.683  37.099  23.754  0.00  0.00     0.034 H 
BRANCH   8  11
ATOM     11  C23 L04 d          36.779  35.452  25.112  0.00  0.00    -0.063 C 
ATOM     12  H27 L04 d          36.343  35.971  25.979  0.00  0.00     0.033 H 
ATOM     13  H28 L04 d          37.874  35.551  25.137  0.00  0.00     0.033 H 
BRANCH  11  14
ATOM     14  C24 L04 d          36.413  33.975  25.182  0.00  0.00    -0.050 C 
ATOM     15  H29 L04 d          37.338  33.380  25.208  0.00  0.00     0.035 H 
ATOM     16  H30 L04 d          35.830  33.710  24.288  0.00  0.00     0.035 H 
BRANCH  14  17
ATOM     17  C25 L04 d          35.588  33.658  26.421  0.00  0.00    -0.002 C 
ATOM     18  H31 L04 d          34.749  33.010  26.126  0.00  0.00     0.064 H 
ATOM     19  H32 L04 d          35.197  34.600  26.833  0.00  0.00     0.064 H 
BRANCH  17  20
ATOM     20  N1  L04 d          36.354  32.977  27.465  0.00  0.00    -0.344 N 
ATOM     21  C28 L04 d          36.446  31.536  27.729  0.00  0.00     0.023 A 
ATOM     22  C36 L04 d          37.447  31.485  28.881  0.00  0.00    -0.025 A 
ATOM     23  H33 L04 d          36.821  30.992  26.850  0.00  0.00     0.071 H 
ATOM     24  H34 L04 d          35.472  31.122  28.029  0.00  0.00     0.071 H 
ATOM     25  C29 L04 d          37.811  32.809  29.235  0.00  0.00     0.040 A 
ATOM     26  C38 L04 d          38.028  30.403  29.557  0.00  0.00    -0.074 A 
ATOM     27  C26 L04 d          37.081  33.715  28.339  0.00  0.00     0.254 A 
ATOM     28  C37 L04 d          38.746  33.026  30.257  0.00  0.00    -0.067 A 
ATOM     29  O1  L04 d          37.151  34.947  28.351  0.00  0.00    -0.267 OA
ATOM     30  C40 L04 d          39.309  31.939  30.909  0.00  0.00    -0.082 A 
ATOM     31  H40 L04 d          39.028  34.035  30.535  0.00  0.00     0.085 H 
ATOM     32  C39 L04 d          38.955  30.646  30.566  0.00  0.00    -0.082 A 
ATOM     33  H43 L04 d          40.036  32.105  31.696  0.00  0.00     0.083 H 
ATOM     34  H42 L04 d          39.406  29.811  31.090  0.00  0.00     0.083 H 
ATOM     35  H41 L04 d          37.757  29.387  29.296  0.00  0.00     0.084 H 
ENDBRANCH  17  20
ENDBRANCH  14  17
ENDBRANCH  11  14
ENDBRANCH   8  11
ENDBRANCH   6   8
BRANCH   6  36
ATOM     36  C3  L04 d          34.102  35.158  22.850  0.00  0.00     0.177 C 
ATOM     37  O5  L04 d          33.895  33.965  23.192  0.00  0.00    -0.648 OA
ATOM     38  O4  L04 d          33.834  35.510  21.698  0.00  0.00    -0.648 OA
ENDBRANCH   6  36
ENDBRANCH   3   6
ENDBRANCH   1   3
BRANCH   1  39
ATOM     39  C16 L04 d          32.526  38.500  24.966  0.00  0.00     0.222 C 
ATOM     40  O17 L04 d          32.115  37.518  25.590  0.00  0.00    -0.273 OA
ATOM     41  N18 L04 d          31.753  39.533  24.646  0.00  0.00    -0.347 N 
ATOM     42  H46 L04 d          32.151  40.310  24.159  0.00  0.00     0.163 HD
BRANCH  41  43
ATOM     43  C19 L04 d          30.339  39.553  24.992  0.00  0.00     0.090 C 
ATOM     44  H20 L04 d          30.165  38.918  25.874  0.00  0.00     0.087 H 
BRANCH  43  45
ATOM     45  C27 L04 d          29.570  39.001  23.797  0.00  0.00     0.245 C 
ATOM     46  O28 L04 d          29.914  37.937  23.275  0.00  0.00    -0.271 OA
ATOM     47  N29 L04 d          28.495  39.696  23.425  0.00  0.00    -0.325 N 
ATOM     48  H47 L04 d          28.291  40.508  23.972  0.00  0.00     0.169 HD
BRANCH  47  49
ATOM     49  C30 L04 d          27.624  39.440  22.383  0.00  0.00     0.034 A 
ATOM     50  C35 L04 d          26.420  38.752  22.531  0.00  0.00    -0.057 A 
ATOM     51  C34 L04 d          25.591  38.520  21.436  0.00  0.00    -0.081 A 
ATOM     52  H39 L04 d          26.126  38.394  23.510  0.00  0.00     0.086 H 
ATOM     53  C33 L04 d          25.964  38.979  20.173  0.00  0.00    -0.083 A 
ATOM     54  H38 L04 d          24.659  37.982  21.565  0.00  0.00     0.083 H 
ATOM     55  C32 L04 d          27.162  39.666  20.014  0.00  0.00    -0.081 A 
ATOM     56  H37 L04 d          25.321  38.802  19.319  0.00  0.00     0.083 H 
ATOM     57  C31 L04 d          27.983  39.893  21.115  0.00  0.00    -0.057 A 
ATOM     58  H36 L04 d          27.457  40.022  19.034  0.00  0.00     0.083 H 
ATOM     59  H35 L04 d          28.915  40.431  20.984  0.00  0.00     0.086 H 
ENDBRANCH  47  49
ENDBRANCH  43  45
BRANCH  43  60
ATOM     60  C20 L04 d          29.871  40.977  25.296  0.00  0.00    -0.035 C 
ATOM     61  H21 L04 d          29.736  41.488  24.332  0.00  0.00     0.037 H 
ATOM     62  H22 L04 d          30.674  41.469  25.865  0.00  0.00     0.037 H 
BRANCH  60  63
ATOM     63  C21 L04 d          28.575  41.162  26.091  0.00  0.00    -0.059 C 
ATOM     64  H23 L04 d          27.717  41.059  25.410  0.00  0.00     0.038 H 
BRANCH  63  65
ATOM     65  C4  L04 d          28.505  40.074  27.149  0.00  0.00    -0.073 C 
ATOM     66  H4  L04 d          27.454  39.892  27.418  0.00  0.00     0.028 H 
ATOM     67  H5  L04 d          29.062  40.394  28.041  0.00  0.00     0.028 H 
ATOM     68  H6  L04 d          28.948  39.148  26.752  0.00  0.00     0.028 H 
ENDBRANCH  63  65
BRANCH  63  69
ATOM     69  C22 L04 d          28.524  42.547  26.735  0.00  0.00    -0.073 C 
ATOM     70  H24 L04 d          28.432  42.441  27.827  0.00  0.00     0.028 H 
ATOM     71  H25 L04 d          27.657  43.101  26.347  0.00  0.00     0.028 H 
ATOM     72  H26 L04 d          29.447  43.096  26.497  0.00  0.00     0.028 H 
ENDBRANCH  63  69
ENDBRANCH  60  63
ENDBRANCH  43  60
ENDBRANCH  41  43
ENDBRANCH   1  39
BRANCH   1  73
ATOM     73  C8  L04 d          34.258  40.029  24.076  0.00  0.00    -0.050 C 
ATOM     74  H9  L04 d          35.138  40.392  24.629  0.00  0.00     0.034 H 
ATOM     75  H10 L04 d          33.384  40.646  24.332  0.00  0.00     0.034 H 
BRANCH  73  76
ATOM     76  C9  L04 d          34.529  40.181  22.603  0.00  0.00    -0.040 C 
ATOM     77  H11 L04 d          34.079  41.127  22.269  0.00  0.00     0.040 H 
ATOM     78  H12 L04 d          34.049  39.342  22.079  0.00  0.00     0.040 H 
BRANCH  76  79
ATOM     79  C10 L04 d          35.979  40.196  22.229  0.00  0.00    -0.058 A 
ATOM     80  C15 L04 d          36.494  39.239  21.362  0.00  0.00    -0.076 A 
ATOM     81  C14 L04 d          37.829  39.269  20.985  0.00  0.00    -0.072 A 
ATOM     82  H16 L04 d          35.846  38.462  20.976  0.00  0.00     0.084 H 
ATOM     83  C13 L04 d          38.675  40.257  21.473  0.00  0.00    -0.026 A 
ATOM     84  H15 L04 d          38.214  38.517  20.305  0.00  0.00     0.084 H 
ATOM     85  C12 L04 d          38.156  41.211  22.343  0.00  0.00    -0.072 A 
ATOM     86  C11 L04 d          36.826  41.181  22.717  0.00  0.00    -0.076 A 
ATOM     87  H14 L04 d          38.805  41.988  22.734  0.00  0.00     0.084 H 
ATOM     88  H13 L04 d          36.442  41.932  23.398  0.00  0.00     0.084 H 
BRANCH  83  89
ATOM     89  C5  L04 d          40.092  40.304  21.081  0.00  0.00    -0.026 A 
ATOM     90  C43 L04 d          41.023  40.958  21.881  0.00  0.00    -0.069 A 
ATOM     91  C42 L04 d          42.360  41.011  21.511  0.00  0.00    -0.045 A 
ATOM     92  H45 L04 d          40.702  41.430  22.803  0.00  0.00     0.085 H 
ATOM     93  C41 L04 d          42.792  40.415  20.335  0.00  0.00     0.116 A 
ATOM     94  H44 L04 d          43.072  41.524  22.146  0.00  0.00     0.088 H 
ATOM     95  C17 L04 d          41.871  39.747  19.540  0.00  0.00    -0.045 A 
ATOM     96  F1  L04 d          44.091  40.488  19.977  0.00  0.00    -0.206 F 
ATOM     97  C6  L04 d          40.530  39.699  19.907  0.00  0.00    -0.069 A 
ATOM     98  H17 L04 d          42.198  39.261  18.628  0.00  0.00     0.088 H 
ATOM     99  H7  L04 d          39.819  39.185  19.272  0.00  0.00     0.085 H 
ENDBRANCH  83  89
ENDBRANCH  76  79
ENDBRANCH  73  76
ENDBRANCH   1  73
TORSDOF 20
ENDMDL
MODEL 3
REMARK VINA RESULT:     -11.3      1.850      9.720
REMARK  20 active torsions:
REMARK  status: ('A' for Active; 'I' for Inactive)
REMARK    1  A    between atoms: C1_1  and  C23_23 
REMARK    2  A    between atoms: C1_1  and  C2_2 
REMARK    3  A    between atoms: C2_2  and  C18_18 
REMARK    4  A    between atoms: C2_2  and  C3_3 
REMARK    5  A    between atoms: C21_21  and  C4_4 
REMARK    6  A    between atoms: C13_13  and  C5_5 
REMARK    7  A    between atoms: C18_18  and  C7_7 
REMARK    8  A    between atoms: C7_7  and  C16_16 
REMARK    9  A    between atoms: C7_7  and  C8_8 
REMARK   10  A    between atoms: C8_8  and  C9_9 
REMARK   11  A    between atoms: C9_9  and  C10_10 
REMARK       I    between atoms: C16_16  and  N18_45 
REMARK   12  A    between atoms: N18_45  and  C19_19 
REMARK   13  A    between atoms: C19_19  and  C27_27 
REMARK   14  A    between atoms: C19_19  and  C20_20 
REMARK   15  A    between atoms: C20_20  and  C21_21 
REMARK   16  A    between atoms: C21_21  and  C22_22 
REMARK   17  A    between atoms: C23_23  and  C24_24 
REMARK   18  A    between atoms: C24_24  and  C25_25 
REMARK   19  A    between atoms: C25_25  and  N1_44 
REMARK       I    between atoms: C27_27  and  N29_46 
REMARK   20  A    between atoms: N29_46  and  C30_30 
ROOT
ATOM      1  C7  L04 d          34.789  38.013  22.069  0.00  0.00     0.025 C 
ATOM      2  H8  L04 d          35.319  38.095  21.108  0.00  0.00     0.054 H 
ENDROOT
BRANCH   1   3
ATOM      3  C18 L04 d          35.747  38.415  23.190  0.00  0.00    -0.041 C 
ATOM      4  H18 L04 d          35.578  39.479  23.407  0.00  0.00     0.035 H 
ATOM      5  H19 L04 d          35.494  37.815  24.077  0.00  0.00     0.035 H 
BRANCH   3   6
ATOM      6  C2  L04 d          37.239  38.227  22.911  0.00  0.00     0.031 C 
ATOM      7  H3  L04 d          37.784  38.883  23.605  0.00  0.00     0.056 H 
BRANCH   6   8
ATOM      8  C1  L04 d          37.649  38.647  21.491  0.00  0.00    -0.052 C 
ATOM      9  H1  L04 d          38.200  37.813  21.032  0.00  0.00     0.034 H 
ATOM     10  H2  L04 d          36.735  38.845  20.913  0.00  0.00     0.034 H 
BRANCH   8  11
ATOM     11  C23 L04 d          38.526  39.886  21.434  0.00  0.00    -0.063 C 
ATOM     12  H27 L04 d          37.887  40.780  21.475  0.00  0.00     0.033 H 
ATOM     13  H28 L04 d          39.091  39.882  20.491  0.00  0.00     0.033 H 
BRANCH  11  14
ATOM     14  C24 L04 d          39.507  39.923  22.599  0.00  0.00    -0.050 C 
ATOM     15  H29 L04 d          39.172  39.212  23.369  0.00  0.00     0.035 H 
ATOM     16  H30 L04 d          39.522  40.939  23.018  0.00  0.00     0.035 H 
BRANCH  14  17
ATOM     17  C25 L04 d          40.915  39.548  22.161  0.00  0.00    -0.002 C 
ATOM     18  H31 L04 d          41.599  39.714  23.007  0.00  0.00     0.064 H 
ATOM     19  H32 L04 d          41.205  40.197  21.322  0.00  0.00     0.064 H 
BRANCH  17  20
ATOM     20  N1  L04 d          41.035  38.155  21.734  0.00  0.00    -0.344 N 
ATOM     21  C28 L04 d          41.081  37.626  20.366  0.00  0.00     0.023 A 
ATOM     22  C36 L04 d          41.288  36.132  20.605  0.00  0.00    -0.025 A 
ATOM     23  H33 L04 d          41.919  38.059  19.798  0.00  0.00     0.071 H 
ATOM     24  H34 L04 d          40.139  37.817  19.832  0.00  0.00     0.071 H 
ATOM     25  C29 L04 d          41.292  35.886  22.002  0.00  0.00     0.040 A 
ATOM     26  C38 L04 d          41.487  35.070  19.715  0.00  0.00    -0.074 A 
ATOM     27  C26 L04 d          41.103  37.179  22.672  0.00  0.00     0.254 A 
ATOM     28  C37 L04 d          41.494  34.583  22.480  0.00  0.00    -0.067 A 
ATOM     29  O1  L04 d          41.057  37.355  23.893  0.00  0.00    -0.267 OA
ATOM     30  C40 L04 d          41.692  33.549  21.579  0.00  0.00    -0.082 A 
ATOM     31  H40 L04 d          41.496  34.387  23.546  0.00  0.00     0.085 H 
ATOM     32  C39 L04 d          41.687  33.786  20.215  0.00  0.00    -0.082 A 
ATOM     33  H43 L04 d          41.852  32.541  21.946  0.00  0.00     0.083 H 
ATOM     34  H42 L04 d          41.842  32.962  19.528  0.00  0.00     0.083 H 
ATOM     35  H41 L04 d          41.486  35.245  18.645  0.00  0.00     0.084 H 
ENDBRANCH  17  20
ENDBRANCH  14  17
ENDBRANCH  11  14
ENDBRANCH   8  11
ENDBRANCH   6   8
BRANCH   6  36
ATOM     36  C3  L04 d          37.650  36.784  23.223  0.00  0.00     0.177 C 
ATOM     37  O5  L04 d          37.753  35.885  22.349  0.00  0.00    -0.648 OA
ATOM     38  O4  L04 d          37.848  36.499  24.407  0.00  0.00    -0.648 OA
ENDBRANCH   6  36
ENDBRANCH   3   6
ENDBRANCH   1   3
BRANCH   1  39
ATOM     39  C16 L04 d          33.574  38.929  22.049  0.00  0.00     0.222 C 
ATOM     40  O17 L04 d          33.644  40.084  22.478  0.00  0.00    -0.273 OA
ATOM     41  N18 L04 d          32.460  38.405  21.550  0.00  0.00    -0.347 N 
ATOM     42  H46 L04 d          32.474  37.469  21.197  0.00  0.00     0.163 HD
BRANCH  41  43
ATOM     43  C19 L04 d          31.220  39.167  21.508  0.00  0.00     0.090 C 
ATOM     44  H20 L04 d          31.448  40.244  21.518  0.00  0.00     0.087 H 
BRANCH  43  45
ATOM     45  C27 L04 d          30.415  38.797  22.749  0.00  0.00     0.245 C 
ATOM     46  O28 L04 d          30.483  37.657  23.216  0.00  0.00    -0.271 OA
ATOM     47  N29 L04 d          29.719  39.787  23.308  0.00  0.00    -0.325 N 
ATOM     48  H47 L04 d          29.799  40.680  22.864  0.00  0.00     0.169 HD
BRANCH  47  49
ATOM     49  C30 L04 d          28.901  39.741  24.421  0.00  0.00     0.034 A 
ATOM     50  C35 L04 d          29.329  40.060  25.709  0.00  0.00    -0.057 A 
ATOM     51  C34 L04 d          28.455  39.984  26.791  0.00  0.00    -0.081 A 
ATOM     52  H39 L04 d          30.354  40.370  25.871  0.00  0.00     0.086 H 
ATOM     53  C33 L04 d          27.133  39.586  26.589  0.00  0.00    -0.083 A 
ATOM     54  H38 L04 d          28.801  40.233  27.788  0.00  0.00     0.083 H 
ATOM     55  C32 L04 d          26.696  39.266  25.309  0.00  0.00    -0.081 A 
ATOM     56  H37 L04 d          26.449  39.527  27.428  0.00  0.00     0.083 H 
ATOM     57  C31 L04 d          27.578  39.346  24.235  0.00  0.00    -0.057 A 
ATOM     58  H36 L04 d          25.671  38.954  25.148  0.00  0.00     0.083 H 
ATOM     59  H35 L04 d          27.230  39.096  23.239  0.00  0.00     0.086 H 
ENDBRANCH  47  49
ENDBRANCH  43  45
BRANCH  43  60
ATOM     60  C20 L04 d          30.416  38.835  20.250  0.00  0.00    -0.035 C 
ATOM     61  H21 L04 d          29.550  38.235  20.567  0.00  0.00     0.037 H 
ATOM     62  H22 L04 d          31.064  38.229  19.600  0.00  0.00     0.037 H 
BRANCH  60  63
ATOM     63  C21 L04 d          29.879  39.992  19.403  0.00  0.00    -0.059 C 
ATOM     64  H23 L04 d          30.557  40.852  19.499  0.00  0.00     0.038 H 
BRANCH  63  65
ATOM     65  C4  L04 d          29.843  39.544  17.953  0.00  0.00    -0.073 C 
ATOM     66  H4  L04 d          29.162  38.686  17.850  0.00  0.00     0.028 H 
ATOM     67  H5  L04 d          30.854  39.250  17.634  0.00  0.00     0.028 H 
ATOM     68  H6  L04 d          29.487  40.372  17.321  0.00  0.00     0.028 H 
ENDBRANCH  63  65
BRANCH  63  69
ATOM     69  C22 L04 d          28.487  40.411  19.874  0.00  0.00    -0.073 C 
ATOM     70  H24 L04 d          28.557  41.360  20.427  0.00  0.00     0.028 H 
ATOM     71  H25 L04 d          28.072  39.633  20.531  0.00  0.00     0.028 H 
ATOM     72  H26 L04 d          27.829  40.543  19.001  0.00  0.00     0.028 H 
ENDBRANCH  63  69
ENDBRANCH  60  63
ENDBRANCH  43  60
ENDBRANCH  41  43
ENDBRANCH   1  39
BRANCH   1  73
ATOM     73  C8  L04 d          34.304  36.571  22.249  0.00  0.00    -0.050 C 
ATOM     74  H9  L04 d          35.181  35.907  22.237  0.00  0.00     0.034 H 
ATOM     75  H10 L04 d          33.643  36.321  21.406  0.00  0.00     0.034 H 
BRANCH  73  76
ATOM     76  C9  L04 d          33.549  36.334  23.530  0.00  0.00    -0.040 C 
ATOM     77  H11 L04 d          32.608  35.823  23.282  0.00  0.00     0.040 H 
ATOM     78  H12 L04 d          33.327  37.312  23.981  0.00  0.00     0.040 H 
BRANCH  76  79
ATOM     79  C10 L04 d          34.276  35.507  24.544  0.00  0.00    -0.058 A 
ATOM     80  C15 L04 d          34.595  34.180  24.276  0.00  0.00    -0.076 A 
ATOM     81  C14 L04 d          35.299  33.418  25.198  0.00  0.00    -0.072 A 
ATOM     82  H16 L04 d          34.292  33.736  23.335  0.00  0.00     0.084 H 
ATOM     83  C13 L04 d          35.693  33.972  26.410  0.00  0.00    -0.026 A 
ATOM     84  H15 L04 d          35.542  32.387  24.972  0.00  0.00     0.084 H 
ATOM     85  C12 L04 d          35.369  35.298  26.677  0.00  0.00    -0.072 A 
ATOM     86  C11 L04 d          34.669  36.056  25.756  0.00  0.00    -0.076 A 
ATOM     87  H14 L04 d          35.668  35.744  27.619  0.00  0.00     0.084 H 
ATOM     88  H13 L04 d          34.424  37.088  25.984  0.00  0.00     0.084 H 
BRANCH  83  89
ATOM     89  C5  L04 d          36.441  33.179  27.398  0.00  0.00    -0.026 A 
ATOM     90  C43 L04 d          36.355  31.791  27.399  0.00  0.00    -0.069 A 
ATOM     91  C42 L04 d          37.052  31.041  28.336  0.00  0.00    -0.045 A 
ATOM     92  H45 L04 d          35.737  31.291  26.661  0.00  0.00     0.085 H 
ATOM     93  C41 L04 d          37.847  31.660  29.289  0.00  0.00     0.116 A 
ATOM     94  H44 L04 d          36.975  29.960  28.322  0.00  0.00     0.088 H 
ATOM     95  C17 L04 d          37.950  33.045  29.283  0.00  0.00    -0.045 A 
ATOM     96  F1  L04 d          38.507  30.921  30.205  0.00  0.00    -0.206 F 
ATOM     97  C6  L04 d          37.246  33.798  28.349  0.00  0.00    -0.069 A 
ATOM     98  H17 L04 d          38.582  33.541  30.011  0.00  0.00     0.088 H 
ATOM     99  H7  L04 d          37.325  34.879  28.363  0.00  0.00     0.085 H 
ENDBRANCH  83  89
ENDBRANCH  76  79
ENDBRANCH  73  76
ENDBRANCH   1  73
TORSDOF 20
ENDMDL
MODEL 4
REMARK VINA RESULT:     -11.2      2.706     10.522
REMARK  20 active torsions:
REMARK  status: ('A' for Active; 'I' for Inactive)
REMARK    1  A    between atoms: C1_1  and  C23_23 
REMARK    2  A    between atoms: C1_1  and  C2_2 
REMARK    3  A    between atoms: C2_2  and  C18_18 
REMARK    4  A    between atoms: C2_2  and  C3_3 
REMARK    5  A    between atoms: C21_21  and  C4_4 
REMARK    6  A    between atoms: C13_13  and  C5_5 
REMARK    7  A    between atoms: C18_18  and  C7_7 
REMARK    8  A    between atoms: C7_7  and  C16_16 
REMARK    9  A    between atoms: C7_7  and  C8_8 
REMARK   10  A    between atoms: C8_8  and  C9_9 
REMARK   11  A    between atoms: C9_9  and  C10_10 
REMARK       I    between atoms: C16_16  and  N18_45 
REMARK   12  A    between atoms: N18_45  and  C19_19 
REMARK   13  A    between atoms: C19_19  and  C27_27 
REMARK   14  A    between atoms: C19_19  and  C20_20 
REMARK   15  A    between atoms: C20_20  and  C21_21 
REMARK   16  A    between atoms: C21_21  and  C22_22 
REMARK   17  A    between atoms: C23_23  and  C24_24 
REMARK   18  A    between atoms: C24_24  and  C25_25 
REMARK   19  A    between atoms: C25_25  and  N1_44 
REMARK       I    between atoms: C27_27  and  N29_46 
REMARK   20  A    between atoms: N29_46  and  C30_30 
ROOT
ATOM      1  C7  L04 d          34.639  39.180  23.931  0.00  0.00     0.025 C 
ATOM      2  H8  L04 d          34.474  39.097  25.015  0.00  0.00     0.054 H 
ENDROOT
BRANCH   1   3
ATOM      3  C18 L04 d          34.325  37.831  23.285  0.00  0.00    -0.041 C 
ATOM      4  H18 L04 d          33.508  37.986  22.566  0.00  0.00     0.035 H 
ATOM      5  H19 L04 d          35.226  37.498  22.750  0.00  0.00     0.035 H 
BRANCH   3   6
ATOM      6  C2  L04 d          33.904  36.705  24.232  0.00  0.00     0.031 C 
ATOM      7  H3  L04 d          34.428  36.868  25.184  0.00  0.00     0.056 H 
BRANCH   6   8
ATOM      8  C1  L04 d          34.310  35.310  23.735  0.00  0.00    -0.052 C 
ATOM      9  H1  L04 d          33.642  34.570  24.200  0.00  0.00     0.034 H 
ATOM     10  H2  L04 d          34.183  35.282  22.642  0.00  0.00     0.034 H 
BRANCH   8  11
ATOM     11  C23 L04 d          35.744  34.924  24.057  0.00  0.00    -0.063 C 
ATOM     12  H27 L04 d          36.170  35.670  24.745  0.00  0.00     0.033 H 
ATOM     13  H28 L04 d          36.329  34.908  23.126  0.00  0.00     0.033 H 
BRANCH  11  14
ATOM     14  C24 L04 d          35.813  33.550  24.710  0.00  0.00    -0.050 C 
ATOM     15  H29 L04 d          36.869  33.267  24.832  0.00  0.00     0.035 H 
ATOM     16  H30 L04 d          35.310  32.821  24.058  0.00  0.00     0.035 H 
BRANCH  14  17
ATOM     17  C25 L04 d          35.139  33.539  26.074  0.00  0.00    -0.002 C 
ATOM     18  H31 L04 d          34.218  32.941  26.004  0.00  0.00     0.064 H 
ATOM     19  H32 L04 d          34.883  34.574  26.346  0.00  0.00     0.064 H 
BRANCH  17  20
ATOM     20  N1  L04 d          35.980  32.976  27.128  0.00  0.00    -0.344 N 
ATOM     21  C28 L04 d          36.035  31.586  27.599  0.00  0.00     0.023 A 
ATOM     22  C36 L04 d          37.150  31.645  28.642  0.00  0.00    -0.025 A 
ATOM     23  H33 L04 d          36.291  30.897  26.781  0.00  0.00     0.071 H 
ATOM     24  H34 L04 d          35.081  31.280  28.053  0.00  0.00     0.071 H 
ATOM     25  C29 L04 d          37.607  32.983  28.752  0.00  0.00     0.040 A 
ATOM     26  C38 L04 d          37.750  30.642  29.414  0.00  0.00    -0.074 A 
ATOM     27  C26 L04 d          36.827  33.789  27.805  0.00  0.00     0.254 A 
ATOM     28  C37 L04 d          38.654  33.291  29.632  0.00  0.00    -0.067 A 
ATOM     29  O1  L04 d          36.952  35.003  27.622  0.00  0.00    -0.267 OA
ATOM     30  C40 L04 d          39.234  32.281  30.384  0.00  0.00    -0.082 A 
ATOM     31  H40 L04 d          39.008  34.312  29.724  0.00  0.00     0.085 H 
ATOM     32  C39 L04 d          38.789  30.974  30.278  0.00  0.00    -0.082 A 
ATOM     33  H43 L04 d          40.047  32.516  31.062  0.00  0.00     0.083 H 
ATOM     34  H42 L04 d          39.255  30.200  30.877  0.00  0.00     0.083 H 
ATOM     35  H41 L04 d          37.408  29.616  29.339  0.00  0.00     0.084 H 
ENDBRANCH  17  20
ENDBRANCH  14  17
ENDBRANCH  11  14
ENDBRANCH   8  11
ENDBRANCH   6   8
BRANCH   6  36
ATOM     36  C3  L04 d          32.400  36.797  24.514  0.00  0.00     0.177 C 
ATOM     37  O5  L04 d          31.852  36.310  25.537  0.00  0.00    -0.648 OA
ATOM     38  O4  L04 d          31.699  37.347  23.660  0.00  0.00    -0.648 OA
ENDBRANCH   6  36
ENDBRANCH   3   6
ENDBRANCH   1   3
BRANCH   1  39
ATOM     39  C16 L04 d          33.731  40.265  23.369  0.00  0.00     0.222 C 
ATOM     40  O17 L04 d          34.020  41.458  23.488  0.00  0.00    -0.273 OA
ATOM     41  N18 L04 d          32.630  39.841  22.759  0.00  0.00    -0.347 N 
ATOM     42  H46 L04 d          32.463  38.858  22.675  0.00  0.00     0.163 HD
BRANCH  41  43
ATOM     43  C19 L04 d          31.662  40.780  22.210  0.00  0.00     0.090 C 
ATOM     44  H20 L04 d          32.167  41.723  21.952  0.00  0.00     0.087 H 
BRANCH  43  45
ATOM     45  C27 L04 d          30.612  41.034  23.286  0.00  0.00     0.245 C 
ATOM     46  O28 L04 d          30.341  42.187  23.630  0.00  0.00    -0.271 OA
ATOM     47  N29 L04 d          29.983  39.954  23.752  0.00  0.00    -0.325 N 
ATOM     48  H47 L04 d          30.256  39.082  23.344  0.00  0.00     0.169 HD
BRANCH  47  49
ATOM     49  C30 L04 d          29.005  39.882  24.725  0.00  0.00     0.034 A 
ATOM     50  C35 L04 d          29.209  40.239  26.057  0.00  0.00    -0.057 A 
ATOM     51  C34 L04 d          28.182  40.134  26.991  0.00  0.00    -0.081 A 
ATOM     52  H39 L04 d          30.181  40.604  26.370  0.00  0.00     0.086 H 
ATOM     53  C33 L04 d          26.929  39.667  26.594  0.00  0.00    -0.083 A 
ATOM     54  H38 L04 d          28.355  40.414  28.024  0.00  0.00     0.083 H 
ATOM     55  C32 L04 d          26.714  39.306  25.269  0.00  0.00    -0.081 A 
ATOM     56  H37 L04 d          26.125  39.584  27.318  0.00  0.00     0.083 H 
ATOM     57  C31 L04 d          27.747  39.416  24.344  0.00  0.00    -0.057 A 
ATOM     58  H36 L04 d          25.743  38.940  24.957  0.00  0.00     0.083 H 
ATOM     59  H35 L04 d          27.572  39.136  23.311  0.00  0.00     0.086 H 
ENDBRANCH  47  49
ENDBRANCH  43  45
BRANCH  43  60
ATOM     60  C20 L04 d          30.994  40.209  20.959  0.00  0.00    -0.035 C 
ATOM     61  H21 L04 d          30.766  39.153  21.165  0.00  0.00     0.037 H 
ATOM     62  H22 L04 d          31.726  40.274  20.140  0.00  0.00     0.037 H 
BRANCH  60  63
ATOM     63  C21 L04 d          29.701  40.862  20.462  0.00  0.00    -0.059 C 
ATOM     64  H23 L04 d          29.440  41.696  21.129  0.00  0.00     0.038 H 
BRANCH  63  65
ATOM     65  C4  L04 d          29.946  41.400  19.063  0.00  0.00    -0.073 C 
ATOM     66  H4  L04 d          30.721  40.797  18.568  0.00  0.00     0.028 H 
ATOM     67  H5  L04 d          30.281  42.446  19.126  0.00  0.00     0.028 H 
ATOM     68  H6  L04 d          29.014  41.348  18.481  0.00  0.00     0.028 H 
ENDBRANCH  63  65
BRANCH  63  69
ATOM     69  C22 L04 d          28.549  39.858  20.460  0.00  0.00    -0.073 C 
ATOM     70  H24 L04 d          27.769  40.195  19.761  0.00  0.00     0.028 H 
ATOM     71  H25 L04 d          28.126  39.783  21.473  0.00  0.00     0.028 H 
ATOM     72  H26 L04 d          28.922  38.872  20.145  0.00  0.00     0.028 H 
ENDBRANCH  63  69
ENDBRANCH  60  63
ENDBRANCH  43  60
ENDBRANCH  41  43
ENDBRANCH   1  39
BRANCH   1  73
ATOM     73  C8  L04 d          36.093  39.587  23.677  0.00  0.00    -0.050 C 
ATOM     74  H9  L04 d          36.726  39.102  24.435  0.00  0.00     0.034 H 
ATOM     75  H10 L04 d          36.169  40.679  23.780  0.00  0.00     0.034 H 
BRANCH  73  76
ATOM     76  C9  L04 d          36.608  39.203  22.315  0.00  0.00    -0.040 C 
ATOM     77  H11 L04 d          36.770  40.125  21.739  0.00  0.00     0.040 H 
ATOM     78  H12 L04 d          35.840  38.592  21.819  0.00  0.00     0.040 H 
BRANCH  76  79
ATOM     79  C10 L04 d          37.889  38.427  22.323  0.00  0.00    -0.058 A 
ATOM     80  C15 L04 d          39.113  39.085  22.288  0.00  0.00    -0.076 A 
ATOM     81  C14 L04 d          40.303  38.373  22.330  0.00  0.00    -0.072 A 
ATOM     82  H16 L04 d          39.139  40.166  22.228  0.00  0.00     0.084 H 
ATOM     83  C13 L04 d          40.289  36.985  22.404  0.00  0.00    -0.026 A 
ATOM     84  H15 L04 d          41.249  38.901  22.305  0.00  0.00     0.084 H 
ATOM     85  C12 L04 d          39.061  36.330  22.435  0.00  0.00    -0.072 A 
ATOM     86  C11 L04 d          37.877  37.041  22.394  0.00  0.00    -0.076 A 
ATOM     87  H14 L04 d          39.034  35.247  22.491  0.00  0.00     0.084 H 
ATOM     88  H13 L04 d          36.931  36.512  22.418  0.00  0.00     0.084 H 
BRANCH  83  89
ATOM     89  C5  L04 d          41.541  36.215  22.451  0.00  0.00    -0.026 A 
ATOM     90  C43 L04 d          42.769  36.859  22.350  0.00  0.00    -0.069 A 
ATOM     91  C42 L04 d          43.952  36.134  22.384  0.00  0.00    -0.045 A 
ATOM     92  H45 L04 d          42.803  37.938  22.242  0.00  0.00     0.085 H 
ATOM     93  C41 L04 d          43.932  34.753  22.519  0.00  0.00     0.116 A 
ATOM     94  H44 L04 d          44.901  36.651  22.305  0.00  0.00     0.088 H 
ATOM     95  C17 L04 d          42.710  34.106  22.637  0.00  0.00    -0.045 A 
ATOM     96  F1  L04 d          45.088  34.058  22.535  0.00  0.00    -0.206 F 
ATOM     97  C6  L04 d          41.524  34.831  22.595  0.00  0.00    -0.069 A 
ATOM     98  H17 L04 d          42.680  33.029  22.762  0.00  0.00     0.088 H 
ATOM     99  H7  L04 d          40.575  34.312  22.676  0.00  0.00     0.085 H 
ENDBRANCH  83  89
ENDBRANCH  76  79
ENDBRANCH  73  76
ENDBRANCH   1  73
TORSDOF 20
ENDMDL
MODEL 5
REMARK VINA RESULT:     -11.2      3.725     11.646
REMARK  20 active torsions:
REMARK  status: ('A' for Active; 'I' for Inactive)
REMARK    1  A    between atoms: C1_1  and  C23_23 
REMARK    2  A    between atoms: C1_1  and  C2_2 
REMARK    3  A    between atoms: C2_2  and  C18_18 
REMARK    4  A    between atoms: C2_2  and  C3_3 
REMARK    5  A    between atoms: C21_21  and  C4_4 
REMARK    6  A    between atoms: C13_13  and  C5_5 
REMARK    7  A    between atoms: C18_18  and  C7_7 
REMARK    8  A    between atoms: C7_7  and  C16_16 
REMARK    9  A    between atoms: C7_7  and  C8_8 
REMARK   10  A    between atoms: C8_8  and  C9_9 
REMARK   11  A    between atoms: C9_9  and  C10_10 
REMARK       I    between atoms: C16_16  and  N18_45 
REMARK   12  A    between atoms: N18_45  and  C19_19 
REMARK   13  A    between atoms: C19_19  and  C27_27 
REMARK   14  A    between atoms: C19_19  and  C20_20 
REMARK   15  A    between atoms: C20_20  and  C21_21 
REMARK   16  A    between atoms: C21_21  and  C22_22 
REMARK   17  A    between atoms: C23_23  and  C24_24 
REMARK   18  A    between atoms: C24_24  and  C25_25 
REMARK   19  A    between atoms: C25_25  and  N1_44 
REMARK       I    between atoms: C27_27  and  N29_46 
REMARK   20  A    between atoms: N29_46  and  C30_30 
ROOT
ATOM      1  C7  L04 d          33.102  39.475  24.355  0.00  0.00     0.025 C 
ATOM      2  H8  L04 d          33.607  39.394  25.329  0.00  0.00     0.054 H 
ENDROOT
BRANCH   1   3
ATOM      3  C18 L04 d          33.354  38.191  23.566  0.00  0.00    -0.041 C 
ATOM      4  H18 L04 d          32.411  37.625  23.537  0.00  0.00     0.035 H 
ATOM      5  H19 L04 d          33.641  38.477  22.543  0.00  0.00     0.035 H 
BRANCH   3   6
ATOM      6  C2  L04 d          34.439  37.259  24.109  0.00  0.00     0.031 C 
ATOM      7  H3  L04 d          35.264  37.894  24.465  0.00  0.00     0.056 H 
BRANCH   6   8
ATOM      8  C1  L04 d          35.027  36.324  23.043  0.00  0.00    -0.052 C 
ATOM      9  H1  L04 d          34.221  35.676  22.670  0.00  0.00     0.034 H 
ATOM     10  H2  L04 d          35.413  36.941  22.218  0.00  0.00     0.034 H 
BRANCH   8  11
ATOM     11  C23 L04 d          36.156  35.437  23.543  0.00  0.00    -0.063 C 
ATOM     12  H27 L04 d          36.308  34.614  22.829  0.00  0.00     0.033 H 
ATOM     13  H28 L04 d          35.881  35.026  24.525  0.00  0.00     0.033 H 
BRANCH  11  14
ATOM     14  C24 L04 d          37.454  36.221  23.680  0.00  0.00    -0.050 C 
ATOM     15  H29 L04 d          37.978  35.886  24.587  0.00  0.00     0.035 H 
ATOM     16  H30 L04 d          37.216  37.291  23.767  0.00  0.00     0.035 H 
BRANCH  14  17
ATOM     17  C25 L04 d          38.366  36.016  22.479  0.00  0.00    -0.002 C 
ATOM     18  H31 L04 d          37.945  36.562  21.623  0.00  0.00     0.064 H 
ATOM     19  H32 L04 d          38.402  34.941  22.247  0.00  0.00     0.064 H 
BRANCH  17  20
ATOM     20  N1  L04 d          39.732  36.487  22.705  0.00  0.00    -0.344 N 
ATOM     21  C28 L04 d          40.204  37.455  23.703  0.00  0.00     0.023 A 
ATOM     22  C36 L04 d          41.713  37.447  23.469  0.00  0.00    -0.025 A 
ATOM     23  H33 L04 d          39.957  37.128  24.724  0.00  0.00     0.071 H 
ATOM     24  H34 L04 d          39.778  38.453  23.525  0.00  0.00     0.071 H 
ATOM     25  C29 L04 d          42.006  36.581  22.385  0.00  0.00     0.040 A 
ATOM     26  C38 L04 d          42.758  38.098  24.138  0.00  0.00    -0.074 A 
ATOM     27  C26 L04 d          40.732  36.020  21.919  0.00  0.00     0.254 A 
ATOM     28  C37 L04 d          43.338  36.382  21.991  0.00  0.00    -0.067 A 
ATOM     29  O1  L04 d          40.597  35.221  20.989  0.00  0.00    -0.267 OA
ATOM     30  C40 L04 d          44.355  37.036  22.671  0.00  0.00    -0.082 A 
ATOM     31  H40 L04 d          43.570  35.723  21.163  0.00  0.00     0.085 H 
ATOM     32  C39 L04 d          44.070  37.883  23.728  0.00  0.00    -0.082 A 
ATOM     33  H43 L04 d          45.385  36.881  22.370  0.00  0.00     0.083 H 
ATOM     34  H42 L04 d          44.881  38.385  24.244  0.00  0.00     0.083 H 
ATOM     35  H41 L04 d          42.546  38.763  24.966  0.00  0.00     0.084 H 
ENDBRANCH  17  20
ENDBRANCH  14  17
ENDBRANCH  11  14
ENDBRANCH   8  11
ENDBRANCH   6   8
BRANCH   6  36
ATOM     36  C3  L04 d          33.902  36.484  25.318  0.00  0.00     0.177 C 
ATOM     37  O5  L04 d          34.638  35.992  26.213  0.00  0.00    -0.648 OA
ATOM     38  O4  L04 d          32.682  36.310  25.379  0.00  0.00    -0.648 OA
ENDBRANCH   6  36
ENDBRANCH   3   6
ENDBRANCH   1   3
BRANCH   1  39
ATOM     39  C16 L04 d          31.611  39.678  24.582  0.00  0.00     0.222 C 
ATOM     40  O17 L04 d          31.017  40.637  24.080  0.00  0.00    -0.273 OA
ATOM     41  N18 L04 d          31.010  38.769  25.343  0.00  0.00    -0.347 N 
ATOM     42  H46 L04 d          31.542  38.001  25.701  0.00  0.00     0.163 HD
BRANCH  41  43
ATOM     43  C19 L04 d          29.594  38.871  25.664  0.00  0.00     0.090 C 
ATOM     44  H20 L04 d          29.358  38.205  26.507  0.00  0.00     0.087 H 
BRANCH  43  45
ATOM     45  C27 L04 d          28.814  38.437  24.428  0.00  0.00     0.245 C 
ATOM     46  O28 L04 d          28.619  37.240  24.205  0.00  0.00    -0.271 OA
ATOM     47  N29 L04 d          28.316  39.422  23.679  0.00  0.00    -0.325 N 
ATOM     48  H47 L04 d          28.495  40.350  24.006  0.00  0.00     0.169 HD
BRANCH  47  49
ATOM     49  C30 L04 d          27.584  39.328  22.511  0.00  0.00     0.034 A 
ATOM     50  C35 L04 d          26.274  38.854  22.455  0.00  0.00    -0.057 A 
ATOM     51  C34 L04 d          25.594  38.775  21.242  0.00  0.00    -0.081 A 
ATOM     52  H39 L04 d          25.777  38.543  23.367  0.00  0.00     0.086 H 
ATOM     53  C33 L04 d          26.226  39.175  20.065  0.00  0.00    -0.083 A 
ATOM     54  H38 L04 d          24.576  38.403  21.212  0.00  0.00     0.083 H 
ATOM     55  C32 L04 d          27.533  39.648  20.109  0.00  0.00    -0.081 A 
ATOM     56  H37 L04 d          25.701  39.117  19.118  0.00  0.00     0.083 H 
ATOM     57  C31 L04 d          28.202  39.724  21.327  0.00  0.00    -0.057 A 
ATOM     58  H36 L04 d          28.029  39.958  19.197  0.00  0.00     0.083 H 
ATOM     59  H35 L04 d          29.220  40.096  21.354  0.00  0.00     0.086 H 
ENDBRANCH  47  49
ENDBRANCH  43  45
BRANCH  43  60
ATOM     60  C20 L04 d          29.220  40.306  26.036  0.00  0.00    -0.035 C 
ATOM     61  H21 L04 d          28.646  40.721  25.195  0.00  0.00     0.037 H 
ATOM     62  H22 L04 d          30.159  40.867  26.154  0.00  0.00     0.037 H 
BRANCH  60  63
ATOM     63  C21 L04 d          28.394  40.537  27.305  0.00  0.00    -0.059 C 
ATOM     64  H23 L04 d          28.078  39.565  27.710  0.00  0.00     0.038 H 
BRANCH  63  65
ATOM     65  C4  L04 d          29.272  41.241  28.324  0.00  0.00    -0.073 C 
ATOM     66  H4  L04 d          29.917  41.970  27.812  0.00  0.00     0.028 H 
ATOM     67  H5  L04 d          29.897  40.500  28.844  0.00  0.00     0.028 H 
ATOM     68  H6  L04 d          28.638  41.764  29.056  0.00  0.00     0.028 H 
ENDBRANCH  63  65
BRANCH  63  69
ATOM     69  C22 L04 d          27.147  41.367  27.000  0.00  0.00    -0.073 C 
ATOM     70  H24 L04 d          27.162  42.287  27.604  0.00  0.00     0.028 H 
ATOM     71  H25 L04 d          26.248  40.783  27.244  0.00  0.00     0.028 H 
ATOM     72  H26 L04 d          27.135  41.631  25.932  0.00  0.00     0.028 H 
ENDBRANCH  63  69
ENDBRANCH  60  63
ENDBRANCH  43  60
ENDBRANCH  41  43
ENDBRANCH   1  39
BRANCH   1  73
ATOM     73  C8  L04 d          33.648  40.696  23.610  0.00  0.00    -0.050 C 
ATOM     74  H9  L04 d          34.542  41.055  24.142  0.00  0.00     0.034 H 
ATOM     75  H10 L04 d          32.877  41.480  23.617  0.00  0.00     0.034 H 
BRANCH  73  76
ATOM     76  C9  L04 d          34.029  40.421  22.179  0.00  0.00    -0.040 C 
ATOM     77  H11 L04 d          33.606  41.220  21.554  0.00  0.00     0.040 H 
ATOM     78  H12 L04 d          33.590  39.456  21.888  0.00  0.00     0.040 H 
BRANCH  76  79
ATOM     79  C10 L04 d          35.503  40.359  21.922  0.00  0.00    -0.058 A 
ATOM     80  C15 L04 d          36.350  41.341  22.424  0.00  0.00    -0.076 A 
ATOM     81  C14 L04 d          37.720  41.270  22.218  0.00  0.00    -0.072 A 
ATOM     82  H16 L04 d          35.935  42.171  22.983  0.00  0.00     0.084 H 
ATOM     83  C13 L04 d          38.268  40.214  21.501  0.00  0.00    -0.026 A 
ATOM     84  H15 L04 d          38.366  42.042  22.618  0.00  0.00     0.084 H 
ATOM     85  C12 L04 d          37.418  39.235  20.996  0.00  0.00    -0.072 A 
ATOM     86  C11 L04 d          36.053  39.306  21.204  0.00  0.00    -0.076 A 
ATOM     87  H14 L04 d          37.831  38.405  20.433  0.00  0.00     0.084 H 
ATOM     88  H13 L04 d          35.407  38.534  20.801  0.00  0.00     0.084 H 
BRANCH  83  89
ATOM     89  C5  L04 d          39.719  40.122  21.274  0.00  0.00    -0.026 A 
ATOM     90  C43 L04 d          40.224  39.328  20.251  0.00  0.00    -0.069 A 
ATOM     91  C42 L04 d          41.593  39.232  20.041  0.00  0.00    -0.045 A 
ATOM     92  H45 L04 d          39.542  38.777  19.612  0.00  0.00     0.085 H 
ATOM     93  C41 L04 d          42.483  39.927  20.847  0.00  0.00     0.116 A 
ATOM     94  H44 L04 d          41.970  38.609  19.239  0.00  0.00     0.088 H 
ATOM     95  C17 L04 d          41.984  40.734  21.860  0.00  0.00    -0.045 A 
ATOM     96  F1  L04 d          43.812  39.813  20.643  0.00  0.00    -0.206 F 
ATOM     97  C6  L04 d          40.613  40.825  22.076  0.00  0.00    -0.069 A 
ATOM     98  H17 L04 d          42.668  41.297  22.486  0.00  0.00     0.088 H 
ATOM     99  H7  L04 d          40.237  41.450  22.878  0.00  0.00     0.085 H 
ENDBRANCH  83  89
ENDBRANCH  76  79
ENDBRANCH  73  76
ENDBRANCH   1  73
TORSDOF 20
ENDMDL
MODEL 6
REMARK VINA RESULT:     -11.0      1.953      9.343
REMARK  20 active torsions:
REMARK  status: ('A' for Active; 'I' for Inactive)
REMARK    1  A    between atoms: C1_1  and  C23_23 
REMARK    2  A    between atoms: C1_1  and  C2_2 
REMARK    3  A    between atoms: C2_2  and  C18_18 
REMARK    4  A    between atoms: C2_2  and  C3_3 
REMARK    5  A    between atoms: C21_21  and  C4_4 
REMARK    6  A    between atoms: C13_13  and  C5_5 
REMARK    7  A    between atoms: C18_18  and  C7_7 
REMARK    8  A    between atoms: C7_7  and  C16_16 
REMARK    9  A    between atoms: C7_7  and  C8_8 
REMARK   10  A    between atoms: C8_8  and  C9_9 
REMARK   11  A    between atoms: C9_9  and  C10_10 
REMARK       I    between atoms: C16_16  and  N18_45 
REMARK   12  A    between atoms: N18_45  and  C19_19 
REMARK   13  A    between atoms: C19_19  and  C27_27 
REMARK   14  A    between atoms: C19_19  and  C20_20 
REMARK   15  A    between atoms: C20_20  and  C21_21 
REMARK   16  A    between atoms: C21_21  and  C22_22 
REMARK   17  A    between atoms: C23_23  and  C24_24 
REMARK   18  A    between atoms: C24_24  and  C25_25 
REMARK   19  A    between atoms: C25_25  and  N1_44 
REMARK       I    between atoms: C27_27  and  N29_46 
REMARK   20  A    between atoms: N29_46  and  C30_30 
ROOT
ATOM      1  C7  L04 d          34.929  38.536  21.915  0.00  0.00     0.025 C 
ATOM      2  H8  L04 d          35.764  38.554  21.199  0.00  0.00     0.054 H 
ENDROOT
BRANCH   1   3
ATOM      3  C18 L04 d          35.463  38.908  23.297  0.00  0.00    -0.041 C 
ATOM      4  H18 L04 d          34.904  38.322  24.040  0.00  0.00     0.035 H 
ATOM      5  H19 L04 d          36.526  38.627  23.332  0.00  0.00     0.035 H 
BRANCH   3   6
ATOM      6  C2  L04 d          35.359  40.382  23.693  0.00  0.00     0.031 C 
ATOM      7  H3  L04 d          34.878  40.910  22.857  0.00  0.00     0.056 H 
BRANCH   6   8
ATOM      8  C1  L04 d          36.724  41.051  23.913  0.00  0.00    -0.052 C 
ATOM      9  H1  L04 d          36.580  41.916  24.576  0.00  0.00     0.034 H 
ATOM     10  H2  L04 d          37.390  40.323  24.399  0.00  0.00     0.034 H 
BRANCH   8  11
ATOM     11  C23 L04 d          37.396  41.533  22.639  0.00  0.00    -0.063 C 
ATOM     12  H27 L04 d          37.487  42.629  22.674  0.00  0.00     0.033 H 
ATOM     13  H28 L04 d          36.778  41.244  21.776  0.00  0.00     0.033 H 
BRANCH  11  14
ATOM     14  C24 L04 d          38.783  40.924  22.481  0.00  0.00    -0.050 C 
ATOM     15  H29 L04 d          38.965  40.232  23.317  0.00  0.00     0.035 H 
ATOM     16  H30 L04 d          39.530  41.731  22.503  0.00  0.00     0.035 H 
BRANCH  14  17
ATOM     17  C25 L04 d          38.918  40.161  21.172  0.00  0.00    -0.002 C 
ATOM     18  H31 L04 d          39.525  40.762  20.478  0.00  0.00     0.064 H 
ATOM     19  H32 L04 d          37.914  40.014  20.747  0.00  0.00     0.064 H 
BRANCH  17  20
ATOM     20  N1  L04 d          39.553  38.853  21.329  0.00  0.00    -0.344 N 
ATOM     21  C28 L04 d          39.310  37.847  22.370  0.00  0.00     0.023 A 
ATOM     22  C36 L04 d          40.218  36.701  21.926  0.00  0.00    -0.025 A 
ATOM     23  H33 L04 d          38.255  37.536  22.386  0.00  0.00     0.071 H 
ATOM     24  H34 L04 d          39.597  38.222  23.363  0.00  0.00     0.071 H 
ATOM     25  C29 L04 d          40.931  37.101  20.768  0.00  0.00     0.040 A 
ATOM     26  C38 L04 d          40.404  35.413  22.444  0.00  0.00    -0.074 A 
ATOM     27  C26 L04 d          40.503  38.468  20.443  0.00  0.00     0.254 A 
ATOM     28  C37 L04 d          41.816  36.206  20.150  0.00  0.00    -0.067 A 
ATOM     29  O1  L04 d          40.911  39.141  19.493  0.00  0.00    -0.267 OA
ATOM     30  C40 L04 d          41.981  34.935  20.680  0.00  0.00    -0.082 A 
ATOM     31  H40 L04 d          42.366  36.504  19.265  0.00  0.00     0.085 H 
ATOM     32  C39 L04 d          41.287  34.543  21.811  0.00  0.00    -0.082 A 
ATOM     33  H43 L04 d          42.662  34.240  20.201  0.00  0.00     0.083 H 
ATOM     34  H42 L04 d          41.433  33.546  22.210  0.00  0.00     0.083 H 
ATOM     35  H41 L04 d          39.865  35.097  23.330  0.00  0.00     0.084 H 
ENDBRANCH  17  20
ENDBRANCH  14  17
ENDBRANCH  11  14
ENDBRANCH   8  11
ENDBRANCH   6   8
BRANCH   6  36
ATOM     36  C3  L04 d          34.445  40.530  24.916  0.00  0.00     0.177 C 
ATOM     37  O5  L04 d          34.743  41.215  25.928  0.00  0.00    -0.648 OA
ATOM     38  O4  L04 d          33.383  39.902  24.903  0.00  0.00    -0.648 OA
ENDBRANCH   6  36
ENDBRANCH   3   6
ENDBRANCH   1   3
BRANCH   1  39
ATOM     39  C16 L04 d          33.866  39.529  21.467  0.00  0.00     0.222 C 
ATOM     40  O17 L04 d          34.178  40.652  21.063  0.00  0.00    -0.273 OA
ATOM     41  N18 L04 d          32.608  39.107  21.545  0.00  0.00    -0.347 N 
ATOM     42  H46 L04 d          32.422  38.177  21.859  0.00  0.00     0.163 HD
BRANCH  41  43
ATOM     43  C19 L04 d          31.498  39.975  21.180  0.00  0.00     0.090 C 
ATOM     44  H20 L04 d          31.875  40.837  20.609  0.00  0.00     0.087 H 
BRANCH  43  45
ATOM     45  C27 L04 d          30.850  40.454  22.474  0.00  0.00     0.245 C 
ATOM     46  O28 L04 d          31.029  41.610  22.868  0.00  0.00    -0.271 OA
ATOM     47  N29 L04 d          30.046  39.580  23.081  0.00  0.00    -0.325 N 
ATOM     48  H47 L04 d          29.939  38.697  22.623  0.00  0.00     0.169 HD
BRANCH  47  49
ATOM     49  C30 L04 d          29.341  39.735  24.259  0.00  0.00     0.034 A 
ATOM     50  C35 L04 d          29.923  40.123  25.465  0.00  0.00    -0.057 A 
ATOM     51  C34 L04 d          29.156  40.252  26.620  0.00  0.00    -0.081 A 
ATOM     52  H39 L04 d          30.987  40.328  25.503  0.00  0.00     0.086 H 
ATOM     53  C33 L04 d          27.787  39.992  26.577  0.00  0.00    -0.083 A 
ATOM     54  H38 L04 d          29.623  40.553  27.551  0.00  0.00     0.083 H 
ATOM     55  C32 L04 d          27.195  39.603  25.380  0.00  0.00    -0.081 A 
ATOM     56  H37 L04 d          27.186  40.092  27.473  0.00  0.00     0.083 H 
ATOM     57  C31 L04 d          27.971  39.479  24.231  0.00  0.00    -0.057 A 
ATOM     58  H36 L04 d          26.132  39.398  25.342  0.00  0.00     0.083 H 
ATOM     59  H35 L04 d          27.503  39.178  23.301  0.00  0.00     0.086 H 
ENDBRANCH  47  49
ENDBRANCH  43  45
BRANCH  43  60
ATOM     60  C20 L04 d          30.470  39.222  20.333  0.00  0.00    -0.035 C 
ATOM     61  H21 L04 d          29.772  38.733  21.029  0.00  0.00     0.037 H 
ATOM     62  H22 L04 d          31.017  38.457  19.762  0.00  0.00     0.037 H 
BRANCH  60  63
ATOM     63  C21 L04 d          29.629  40.018  19.332  0.00  0.00    -0.059 C 
ATOM     64  H23 L04 d          30.036  41.037  19.250  0.00  0.00     0.038 H 
BRANCH  63  65
ATOM     65  C4  L04 d          29.721  39.333  17.980  0.00  0.00    -0.073 C 
ATOM     66  H4  L04 d          30.340  38.428  18.069  0.00  0.00     0.028 H 
ATOM     67  H5  L04 d          30.178  40.019  17.252  0.00  0.00     0.028 H 
ATOM     68  H6  L04 d          28.712  39.056  17.639  0.00  0.00     0.028 H 
ENDBRANCH  63  65
BRANCH  63  69
ATOM     69  C22 L04 d          28.174  40.109  19.794  0.00  0.00    -0.073 C 
ATOM     70  H24 L04 d          27.854  39.135  20.191  0.00  0.00     0.028 H 
ATOM     71  H25 L04 d          27.536  40.386  18.942  0.00  0.00     0.028 H 
ATOM     72  H26 L04 d          28.087  40.873  20.581  0.00  0.00     0.028 H 
ENDBRANCH  63  69
ENDBRANCH  60  63
ENDBRANCH  43  60
ENDBRANCH  41  43
ENDBRANCH   1  39
BRANCH   1  73
ATOM     73  C8  L04 d          34.309  37.135  21.922  0.00  0.00    -0.050 C 
ATOM     74  H9  L04 d          35.122  36.396  21.869  0.00  0.00     0.034 H 
ATOM     75  H10 L04 d          33.665  37.037  21.036  0.00  0.00     0.034 H 
BRANCH  73  76
ATOM     76  C9  L04 d          33.480  36.839  23.143  0.00  0.00    -0.040 C 
ATOM     77  H11 L04 d          32.554  36.344  22.816  0.00  0.00     0.040 H 
ATOM     78  H12 L04 d          33.232  37.794  23.629  0.00  0.00     0.040 H 
BRANCH  76  79
ATOM     79  C10 L04 d          34.145  35.961  24.157  0.00  0.00    -0.058 A 
ATOM     80  C15 L04 d          34.575  34.684  23.812  0.00  0.00    -0.076 A 
ATOM     81  C14 L04 d          35.222  33.878  24.738  0.00  0.00    -0.072 A 
ATOM     82  H16 L04 d          34.403  34.314  22.808  0.00  0.00     0.084 H 
ATOM     83  C13 L04 d          35.448  34.336  26.030  0.00  0.00    -0.026 A 
ATOM     84  H15 L04 d          35.554  32.887  24.451  0.00  0.00     0.084 H 
ATOM     85  C12 L04 d          35.013  35.613  26.373  0.00  0.00    -0.072 A 
ATOM     86  C11 L04 d          34.369  36.414  25.449  0.00  0.00    -0.076 A 
ATOM     87  H14 L04 d          35.181  35.983  27.378  0.00  0.00     0.084 H 
ATOM     88  H13 L04 d          34.036  37.406  25.737  0.00  0.00     0.084 H 
BRANCH  83  89
ATOM     89  C5  L04 d          36.135  33.496  27.023  0.00  0.00    -0.026 A 
ATOM     90  C43 L04 d          36.910  34.075  28.021  0.00  0.00    -0.069 A 
ATOM     91  C42 L04 d          37.566  33.284  28.955  0.00  0.00    -0.045 A 
ATOM     92  H45 L04 d          37.003  35.155  28.071  0.00  0.00     0.085 H 
ATOM     93  C41 L04 d          37.462  31.902  28.909  0.00  0.00     0.116 A 
ATOM     94  H44 L04 d          38.166  33.752  29.727  0.00  0.00     0.088 H 
ATOM     95  C17 L04 d          36.677  31.318  27.925  0.00  0.00    -0.045 A 
ATOM     96  F1  L04 d          38.118  31.143  29.812  0.00  0.00    -0.206 F 
ATOM     97  C6  L04 d          36.025  32.109  26.985  0.00  0.00    -0.069 A 
ATOM     98  H17 L04 d          36.572  30.240  27.888  0.00  0.00     0.088 H 
ATOM     99  H7  L04 d          35.424  31.640  26.214  0.00  0.00     0.085 H 
ENDBRANCH  83  89
ENDBRANCH  76  79
ENDBRANCH  73  76
ENDBRANCH   1  73
TORSDOF 20
ENDMDL
MODEL 7
REMARK VINA RESULT:     -10.8      3.810     11.787
REMARK  20 active torsions:
REMARK  status: ('A' for Active; 'I' for Inactive)
REMARK    1  A    between atoms: C1_1  and  C23_23 
REMARK    2  A    between atoms: C1_1  and  C2_2 
REMARK    3  A    between atoms: C2_2  and  C18_18 
REMARK    4  A    between atoms: C2_2  and  C3_3 
REMARK    5  A    between atoms: C21_21  and  C4_4 
REMARK    6  A    between atoms: C13_13  and  C5_5 
REMARK    7  A    between atoms: C18_18  and  C7_7 
REMARK    8  A    between atoms: C7_7  and  C16_16 
REMARK    9  A    between atoms: C7_7  and  C8_8 
REMARK   10  A    between atoms: C8_8  and  C9_9 
REMARK   11  A    between atoms: C9_9  and  C10_10 
REMARK       I    between atoms: C16_16  and  N18_45 
REMARK   12  A    between atoms: N18_45  and  C19_19 
REMARK   13  A    between atoms: C19_19  and  C27_27 
REMARK   14  A    between atoms: C19_19  and  C20_20 
REMARK   15  A    between atoms: C20_20  and  C21_21 
REMARK   16  A    between atoms: C21_21  and  C22_22 
REMARK   17  A    between atoms: C23_23  and  C24_24 
REMARK   18  A    between atoms: C24_24  and  C25_25 
REMARK   19  A    between atoms: C25_25  and  N1_44 
REMARK       I    between atoms: C27_27  and  N29_46 
REMARK   20  A    between atoms: N29_46  and  C30_30 
ROOT
ATOM      1  C7  L04 d          33.837  38.420  24.555  0.00  0.00     0.025 C 
ATOM      2  H8  L04 d          34.548  38.265  25.379  0.00  0.00     0.054 H 
ENDROOT
BRANCH   1   3
ATOM      3  C18 L04 d          34.197  37.470  23.414  0.00  0.00    -0.041 C 
ATOM      4  H18 L04 d          33.278  36.946  23.113  0.00  0.00     0.035 H 
ATOM      5  H19 L04 d          34.563  38.078  22.574  0.00  0.00     0.035 H 
BRANCH   3   6
ATOM      6  C2  L04 d          35.258  36.411  23.719  0.00  0.00     0.031 C 
ATOM      7  H3  L04 d          35.645  36.619  24.727  0.00  0.00     0.056 H 
BRANCH   6   8
ATOM      8  C1  L04 d          36.460  36.462  22.764  0.00  0.00    -0.052 C 
ATOM      9  H1  L04 d          36.244  35.812  21.904  0.00  0.00     0.034 H 
ATOM     10  H2  L04 d          36.581  37.499  22.418  0.00  0.00     0.034 H 
BRANCH   8  11
ATOM     11  C23 L04 d          37.771  36.012  23.385  0.00  0.00    -0.063 C 
ATOM     12  H27 L04 d          38.324  35.404  22.653  0.00  0.00     0.033 H 
ATOM     13  H28 L04 d          37.557  35.406  24.277  0.00  0.00     0.033 H 
BRANCH  11  14
ATOM     14  C24 L04 d          38.629  37.204  23.789  0.00  0.00    -0.050 C 
ATOM     15  H29 L04 d          39.049  37.018  24.788  0.00  0.00     0.035 H 
ATOM     16  H30 L04 d          37.997  38.103  23.818  0.00  0.00     0.035 H 
BRANCH  14  17
ATOM     17  C25 L04 d          39.770  37.435  22.809  0.00  0.00    -0.002 C 
ATOM     18  H31 L04 d          40.457  38.178  23.241  0.00  0.00     0.064 H 
ATOM     19  H32 L04 d          39.352  37.825  21.870  0.00  0.00     0.064 H 
BRANCH  17  20
ATOM     20  N1  L04 d          40.529  36.221  22.511  0.00  0.00    -0.344 N 
ATOM     21  C28 L04 d          40.216  35.173  21.531  0.00  0.00     0.023 A 
ATOM     22  C36 L04 d          41.422  34.245  21.658  0.00  0.00    -0.025 A 
ATOM     23  H33 L04 d          40.137  35.587  20.515  0.00  0.00     0.071 H 
ATOM     24  H34 L04 d          39.283  34.651  21.788  0.00  0.00     0.071 H 
ATOM     25  C29 L04 d          42.279  34.739  22.674  0.00  0.00     0.040 A 
ATOM     26  C38 L04 d          41.781  33.091  20.950  0.00  0.00    -0.074 A 
ATOM     27  C26 L04 d          41.667  35.965  23.201  0.00  0.00     0.254 A 
ATOM     28  C37 L04 d          43.477  34.070  22.963  0.00  0.00    -0.067 A 
ATOM     29  O1  L04 d          42.134  36.673  24.098  0.00  0.00    -0.267 OA
ATOM     30  C40 L04 d          43.812  32.931  22.246  0.00  0.00    -0.082 A 
ATOM     31  H40 L04 d          44.137  34.440  23.739  0.00  0.00     0.085 H 
ATOM     32  C39 L04 d          42.977  32.446  21.255  0.00  0.00    -0.082 A 
ATOM     33  H43 L04 d          44.740  32.414  22.465  0.00  0.00     0.083 H 
ATOM     34  H42 L04 d          43.257  31.553  20.708  0.00  0.00     0.083 H 
ATOM     35  H41 L04 d          41.134  32.703  20.172  0.00  0.00     0.084 H 
ENDBRANCH  17  20
ENDBRANCH  14  17
ENDBRANCH  11  14
ENDBRANCH   8  11
ENDBRANCH   6   8
BRANCH   6  36
ATOM     36  C3  L04 d          34.613  35.021  23.753  0.00  0.00     0.177 C 
ATOM     37  O5  L04 d          34.510  34.326  24.797  0.00  0.00    -0.648 OA
ATOM     38  O4  L04 d          34.214  34.559  22.680  0.00  0.00    -0.648 OA
ENDBRANCH   6  36
ENDBRANCH   3   6
ENDBRANCH   1   3
BRANCH   1  39
ATOM     39  C16 L04 d          32.426  38.145  25.055  0.00  0.00     0.222 C 
ATOM     40  O17 L04 d          32.133  37.059  25.561  0.00  0.00    -0.273 OA
ATOM     41  N18 L04 d          31.554  39.137  24.908  0.00  0.00    -0.347 N 
ATOM     42  H46 L04 d          31.859  40.003  24.511  0.00  0.00     0.163 HD
BRANCH  41  43
ATOM     43  C19 L04 d          30.165  38.986  25.313  0.00  0.00     0.090 C 
ATOM     44  H20 L04 d          30.087  38.206  26.085  0.00  0.00     0.087 H 
BRANCH  43  45
ATOM     45  C27 L04 d          29.371  38.573  24.078  0.00  0.00     0.245 C 
ATOM     46  O28 L04 d          29.271  37.382  23.775  0.00  0.00    -0.271 OA
ATOM     47  N29 L04 d          28.758  39.560  23.423  0.00  0.00    -0.325 N 
ATOM     48  H47 L04 d          28.872  40.475  23.810  0.00  0.00     0.169 HD
BRANCH  47  49
ATOM     49  C30 L04 d          27.988  39.483  22.279  0.00  0.00     0.034 A 
ATOM     50  C35 L04 d          28.419  39.911  21.024  0.00  0.00    -0.057 A 
ATOM     51  C34 L04 d          27.588  39.814  19.911  0.00  0.00    -0.081 A 
ATOM     52  H39 L04 d          29.415  40.325  20.913  0.00  0.00     0.086 H 
ATOM     53  C33 L04 d          26.306  39.281  20.046  0.00  0.00    -0.083 A 
ATOM     54  H38 L04 d          27.936  40.153  18.942  0.00  0.00     0.083 H 
ATOM     55  C32 L04 d          25.865  38.852  21.293  0.00  0.00    -0.081 A 
ATOM     56  H37 L04 d          25.656  39.202  19.182  0.00  0.00     0.083 H 
ATOM     57  C31 L04 d          26.704  38.953  22.398  0.00  0.00    -0.057 A 
ATOM     58  H36 L04 d          24.869  38.439  21.403  0.00  0.00     0.083 H 
ATOM     59  H35 L04 d          26.355  38.614  23.367  0.00  0.00     0.086 H 
ENDBRANCH  47  49
ENDBRANCH  43  45
BRANCH  43  60
ATOM     60  C20 L04 d          29.611  40.300  25.869  0.00  0.00    -0.035 C 
ATOM     61  H21 L04 d          29.126  40.827  25.034  0.00  0.00     0.037 H 
ATOM     62  H22 L04 d          30.469  40.889  26.227  0.00  0.00     0.037 H 
BRANCH  60  63
ATOM     63  C21 L04 d          28.597  40.236  27.014  0.00  0.00    -0.059 C 
ATOM     64  H23 L04 d          29.085  39.811  27.903  0.00  0.00     0.038 H 
BRANCH  63  65
ATOM     65  C4  L04 d          28.138  41.650  27.324  0.00  0.00    -0.073 C 
ATOM     66  H4  L04 d          28.818  42.370  26.845  0.00  0.00     0.028 H 
ATOM     67  H5  L04 d          28.145  41.808  28.412  0.00  0.00     0.028 H 
ATOM     68  H6  L04 d          27.118  41.798  26.938  0.00  0.00     0.028 H 
ENDBRANCH  63  65
BRANCH  63  69
ATOM     69  C22 L04 d          27.408  39.351  26.640  0.00  0.00    -0.073 C 
ATOM     70  H24 L04 d          26.907  39.766  25.752  0.00  0.00     0.028 H 
ATOM     71  H25 L04 d          26.698  39.318  27.479  0.00  0.00     0.028 H 
ATOM     72  H26 L04 d          27.763  38.334  26.419  0.00  0.00     0.028 H 
ENDBRANCH  63  69
ENDBRANCH  60  63
ENDBRANCH  43  60
ENDBRANCH  41  43
ENDBRANCH   1  39
BRANCH   1  73
ATOM     73  C8  L04 d          33.912  39.881  24.100  0.00  0.00    -0.050 C 
ATOM     74  H9  L04 d          34.735  40.370  24.642  0.00  0.00     0.034 H 
ATOM     75  H10 L04 d          32.962  40.372  24.356  0.00  0.00     0.034 H 
BRANCH  73  76
ATOM     76  C9  L04 d          34.151  40.051  22.624  0.00  0.00    -0.040 C 
ATOM     77  H11 L04 d          33.636  40.966  22.298  0.00  0.00     0.040 H 
ATOM     78  H12 L04 d          33.720  39.183  22.105  0.00  0.00     0.040 H 
BRANCH  76  79
ATOM     79  C10 L04 d          35.591  40.162  22.229  0.00  0.00    -0.058 A 
ATOM     80  C15 L04 d          36.458  40.982  22.941  0.00  0.00    -0.076 A 
ATOM     81  C14 L04 d          37.801  41.063  22.601  0.00  0.00    -0.072 A 
ATOM     82  H16 L04 d          36.081  41.566  23.772  0.00  0.00     0.084 H 
ATOM     83  C13 L04 d          38.300  40.323  21.535  0.00  0.00    -0.026 A 
ATOM     84  H15 L04 d          38.464  41.705  23.168  0.00  0.00     0.084 H 
ATOM     85  C12 L04 d          37.429  39.506  20.822  0.00  0.00    -0.072 A 
ATOM     86  C11 L04 d          36.092  39.427  21.163  0.00  0.00    -0.076 A 
ATOM     87  H14 L04 d          37.803  38.924  19.987  0.00  0.00     0.084 H 
ATOM     88  H13 L04 d          35.429  38.785  20.594  0.00  0.00     0.084 H 
BRANCH  83  89
ATOM     89  C5  L04 d          39.721  40.396  21.162  0.00  0.00    -0.026 A 
ATOM     90  C43 L04 d          40.193  39.709  20.049  0.00  0.00    -0.069 A 
ATOM     91  C42 L04 d          41.535  39.768  19.699  0.00  0.00    -0.045 A 
ATOM     92  H45 L04 d          39.506  39.122  19.448  0.00  0.00     0.085 H 
ATOM     93  C41 L04 d          42.431  40.511  20.453  0.00  0.00     0.116 A 
ATOM     94  H44 L04 d          41.886  39.228  18.828  0.00  0.00     0.088 H 
ATOM     95  C17 L04 d          41.963  41.212  21.556  0.00  0.00    -0.045 A 
ATOM     96  F1  L04 d          43.736  40.547  20.113  0.00  0.00    -0.206 F 
ATOM     97  C6  L04 d          40.620  41.148  21.912  0.00  0.00    -0.069 A 
ATOM     98  H17 L04 d          42.649  41.811  22.144  0.00  0.00     0.088 H 
ATOM     99  H7  L04 d          40.270  41.690  22.783  0.00  0.00     0.085 H 
ENDBRANCH  83  89
ENDBRANCH  76  79
ENDBRANCH  73  76
ENDBRANCH   1  73
TORSDOF 20
ENDMDL
MODEL 8
REMARK VINA RESULT:     -10.8      2.133      9.875
REMARK  20 active torsions:
REMARK  status: ('A' for Active; 'I' for Inactive)
REMARK    1  A    between atoms: C1_1  and  C23_23 
REMARK    2  A    between atoms: C1_1  and  C2_2 
REMARK    3  A    between atoms: C2_2  and  C18_18 
REMARK    4  A    between atoms: C2_2  and  C3_3 
REMARK    5  A    between atoms: C21_21  and  C4_4 
REMARK    6  A    between atoms: C13_13  and  C5_5 
REMARK    7  A    between atoms: C18_18  and  C7_7 
REMARK    8  A    between atoms: C7_7  and  C16_16 
REMARK    9  A    between atoms: C7_7  and  C8_8 
REMARK   10  A    between atoms: C8_8  and  C9_9 
REMARK   11  A    between atoms: C9_9  and  C10_10 
REMARK       I    between atoms: C16_16  and  N18_45 
REMARK   12  A    between atoms: N18_45  and  C19_19 
REMARK   13  A    between atoms: C19_19  and  C27_27 
REMARK   14  A    between atoms: C19_19  and  C20_20 
REMARK   15  A    between atoms: C20_20  and  C21_21 
REMARK   16  A    between atoms: C21_21  and  C22_22 
REMARK   17  A    between atoms: C23_23  and  C24_24 
REMARK   18  A    between atoms: C24_24  and  C25_25 
REMARK   19  A    between atoms: C25_25  and  N1_44 
REMARK       I    between atoms: C27_27  and  N29_46 
REMARK   20  A    between atoms: N29_46  and  C30_30 
ROOT
ATOM      1  C7  L04 d          34.687  37.997  22.070  0.00  0.00     0.025 C 
ATOM      2  H8  L04 d          35.200  38.071  21.100  0.00  0.00     0.054 H 
ENDROOT
BRANCH   1   3
ATOM      3  C18 L04 d          35.647  38.462  23.165  0.00  0.00    -0.041 C 
ATOM      4  H18 L04 d          35.437  39.523  23.365  0.00  0.00     0.035 H 
ATOM      5  H19 L04 d          35.436  37.870  24.068  0.00  0.00     0.035 H 
BRANCH   3   6
ATOM      6  C2  L04 d          37.140  38.333  22.862  0.00  0.00     0.031 C 
ATOM      7  H3  L04 d          37.232  37.823  21.892  0.00  0.00     0.056 H 
BRANCH   6   8
ATOM      8  C1  L04 d          37.896  37.474  23.887  0.00  0.00    -0.052 C 
ATOM      9  H1  L04 d          38.891  37.917  24.040  0.00  0.00     0.034 H 
ATOM     10  H2  L04 d          37.336  37.493  24.833  0.00  0.00     0.034 H 
BRANCH   8  11
ATOM     11  C23 L04 d          38.080  36.023  23.473  0.00  0.00    -0.063 C 
ATOM     12  H27 L04 d          37.095  35.585  23.254  0.00  0.00     0.033 H 
ATOM     13  H28 L04 d          38.552  35.472  24.298  0.00  0.00     0.033 H 
BRANCH  11  14
ATOM     14  C24 L04 d          38.959  35.910  22.234  0.00  0.00    -0.050 C 
ATOM     15  H29 L04 d          38.768  36.774  21.581  0.00  0.00     0.035 H 
ATOM     16  H30 L04 d          38.704  34.983  21.700  0.00  0.00     0.035 H 
BRANCH  14  17
ATOM     17  C25 L04 d          40.438  35.881  22.593  0.00  0.00    -0.002 C 
ATOM     18  H31 L04 d          40.935  35.129  21.964  0.00  0.00     0.064 H 
ATOM     19  H32 L04 d          40.536  35.596  23.651  0.00  0.00     0.064 H 
BRANCH  17  20
ATOM     20  N1  L04 d          41.105  37.167  22.395  0.00  0.00    -0.344 N 
ATOM     21  C28 L04 d          41.555  38.122  23.414  0.00  0.00     0.023 A 
ATOM     22  C36 L04 d          42.229  39.201  22.568  0.00  0.00    -0.025 A 
ATOM     23  H33 L04 d          42.269  37.657  24.110  0.00  0.00     0.071 H 
ATOM     24  H34 L04 d          40.706  38.532  23.980  0.00  0.00     0.071 H 
ATOM     25  C29 L04 d          42.090  38.864  21.197  0.00  0.00     0.040 A 
ATOM     26  C38 L04 d          42.929  40.359  22.930  0.00  0.00    -0.074 A 
ATOM     27  C26 L04 d          41.355  37.595  21.133  0.00  0.00     0.254 A 
ATOM     28  C37 L04 d          42.653  39.692  20.216  0.00  0.00    -0.067 A 
ATOM     29  O1  L04 d          41.052  36.992  20.100  0.00  0.00    -0.267 OA
ATOM     30  C40 L04 d          43.345  40.831  20.598  0.00  0.00    -0.082 A 
ATOM     31  H40 L04 d          42.550  39.443  19.166  0.00  0.00     0.085 H 
ATOM     32  C39 L04 d          43.480  41.162  21.936  0.00  0.00    -0.082 A 
ATOM     33  H43 L04 d          43.784  41.471  19.841  0.00  0.00     0.083 H 
ATOM     34  H42 L04 d          44.023  42.059  22.212  0.00  0.00     0.083 H 
ATOM     35  H41 L04 d          43.041  40.627  23.974  0.00  0.00     0.084 H 
ENDBRANCH  17  20
ENDBRANCH  14  17
ENDBRANCH  11  14
ENDBRANCH   8  11
ENDBRANCH   6   8
BRANCH   6  36
ATOM     36  C3  L04 d          37.764  39.725  22.710  0.00  0.00     0.177 C 
ATOM     37  O5  L04 d          38.851  39.940  22.113  0.00  0.00    -0.648 OA
ATOM     38  O4  L04 d          37.174  40.667  23.245  0.00  0.00    -0.648 OA
ENDBRANCH   6  36
ENDBRANCH   3   6
ENDBRANCH   1   3
BRANCH   1  39
ATOM     39  C16 L04 d          33.442  38.871  22.045  0.00  0.00     0.222 C 
ATOM     40  O17 L04 d          33.466  40.023  22.486  0.00  0.00    -0.273 OA
ATOM     41  N18 L04 d          32.352  38.313  21.527  0.00  0.00    -0.347 N 
ATOM     42  H46 L04 d          32.403  37.383  21.164  0.00  0.00     0.163 HD
BRANCH  41  43
ATOM     43  C19 L04 d          31.088  39.033  21.477  0.00  0.00     0.090 C 
ATOM     44  H20 L04 d          31.279  40.114  21.418  0.00  0.00     0.087 H 
BRANCH  43  45
ATOM     45  C27 L04 d          30.330  38.711  22.760  0.00  0.00     0.245 C 
ATOM     46  O28 L04 d          30.442  37.601  23.286  0.00  0.00    -0.271 OA
ATOM     47  N29 L04 d          29.623  39.712  23.286  0.00  0.00    -0.325 N 
ATOM     48  H47 L04 d          29.665  40.580  22.792  0.00  0.00     0.169 HD
BRANCH  47  49
ATOM     49  C30 L04 d          28.839  39.706  24.424  0.00  0.00     0.034 A 
ATOM     50  C35 L04 d          29.309  40.058  25.689  0.00  0.00    -0.057 A 
ATOM     51  C34 L04 d          28.468  40.022  26.798  0.00  0.00    -0.081 A 
ATOM     52  H39 L04 d          30.342  40.364  25.810  0.00  0.00     0.086 H 
ATOM     53  C33 L04 d          27.138  39.632  26.649  0.00  0.00    -0.083 A 
ATOM     54  H38 L04 d          28.847  40.297  27.776  0.00  0.00     0.083 H 
ATOM     55  C32 L04 d          26.659  39.278  25.393  0.00  0.00    -0.081 A 
ATOM     56  H37 L04 d          26.479  39.604  27.510  0.00  0.00     0.083 H 
ATOM     57  C31 L04 d          27.507  39.318  24.290  0.00  0.00    -0.057 A 
ATOM     58  H36 L04 d          25.627  38.971  25.272  0.00  0.00     0.083 H 
ATOM     59  H35 L04 d          27.127  39.043  23.313  0.00  0.00     0.086 H 
ENDBRANCH  47  49
ENDBRANCH  43  45
BRANCH  43  60
ATOM     60  C20 L04 d          30.260  38.602  20.265  0.00  0.00    -0.035 C 
ATOM     61  H21 L04 d          29.413  38.010  20.643  0.00  0.00     0.037 H 
ATOM     62  H22 L04 d          30.905  37.964  19.641  0.00  0.00     0.037 H 
BRANCH  60  63
ATOM     63  C21 L04 d          29.682  39.689  19.355  0.00  0.00    -0.059 C 
ATOM     64  H23 L04 d          30.068  39.546  18.334  0.00  0.00     0.038 H 
BRANCH  63  65
ATOM     65  C4  L04 d          28.171  39.545  19.341  0.00  0.00    -0.073 C 
ATOM     66  H4  L04 d          27.877  38.822  18.566  0.00  0.00     0.028 H 
ATOM     67  H5  L04 d          27.711  40.521  19.126  0.00  0.00     0.028 H 
ATOM     68  H6  L04 d          27.827  39.188  20.324  0.00  0.00     0.028 H 
ENDBRANCH  63  65
BRANCH  63  69
ATOM     69  C22 L04 d          30.089  41.079  19.841  0.00  0.00    -0.073 C 
ATOM     70  H24 L04 d          29.538  41.843  19.271  0.00  0.00     0.028 H 
ATOM     71  H25 L04 d          31.170  41.219  19.690  0.00  0.00     0.028 H 
ATOM     72  H26 L04 d          29.853  41.178  20.910  0.00  0.00     0.028 H 
ENDBRANCH  63  69
ENDBRANCH  60  63
ENDBRANCH  43  60
ENDBRANCH  41  43
ENDBRANCH   1  39
BRANCH   1  73
ATOM     73  C8  L04 d          34.255  36.546  22.297  0.00  0.00    -0.050 C 
ATOM     74  H9  L04 d          35.151  35.908  22.261  0.00  0.00     0.034 H 
ATOM     75  H10 L04 d          33.568  36.259  21.486  0.00  0.00     0.034 H 
BRANCH  73  76
ATOM     76  C9  L04 d          33.560  36.311  23.611  0.00  0.00    -0.040 C 
ATOM     77  H11 L04 d          32.616  35.785  23.409  0.00  0.00     0.040 H 
ATOM     78  H12 L04 d          33.344  37.290  24.063  0.00  0.00     0.040 H 
BRANCH  76  79
ATOM     79  C10 L04 d          34.341  35.503  24.600  0.00  0.00    -0.058 A 
ATOM     80  C15 L04 d          34.806  36.082  25.775  0.00  0.00    -0.076 A 
ATOM     81  C14 L04 d          35.501  35.330  26.711  0.00  0.00    -0.072 A 
ATOM     82  H16 L04 d          34.623  37.134  25.963  0.00  0.00     0.084 H 
ATOM     83  C13 L04 d          35.746  33.981  26.485  0.00  0.00    -0.026 A 
ATOM     84  H15 L04 d          35.854  35.797  27.624  0.00  0.00     0.084 H 
ATOM     85  C12 L04 d          35.283  33.405  25.306  0.00  0.00    -0.072 A 
ATOM     86  C11 L04 d          34.590  34.156  24.375  0.00  0.00    -0.076 A 
ATOM     87  H14 L04 d          35.469  32.354  25.115  0.00  0.00     0.084 H 
ATOM     88  H13 L04 d          34.239  33.689  23.462  0.00  0.00     0.084 H 
BRANCH  83  89
ATOM     89  C5  L04 d          36.480  33.168  27.468  0.00  0.00    -0.026 A 
ATOM     90  C43 L04 d          37.208  33.778  28.484  0.00  0.00    -0.069 A 
ATOM     91  C42 L04 d          37.909  33.014  29.407  0.00  0.00    -0.045 A 
ATOM     92  H45 L04 d          37.229  34.860  28.555  0.00  0.00     0.085 H 
ATOM     93  C41 L04 d          37.897  31.629  29.334  0.00  0.00     0.116 A 
ATOM     94  H44 L04 d          38.470  33.505  30.193  0.00  0.00     0.088 H 
ATOM     95  C17 L04 d          37.159  31.014  28.332  0.00  0.00    -0.045 A 
ATOM     96  F1  L04 d          38.595  30.898  30.227  0.00  0.00    -0.206 F 
ATOM     97  C6  L04 d          36.462  31.779  27.402  0.00  0.00    -0.069 A 
ATOM     98  H17 L04 d          37.126  29.932  28.274  0.00  0.00     0.088 H 
ATOM     99  H7  L04 d          35.900  31.287  26.617  0.00  0.00     0.085 H 
ENDBRANCH  83  89
ENDBRANCH  76  79
ENDBRANCH  73  76
ENDBRANCH   1  73
TORSDOF 20
ENDMDL
MODEL 9
REMARK VINA RESULT:     -10.7      3.271     11.250
REMARK  20 active torsions:
REMARK  status: ('A' for Active; 'I' for Inactive)
REMARK    1  A    between atoms: C1_1  and  C23_23 
REMARK    2  A    between atoms: C1_1  and  C2_2 
REMARK    3  A    between atoms: C2_2  and  C18_18 
REMARK    4  A    between atoms: C2_2  and  C3_3 
REMARK    5  A    between atoms: C21_21  and  C4_4 
REMARK    6  A    between atoms: C13_13  and  C5_5 
REMARK    7  A    between atoms: C18_18  and  C7_7 
REMARK    8  A    between atoms: C7_7  and  C16_16 
REMARK    9  A    between atoms: C7_7  and  C8_8 
REMARK   10  A    between atoms: C8_8  and  C9_9 
REMARK   11  A    between atoms: C9_9  and  C10_10 
REMARK       I    between atoms: C16_16  and  N18_45 
REMARK   12  A    between atoms: N18_45  and  C19_19 
REMARK   13  A    between atoms: C19_19  and  C27_27 
REMARK   14  A    between atoms: C19_19  and  C20_20 
REMARK   15  A    between atoms: C20_20  and  C21_21 
REMARK   16  A    between atoms: C21_21  and  C22_22 
REMARK   17  A    between atoms: C23_23  and  C24_24 
REMARK   18  A    between atoms: C24_24  and  C25_25 
REMARK   19  A    between atoms: C25_25  and  N1_44 
REMARK       I    between atoms: C27_27  and  N29_46 
REMARK   20  A    between atoms: N29_46  and  C30_30 
ROOT
ATOM      1  C7  L04 d          32.558  40.164  24.350  0.00  0.00     0.025 C 
ATOM      2  H8  L04 d          33.127  39.941  25.265  0.00  0.00     0.054 H 
ENDROOT
BRANCH   1   3
ATOM      3  C18 L04 d          32.450  38.887  23.519  0.00  0.00    -0.041 C 
ATOM      4  H18 L04 d          31.404  38.787  23.194  0.00  0.00     0.035 H 
ATOM      5  H19 L04 d          33.098  39.005  22.638  0.00  0.00     0.035 H 
BRANCH   3   6
ATOM      6  C2  L04 d          32.846  37.584  24.216  0.00  0.00     0.031 C 
ATOM      7  H3  L04 d          33.300  37.857  25.180  0.00  0.00     0.056 H 
BRANCH   6   8
ATOM      8  C1  L04 d          33.900  36.777  23.444  0.00  0.00    -0.052 C 
ATOM      9  H1  L04 d          33.734  36.934  22.368  0.00  0.00     0.034 H 
ATOM     10  H2  L04 d          34.895  37.156  23.720  0.00  0.00     0.034 H 
BRANCH   8  11
ATOM     11  C23 L04 d          33.868  35.283  23.717  0.00  0.00    -0.063 C 
ATOM     12  H27 L04 d          34.445  34.763  22.938  0.00  0.00     0.033 H 
ATOM     13  H28 L04 d          32.824  34.937  23.693  0.00  0.00     0.033 H 
BRANCH  11  14
ATOM     14  C24 L04 d          34.467  34.958  25.079  0.00  0.00    -0.050 C 
ATOM     15  H29 L04 d          33.740  34.366  25.656  0.00  0.00     0.035 H 
ATOM     16  H30 L04 d          34.678  35.898  25.608  0.00  0.00     0.035 H 
BRANCH  14  17
ATOM     17  C25 L04 d          35.758  34.164  24.951  0.00  0.00    -0.002 C 
ATOM     18  H31 L04 d          36.558  34.847  24.630  0.00  0.00     0.064 H 
ATOM     19  H32 L04 d          35.615  33.383  24.190  0.00  0.00     0.064 H 
BRANCH  17  20
ATOM     20  N1  L04 d          36.168  33.524  26.201  0.00  0.00    -0.344 N 
ATOM     21  C28 L04 d          36.082  32.104  26.564  0.00  0.00     0.023 A 
ATOM     22  C36 L04 d          36.735  32.087  27.945  0.00  0.00    -0.025 A 
ATOM     23  H33 L04 d          36.638  31.476  25.852  0.00  0.00     0.071 H 
ATOM     24  H34 L04 d          35.037  31.767  26.613  0.00  0.00     0.071 H 
ATOM     25  C29 L04 d          37.085  33.413  28.306  0.00  0.00     0.040 A 
ATOM     26  C38 L04 d          37.036  31.030  28.814  0.00  0.00    -0.074 A 
ATOM     27  C26 L04 d          36.687  34.286  27.195  0.00  0.00     0.254 A 
ATOM     28  C37 L04 d          37.728  33.656  29.528  0.00  0.00    -0.067 A 
ATOM     29  O1  L04 d          36.839  35.509  27.153  0.00  0.00    -0.267 OA
ATOM     30  C40 L04 d          38.018  32.593  30.370  0.00  0.00    -0.082 A 
ATOM     31  H40 L04 d          37.997  34.667  29.812  0.00  0.00     0.085 H 
ATOM     32  C39 L04 d          37.676  31.298  30.020  0.00  0.00    -0.082 A 
ATOM     33  H43 L04 d          38.519  32.779  31.314  0.00  0.00     0.083 H 
ATOM     34  H42 L04 d          37.910  30.482  30.695  0.00  0.00     0.083 H 
ATOM     35  H41 L04 d          36.772  30.013  28.549  0.00  0.00     0.084 H 
ENDBRANCH  17  20
ENDBRANCH  14  17
ENDBRANCH  11  14
ENDBRANCH   8  11
ENDBRANCH   6   8
BRANCH   6  36
ATOM     36  C3  L04 d          31.594  36.752  24.516  0.00  0.00     0.177 C 
ATOM     37  O5  L04 d          31.420  36.119  25.590  0.00  0.00    -0.648 OA
ATOM     38  O4  L04 d          30.741  36.680  23.629  0.00  0.00    -0.648 OA
ENDBRANCH   6  36
ENDBRANCH   3   6
ENDBRANCH   1   3
BRANCH   1  39
ATOM     39  C16 L04 d          31.175  40.671  24.734  0.00  0.00     0.222 C 
ATOM     40  O17 L04 d          30.778  41.777  24.359  0.00  0.00    -0.273 OA
ATOM     41  N18 L04 d          30.446  39.853  25.486  0.00  0.00    -0.347 N 
ATOM     42  H46 L04 d          30.816  38.958  25.738  0.00  0.00     0.163 HD
BRANCH  41  43
ATOM     43  C19 L04 d          29.120  40.235  25.950  0.00  0.00     0.090 C 
ATOM     44  H20 L04 d          28.950  39.831  26.959  0.00  0.00     0.087 H 
BRANCH  43  45
ATOM     45  C27 L04 d          28.108  39.641  24.977  0.00  0.00     0.245 C 
ATOM     46  O28 L04 d          27.180  38.945  25.395  0.00  0.00    -0.271 OA
ATOM     47  N29 L04 d          28.259  39.984  23.697  0.00  0.00    -0.325 N 
ATOM     48  H47 L04 d          29.018  40.606  23.500  0.00  0.00     0.169 HD
BRANCH  47  49
ATOM     49  C30 L04 d          27.505  39.594  22.607  0.00  0.00     0.034 A 
ATOM     50  C35 L04 d          26.299  38.902  22.709  0.00  0.00    -0.057 A 
ATOM     51  C34 L04 d          25.591  38.529  21.569  0.00  0.00    -0.081 A 
ATOM     52  H39 L04 d          25.906  38.652  23.687  0.00  0.00     0.086 H 
ATOM     53  C33 L04 d          26.090  38.850  20.306  0.00  0.00    -0.083 A 
ATOM     54  H38 L04 d          24.655  37.990  21.662  0.00  0.00     0.083 H 
ATOM     55  C32 L04 d          27.292  39.538  20.193  0.00  0.00    -0.081 A 
ATOM     56  H37 L04 d          25.542  38.563  19.416  0.00  0.00     0.083 H 
ATOM     57  C31 L04 d          27.991  39.907  21.339  0.00  0.00    -0.057 A 
ATOM     58  H36 L04 d          27.685  39.787  19.214  0.00  0.00     0.083 H 
ATOM     59  H35 L04 d          28.927  40.446  21.244  0.00  0.00     0.086 H 
ENDBRANCH  47  49
ENDBRANCH  43  45
BRANCH  43  60
ATOM     60  C20 L04 d          28.972  41.758  25.986  0.00  0.00    -0.035 C 
ATOM     61  H21 L04 d          28.250  42.033  25.204  0.00  0.00     0.037 H 
ATOM     62  H22 L04 d          29.956  42.186  25.745  0.00  0.00     0.037 H 
BRANCH  60  63
ATOM     63  C21 L04 d          28.500  42.412  27.288  0.00  0.00    -0.059 C 
ATOM     64  H23 L04 d          28.600  43.503  27.198  0.00  0.00     0.038 H 
BRANCH  63  65
ATOM     65  C4  L04 d          27.038  42.059  27.495  0.00  0.00    -0.073 C 
ATOM     66  H4  L04 d          26.467  42.974  27.714  0.00  0.00     0.028 H 
ATOM     67  H5  L04 d          26.945  41.359  28.339  0.00  0.00     0.028 H 
ATOM     68  H6  L04 d          26.640  41.589  26.583  0.00  0.00     0.028 H 
ENDBRANCH  63  65
BRANCH  63  69
ATOM     69  C22 L04 d          29.344  41.940  28.472  0.00  0.00    -0.073 C 
ATOM     70  H24 L04 d          30.407  41.945  28.190  0.00  0.00     0.028 H 
ATOM     71  H25 L04 d          29.044  40.919  28.752  0.00  0.00     0.028 H 
ATOM     72  H26 L04 d          29.187  42.616  29.326  0.00  0.00     0.028 H 
ENDBRANCH  63  69
ENDBRANCH  60  63
ENDBRANCH  43  60
ENDBRANCH  41  43
ENDBRANCH   1  39
BRANCH   1  73
ATOM     73  C8  L04 d          33.279  41.269  23.572  0.00  0.00    -0.050 C 
ATOM     74  H9  L04 d          34.144  41.602  24.166  0.00  0.00     0.034 H 
ATOM     75  H10 L04 d          32.581  42.109  23.438  0.00  0.00     0.034 H 
BRANCH  73  76
ATOM     76  C9  L04 d          33.772  40.841  22.216  0.00  0.00    -0.040 C 
ATOM     77  H11 L04 d          33.520  41.633  21.496  0.00  0.00     0.040 H 
ATOM     78  H12 L04 d          33.250  39.914  21.939  0.00  0.00     0.040 H 
BRANCH  76  79
ATOM     79  C10 L04 d          35.246  40.589  22.134  0.00  0.00    -0.058 A 
ATOM     80  C15 L04 d          35.733  39.453  21.498  0.00  0.00    -0.076 A 
ATOM     81  C14 L04 d          37.098  39.230  21.389  0.00  0.00    -0.072 A 
ATOM     82  H16 L04 d          35.039  38.732  21.083  0.00  0.00     0.084 H 
ATOM     83  C13 L04 d          38.002  40.142  21.919  0.00  0.00    -0.026 A 
ATOM     84  H15 L04 d          37.462  38.340  20.888  0.00  0.00     0.084 H 
ATOM     85  C12 L04 d          37.511  41.277  22.558  0.00  0.00    -0.072 A 
ATOM     86  C11 L04 d          36.151  41.497  22.665  0.00  0.00    -0.076 A 
ATOM     87  H14 L04 d          38.205  41.997  22.978  0.00  0.00     0.084 H 
ATOM     88  H13 L04 d          35.788  42.387  23.168  0.00  0.00     0.084 H 
BRANCH  83  89
ATOM     89  C5  L04 d          39.453  39.923  21.810  0.00  0.00    -0.026 A 
ATOM     90  C43 L04 d          40.036  38.783  22.352  0.00  0.00    -0.069 A 
ATOM     91  C42 L04 d          41.406  38.578  22.259  0.00  0.00    -0.045 A 
ATOM     92  H45 L04 d          39.415  38.047  22.851  0.00  0.00     0.085 H 
ATOM     93  C41 L04 d          42.220  39.506  21.626  0.00  0.00     0.116 A 
ATOM     94  H44 L04 d          41.844  37.683  22.685  0.00  0.00     0.088 H 
ATOM     95  C17 L04 d          41.641  40.638  21.069  0.00  0.00    -0.045 A 
ATOM     96  F1  L04 d          43.551  39.303  21.556  0.00  0.00    -0.206 F 
ATOM     97  C6  L04 d          40.270  40.849  21.168  0.00  0.00    -0.069 A 
ATOM     98  H17 L04 d          42.263  41.363  20.555  0.00  0.00     0.088 H 
ATOM     99  H7  L04 d          39.832  41.743  20.740  0.00  0.00     0.085 H 
ENDBRANCH  83  89
ENDBRANCH  76  79
ENDBRANCH  73  76
ENDBRANCH   1  73
TORSDOF 20
ENDMDL
MODEL 10
REMARK VINA RESULT:     -10.5      1.860     10.236
REMARK  20 active torsions:
REMARK  status: ('A' for Active; 'I' for Inactive)
REMARK    1  A    between atoms: C1_1  and  C23_23 
REMARK    2  A    between atoms: C1_1  and  C2_2 
REMARK    3  A    between atoms: C2_2  and  C18_18 
REMARK    4  A    between atoms: C2_2  and  C3_3 
REMARK    5  A    between atoms: C21_21  and  C4_4 
REMARK    6  A    between atoms: C13_13  and  C5_5 
REMARK    7  A    between atoms: C18_18  and  C7_7 
REMARK    8  A    between atoms: C7_7  and  C16_16 
REMARK    9  A    between atoms: C7_7  and  C8_8 
REMARK   10  A    between atoms: C8_8  and  C9_9 
REMARK   11  A    between atoms: C9_9  and  C10_10 
REMARK       I    between atoms: C16_16  and  N18_45 
REMARK   12  A    between atoms: N18_45  and  C19_19 
REMARK   13  A    between atoms: C19_19  and  C27_27 
REMARK   14  A    between atoms: C19_19  and  C20_20 
REMARK   15  A    between atoms: C20_20  and  C21_21 
REMARK   16  A    between atoms: C21_21  and  C22_22 
REMARK   17  A    between atoms: C23_23  and  C24_24 
REMARK   18  A    between atoms: C24_24  and  C25_25 
REMARK   19  A    between atoms: C25_25  and  N1_44 
REMARK       I    between atoms: C27_27  and  N29_46 
REMARK   20  A    between atoms: N29_46  and  C30_30 
ROOT
ATOM      1  C7  L04 d          34.800  38.683  21.739  0.00  0.00     0.025 C 
ATOM      2  H8  L04 d          35.175  38.820  20.714  0.00  0.00     0.054 H 
ENDROOT
BRANCH   1   3
ATOM      3  C18 L04 d          35.908  39.064  22.719  0.00  0.00    -0.041 C 
ATOM      4  H18 L04 d          35.532  39.885  23.346  0.00  0.00     0.035 H 
ATOM      5  H19 L04 d          36.114  38.186  23.349  0.00  0.00     0.035 H 
BRANCH   3   6
ATOM      6  C2  L04 d          37.234  39.517  22.105  0.00  0.00     0.031 C 
ATOM      7  H3  L04 d          37.136  39.424  21.014  0.00  0.00     0.056 H 
BRANCH   6   8
ATOM      8  C1  L04 d          38.426  38.640  22.518  0.00  0.00    -0.052 C 
ATOM      9  H1  L04 d          38.836  39.038  23.458  0.00  0.00     0.034 H 
ATOM     10  H2  L04 d          38.060  37.616  22.683  0.00  0.00     0.034 H 
BRANCH   8  11
ATOM     11  C23 L04 d          39.547  38.586  21.495  0.00  0.00    -0.063 C 
ATOM     12  H27 L04 d          39.522  39.502  20.886  0.00  0.00     0.033 H 
ATOM     13  H28 L04 d          39.399  37.711  20.846  0.00  0.00     0.033 H 
BRANCH  11  14
ATOM     14  C24 L04 d          40.907  38.478  22.171  0.00  0.00    -0.050 C 
ATOM     15  H29 L04 d          41.163  39.451  22.616  0.00  0.00     0.035 H 
ATOM     16  H30 L04 d          41.660  38.210  21.415  0.00  0.00     0.035 H 
BRANCH  14  17
ATOM     17  C25 L04 d          40.910  37.420  23.265  0.00  0.00    -0.002 C 
ATOM     18  H31 L04 d          39.881  37.293  23.631  0.00  0.00     0.064 H 
ATOM     19  H32 L04 d          41.552  37.768  24.087  0.00  0.00     0.064 H 
BRANCH  17  20
ATOM     20  N1  L04 d          41.403  36.121  22.809  0.00  0.00    -0.344 N 
ATOM     21  C28 L04 d          40.654  35.049  22.141  0.00  0.00     0.023 A 
ATOM     22  C36 L04 d          41.746  34.016  21.868  0.00  0.00    -0.025 A 
ATOM     23  H33 L04 d          40.198  35.404  21.206  0.00  0.00     0.071 H 
ATOM     24  H34 L04 d          39.873  34.639  22.798  0.00  0.00     0.071 H 
ATOM     25  C29 L04 d          42.971  34.488  22.407  0.00  0.00     0.040 A 
ATOM     26  C38 L04 d          41.713  32.790  21.192  0.00  0.00    -0.074 A 
ATOM     27  C26 L04 d          42.704  35.799  23.012  0.00  0.00     0.254 A 
ATOM     28  C37 L04 d          44.137  33.723  22.259  0.00  0.00    -0.067 A 
ATOM     29  O1  L04 d          43.538  36.512  23.575  0.00  0.00    -0.267 OA
ATOM     30  C40 L04 d          44.080  32.514  21.583  0.00  0.00    -0.082 A 
ATOM     31  H40 L04 d          45.077  34.075  22.670  0.00  0.00     0.085 H 
ATOM     32  C39 L04 d          42.885  32.052  21.058  0.00  0.00    -0.082 A 
ATOM     33  H43 L04 d          44.982  31.924  21.465  0.00  0.00     0.083 H 
ATOM     34  H42 L04 d          42.863  31.103  20.535  0.00  0.00     0.083 H 
ATOM     35  H41 L04 d          40.783  32.420  20.777  0.00  0.00     0.084 H 
ENDBRANCH  17  20
ENDBRANCH  14  17
ENDBRANCH  11  14
ENDBRANCH   8  11
ENDBRANCH   6   8
BRANCH   6  36
ATOM     36  C3  L04 d          37.476  40.997  22.420  0.00  0.00     0.177 C 
ATOM     37  O5  L04 d          36.608  41.750  22.934  0.00  0.00    -0.648 OA
ATOM     38  O4  L04 d          38.573  41.467  22.109  0.00  0.00    -0.648 OA
ENDBRANCH   6  36
ENDBRANCH   3   6
ENDBRANCH   1   3
BRANCH   1  39
ATOM     39  C16 L04 d          33.577  39.565  21.945  0.00  0.00     0.222 C 
ATOM     40  O17 L04 d          33.560  40.430  22.824  0.00  0.00    -0.273 OA
ATOM     41  N18 L04 d          32.554  39.339  21.128  0.00  0.00    -0.347 N 
ATOM     42  H46 L04 d          32.638  38.638  20.419  0.00  0.00     0.163 HD
BRANCH  41  43
ATOM     43  C19 L04 d          31.314  40.092  21.246  0.00  0.00     0.090 C 
ATOM     44  H20 L04 d          31.539  41.138  21.501  0.00  0.00     0.087 H 
BRANCH  43  45
ATOM     45  C27 L04 d          30.496  39.452  22.363  0.00  0.00     0.245 C 
ATOM     46  O28 L04 d          30.452  38.224  22.475  0.00  0.00    -0.271 OA
ATOM     47  N29 L04 d          29.918  40.295  23.218  0.00  0.00    -0.325 N 
ATOM     48  H47 L04 d          30.083  41.267  23.049  0.00  0.00     0.169 HD
BRANCH  47  49
ATOM     49  C30 L04 d          29.120  40.003  24.307  0.00  0.00     0.034 A 
ATOM     50  C35 L04 d          29.555  40.083  25.629  0.00  0.00    -0.057 A 
ATOM     51  C34 L04 d          28.701  39.764  26.682  0.00  0.00    -0.081 A 
ATOM     52  H39 L04 d          30.570  40.397  25.840  0.00  0.00     0.086 H 
ATOM     53  C33 L04 d          27.392  39.361  26.418  0.00  0.00    -0.083 A 
ATOM     54  H38 L04 d          29.053  39.829  27.706  0.00  0.00     0.083 H 
ATOM     55  C32 L04 d          26.948  39.277  25.103  0.00  0.00    -0.081 A 
ATOM     56  H37 L04 d          26.724  39.114  27.235  0.00  0.00     0.083 H 
ATOM     57  C31 L04 d          27.809  39.598  24.058  0.00  0.00    -0.057 A 
ATOM     58  H36 L04 d          25.933  38.961  24.893  0.00  0.00     0.083 H 
ATOM     59  H35 L04 d          27.456  39.532  23.036  0.00  0.00     0.086 H 
ENDBRANCH  47  49
ENDBRANCH  43  45
BRANCH  43  60
ATOM     60  C20 L04 d          30.523  40.052  19.937  0.00  0.00    -0.035 C 
ATOM     61  H21 L04 d          30.391  38.994  19.669  0.00  0.00     0.037 H 
ATOM     62  H22 L04 d          31.135  40.552  19.172  0.00  0.00     0.037 H 
BRANCH  60  63
ATOM     63  C21 L04 d          29.137  40.703  19.904  0.00  0.00    -0.059 C 
ATOM     64  H23 L04 d          28.938  41.175  20.877  0.00  0.00     0.038 H 
BRANCH  63  65
ATOM     65  C4  L04 d          29.138  41.770  18.823  0.00  0.00    -0.073 C 
ATOM     66  H4  L04 d          30.173  42.068  18.602  0.00  0.00     0.028 H 
ATOM     67  H5  L04 d          28.571  42.646  19.172  0.00  0.00     0.028 H 
ATOM     68  H6  L04 d          28.669  41.369  17.912  0.00  0.00     0.028 H 
ENDBRANCH  63  65
BRANCH  63  69
ATOM     69  C22 L04 d          28.052  39.661  19.635  0.00  0.00    -0.073 C 
ATOM     70  H24 L04 d          27.918  39.032  20.528  0.00  0.00     0.028 H 
ATOM     71  H25 L04 d          28.351  39.031  18.785  0.00  0.00     0.028 H 
ATOM     72  H26 L04 d          27.105  40.170  19.400  0.00  0.00     0.028 H 
ENDBRANCH  63  69
ENDBRANCH  60  63
ENDBRANCH  43  60
ENDBRANCH  41  43
ENDBRANCH   1  39
BRANCH   1  73
ATOM     73  C8  L04 d          34.378  37.222  21.924  0.00  0.00    -0.050 C 
ATOM     74  H9  L04 d          35.286  36.600  21.949  0.00  0.00     0.034 H 
ATOM     75  H10 L04 d          33.758  36.930  21.064  0.00  0.00     0.034 H 
BRANCH  73  76
ATOM     76  C9  L04 d          33.594  36.965  23.183  0.00  0.00    -0.040 C 
ATOM     77  H11 L04 d          32.644  36.490  22.902  0.00  0.00     0.040 H 
ATOM     78  H12 L04 d          33.391  37.934  23.662  0.00  0.00     0.040 H 
BRANCH  76  79
ATOM     79  C10 L04 d          34.279  36.085  24.182  0.00  0.00    -0.058 A 
ATOM     80  C15 L04 d          34.571  36.557  25.456  0.00  0.00    -0.076 A 
ATOM     81  C14 L04 d          35.175  35.735  26.397  0.00  0.00    -0.072 A 
ATOM     82  H16 L04 d          34.324  37.579  25.719  0.00  0.00     0.084 H 
ATOM     83  C13 L04 d          35.500  34.423  26.077  0.00  0.00    -0.026 A 
ATOM     84  H15 L04 d          35.393  36.118  27.387  0.00  0.00     0.084 H 
ATOM     85  C12 L04 d          35.210  33.955  24.799  0.00  0.00    -0.072 A 
ATOM     86  C11 L04 d          34.608  34.775  23.863  0.00  0.00    -0.076 A 
ATOM     87  H14 L04 d          35.460  32.934  24.533  0.00  0.00     0.084 H 
ATOM     88  H13 L04 d          34.392  34.392  22.872  0.00  0.00     0.084 H 
BRANCH  83  89
ATOM     89  C5  L04 d          36.139  33.537  27.063  0.00  0.00    -0.026 A 
ATOM     90  C43 L04 d          36.845  34.070  28.135  0.00  0.00    -0.069 A 
ATOM     91  C42 L04 d          37.456  33.237  29.063  0.00  0.00    -0.045 A 
ATOM     92  H45 L04 d          36.919  35.146  28.249  0.00  0.00     0.085 H 
ATOM     93  C41 L04 d          37.376  31.858  28.936  0.00  0.00     0.116 A 
ATOM     94  H44 L04 d          38.002  33.668  29.893  0.00  0.00     0.088 H 
ATOM     95  C17 L04 d          36.659  31.320  27.876  0.00  0.00    -0.045 A 
ATOM     96  F1  L04 d          37.988  31.058  29.834  0.00  0.00    -0.206 F 
ATOM     97  C6  L04 d          36.052  32.154  26.943  0.00  0.00    -0.069 A 
ATOM     98  H17 L04 d          36.572  30.244  27.775  0.00  0.00     0.088 H 
ATOM     99  H7  L04 d          35.505  31.721  26.113  0.00  0.00     0.085 H 
ENDBRANCH  83  89
ENDBRANCH  76  79
ENDBRANCH  73  76
ENDBRANCH   1  73
TORSDOF 20
ENDMDL
