MODEL 1
REMARK VINA RESULT:      -4.2      0.000      0.000
REMARK  13 active torsions:
REMARK  status: ('A' for Active; 'I' for Inactive)
REMARK    1  A    between atoms: N1_1  and  C2_2 
REMARK    2  A    between atoms: C2_2  and  C3_3 
REMARK    3  A    between atoms: C3_3  and  C4_4 
REMARK    4  A    between atoms: C4_4  and  N5_5 
REMARK    5  A    between atoms: N5_5  and  C6_6 
REMARK    6  A    between atoms: C6_6  and  C7_7 
REMARK    7  A    between atoms: C7_7  and  C8_8 
REMARK    8  A    between atoms: C8_8  and  C9_9 
REMARK    9  A    between atoms: C9_9  and  N10_10 
REMARK   10  A    between atoms: N10_10  and  C11_11 
REMARK   11  A    between atoms: C11_11  and  C12_12 
REMARK   12  A    between atoms: C12_12  and  C13_13 
REMARK   13  A    between atoms: C13_13  and  N14_14 
ROOT
ATOM      1  C7  SPM d          -5.583   5.319  14.809  0.00  0.00    -0.041 C 
ATOM      2  H14 SPM d          -4.489   5.393  14.732  0.00  0.00     0.035 H 
ATOM      3  H15 SPM d          -5.907   5.690  15.793  0.00  0.00     0.035 H 
ENDROOT
BRANCH   1   4
ATOM      4  C6  SPM d          -6.043   3.893  14.592  0.00  0.00     0.082 C 
ATOM      5  H12 SPM d          -6.951   3.731  15.193  0.00  0.00     0.075 H 
ATOM      6  H13 SPM d          -6.283   3.770  13.526  0.00  0.00     0.075 H 
BRANCH   4   7
ATOM      7  N5  SPM d          -5.073   2.876  14.958  0.00  0.00    -0.075 N 
ATOM      8  H10 SPM d          -5.198   2.100  14.325  0.00  0.00     0.277 HD
ATOM      9  H11 SPM d          -4.156   3.273  14.824  0.00  0.00     0.277 HD
BRANCH   7  10
ATOM     10  C4  SPM d          -5.122   2.347  16.301  0.00  0.00     0.083 C 
ATOM     11  H8  SPM d          -4.884   1.274  16.255  0.00  0.00     0.075 H 
ATOM     12  H9  SPM d          -4.360   2.867  16.901  0.00  0.00     0.075 H 
BRANCH  10  13
ATOM     13  C3  SPM d          -6.473   2.507  17.004  0.00  0.00    -0.020 C 
ATOM     14  H6  SPM d          -6.326   3.075  17.935  0.00  0.00     0.037 H 
ATOM     15  H7  SPM d          -7.157   3.059  16.342  0.00  0.00     0.037 H 
BRANCH  13  16
ATOM     16  C2  SPM d          -7.092   1.168  17.341  0.00  0.00     0.081 C 
ATOM     17  H4  SPM d          -7.774   1.275  18.197  0.00  0.00     0.075 H 
ATOM     18  H5  SPM d          -7.650   0.786  16.474  0.00  0.00     0.075 H 
BRANCH  16  19
ATOM     19  N1  SPM d          -6.024   0.259  17.677  0.00  0.00    -0.079 N 
ATOM     20  H1  SPM d          -5.616  -0.107  16.831  0.00  0.00     0.274 HD
ATOM     21  H2  SPM d          -6.389  -0.500  18.230  0.00  0.00     0.274 HD
ATOM     22  H3  SPM d          -5.319   0.750  18.205  0.00  0.00     0.274 HD
ENDBRANCH  16  19
ENDBRANCH  13  16
ENDBRANCH  10  13
ENDBRANCH   7  10
ENDBRANCH   4   7
ENDBRANCH   1   4
BRANCH   1  23
ATOM     23  C8  SPM d          -6.257   6.094  13.691  0.00  0.00    -0.041 C 
ATOM     24  H16 SPM d          -6.793   6.962  14.102  0.00  0.00     0.035 H 
ATOM     25  H17 SPM d          -6.967   5.446  13.155  0.00  0.00     0.035 H 
BRANCH  23  26
ATOM     26  C9  SPM d          -5.169   6.551  12.759  0.00  0.00     0.082 C 
ATOM     27  H18 SPM d          -5.440   7.529  12.336  0.00  0.00     0.075 H 
ATOM     28  H19 SPM d          -5.056   5.818  11.946  0.00  0.00     0.075 H 
BRANCH  26  29
ATOM     29  N10 SPM d          -3.919   6.669  13.471  0.00  0.00    -0.075 N 
ATOM     30  H20 SPM d          -3.815   5.808  13.987  0.00  0.00     0.277 HD
ATOM     31  H21 SPM d          -4.043   7.434  14.115  0.00  0.00     0.277 HD
BRANCH  29  32
ATOM     32  C11 SPM d          -2.657   6.896  12.833  0.00  0.00     0.083 C 
ATOM     33  H22 SPM d          -2.406   7.964  12.893  0.00  0.00     0.075 H 
ATOM     34  H23 SPM d          -2.723   6.592  11.777  0.00  0.00     0.075 H 
BRANCH  32  35
ATOM     35  C12 SPM d          -1.578   6.086  13.523  0.00  0.00    -0.020 C 
ATOM     36  H24 SPM d          -1.310   6.586  14.466  0.00  0.00     0.037 H 
ATOM     37  H25 SPM d          -0.696   6.043  12.867  0.00  0.00     0.037 H 
BRANCH  35  38
ATOM     38  C13 SPM d          -2.028   4.661  13.835  0.00  0.00     0.081 C 
ATOM     39  H26 SPM d          -1.639   3.985  13.059  0.00  0.00     0.075 H 
ATOM     40  H27 SPM d          -3.127   4.623  13.836  0.00  0.00     0.075 H 
BRANCH  38  41
ATOM     41  N14 SPM d          -1.538   4.228  15.127  0.00  0.00    -0.079 N 
ATOM     42  H28 SPM d          -0.806   4.849  15.434  0.00  0.00     0.274 HD
ATOM     43  H29 SPM d          -1.174   3.291  15.052  0.00  0.00     0.274 HD
ATOM     44  H30 SPM d          -2.293   4.242  15.794  0.00  0.00     0.274 HD
ENDBRANCH  38  41
ENDBRANCH  35  38
ENDBRANCH  32  35
ENDBRANCH  29  32
ENDBRANCH  26  29
ENDBRANCH  23  26
ENDBRANCH   1  23
TORSDOF 13
ENDMDL
MODEL 2
REMARK VINA RESULT:      -4.1      0.680      5.491
REMARK  13 active torsions:
REMARK  status: ('A' for Active; 'I' for Inactive)
REMARK    1  A    between atoms: N1_1  and  C2_2 
REMARK    2  A    between atoms: C2_2  and  C3_3 
REMARK    3  A    between atoms: C3_3  and  C4_4 
REMARK    4  A    between atoms: C4_4  and  N5_5 
REMARK    5  A    between atoms: N5_5  and  C6_6 
REMARK    6  A    between atoms: C6_6  and  C7_7 
REMARK    7  A    between atoms: C7_7  and  C8_8 
REMARK    8  A    between atoms: C8_8  and  C9_9 
REMARK    9  A    between atoms: C9_9  and  N10_10 
REMARK   10  A    between atoms: N10_10  and  C11_11 
REMARK   11  A    between atoms: C11_11  and  C12_12 
REMARK   12  A    between atoms: C12_12  and  C13_13 
REMARK   13  A    between atoms: C13_13  and  N14_14 
ROOT
ATOM      1  C7  SPM d          -6.022   6.264  13.504  0.00  0.00    -0.041 C 
ATOM      2  H14 SPM d          -6.931   5.856  13.038  0.00  0.00     0.035 H 
ATOM      3  H15 SPM d          -6.159   7.339  13.694  0.00  0.00     0.035 H 
ENDROOT
BRANCH   1   4
ATOM      4  C6  SPM d          -4.812   6.022  12.627  0.00  0.00     0.082 C 
ATOM      5  H12 SPM d          -4.350   5.072  12.936  0.00  0.00     0.075 H 
ATOM      6  H13 SPM d          -5.156   5.939  11.585  0.00  0.00     0.075 H 
BRANCH   4   7
ATOM      7  N5  SPM d          -3.797   7.059  12.686  0.00  0.00    -0.075 N 
ATOM      8  H10 SPM d          -3.788   7.523  11.791  0.00  0.00     0.277 HD
ATOM      9  H11 SPM d          -4.076   7.713  13.401  0.00  0.00     0.277 HD
BRANCH   7  10
ATOM     10  C4  SPM d          -2.440   6.659  12.976  0.00  0.00     0.083 C 
ATOM     11  H8  SPM d          -2.228   5.736  12.416  0.00  0.00     0.075 H 
ATOM     12  H9  SPM d          -1.767   7.459  12.634  0.00  0.00     0.075 H 
BRANCH  10  13
ATOM     13  C3  SPM d          -2.151   6.394  14.458  0.00  0.00    -0.020 C 
ATOM     14  H6  SPM d          -1.252   6.956  14.752  0.00  0.00     0.037 H 
ATOM     15  H7  SPM d          -3.009   6.738  15.055  0.00  0.00     0.037 H 
BRANCH  13  16
ATOM     16  C2  SPM d          -1.921   4.924  14.730  0.00  0.00     0.081 C 
ATOM     17  H4  SPM d          -1.219   4.803  15.567  0.00  0.00     0.075 H 
ATOM     18  H5  SPM d          -2.875   4.436  14.979  0.00  0.00     0.075 H 
BRANCH  16  19
ATOM     19  N1  SPM d          -1.367   4.335  13.536  0.00  0.00    -0.079 N 
ATOM     20  H1  SPM d          -0.363   4.428  13.550  0.00  0.00     0.274 HD
ATOM     21  H2  SPM d          -1.737   4.805  12.726  0.00  0.00     0.274 HD
ATOM     22  H3  SPM d          -1.613   3.358  13.498  0.00  0.00     0.274 HD
ENDBRANCH  16  19
ENDBRANCH  13  16
ENDBRANCH  10  13
ENDBRANCH   7  10
ENDBRANCH   4   7
ENDBRANCH   1   4
BRANCH   1  23
ATOM     23  C8  SPM d          -5.695   5.526  14.789  0.00  0.00    -0.041 C 
ATOM     24  H16 SPM d          -6.236   5.978  15.633  0.00  0.00     0.035 H 
ATOM     25  H17 SPM d          -4.613   5.564  14.984  0.00  0.00     0.035 H 
BRANCH  23  26
ATOM     26  C9  SPM d          -6.136   4.100  14.597  0.00  0.00     0.082 C 
ATOM     27  H18 SPM d          -6.371   3.933  13.536  0.00  0.00     0.075 H 
ATOM     28  H19 SPM d          -7.033   3.912  15.206  0.00  0.00     0.075 H 
BRANCH  26  29
ATOM     29  N10 SPM d          -5.087   3.195  15.002  0.00  0.00    -0.075 N 
ATOM     30  H20 SPM d          -4.250   3.755  15.062  0.00  0.00     0.277 HD
ATOM     31  H21 SPM d          -4.994   2.530  14.251  0.00  0.00     0.277 HD
BRANCH  29  32
ATOM     32  C11 SPM d          -5.124   2.421  16.206  0.00  0.00     0.083 C 
ATOM     33  H22 SPM d          -4.364   2.798  16.906  0.00  0.00     0.075 H 
ATOM     34  H23 SPM d          -4.915   1.367  15.968  0.00  0.00     0.075 H 
BRANCH  32  35
ATOM     35  C12 SPM d          -6.493   2.529  16.846  0.00  0.00    -0.020 C 
ATOM     36  H24 SPM d          -7.179   3.011  16.134  0.00  0.00     0.037 H 
ATOM     37  H25 SPM d          -6.411   3.147  17.752  0.00  0.00     0.037 H 
BRANCH  35  38
ATOM     38  C13 SPM d          -7.066   1.167  17.232  0.00  0.00     0.081 C 
ATOM     39  H26 SPM d          -7.542   0.715  16.350  0.00  0.00     0.075 H 
ATOM     40  H27 SPM d          -7.818   1.306  18.023  0.00  0.00     0.075 H 
BRANCH  38  41
ATOM     41  N14 SPM d          -6.028   0.281  17.716  0.00  0.00    -0.079 N 
ATOM     42  H28 SPM d          -5.145   0.542  17.305  0.00  0.00     0.274 HD
ATOM     43  H29 SPM d          -6.250  -0.669  17.459  0.00  0.00     0.274 HD
ATOM     44  H30 SPM d          -5.967   0.351  18.719  0.00  0.00     0.274 HD
ENDBRANCH  38  41
ENDBRANCH  35  38
ENDBRANCH  32  35
ENDBRANCH  29  32
ENDBRANCH  26  29
ENDBRANCH  23  26
ENDBRANCH   1  23
TORSDOF 13
ENDMDL
MODEL 3
REMARK VINA RESULT:      -3.9      1.931      3.199
REMARK  13 active torsions:
REMARK  status: ('A' for Active; 'I' for Inactive)
REMARK    1  A    between atoms: N1_1  and  C2_2 
REMARK    2  A    between atoms: C2_2  and  C3_3 
REMARK    3  A    between atoms: C3_3  and  C4_4 
REMARK    4  A    between atoms: C4_4  and  N5_5 
REMARK    5  A    between atoms: N5_5  and  C6_6 
REMARK    6  A    between atoms: C6_6  and  C7_7 
REMARK    7  A    between atoms: C7_7  and  C8_8 
REMARK    8  A    between atoms: C8_8  and  C9_9 
REMARK    9  A    between atoms: C9_9  and  N10_10 
REMARK   10  A    between atoms: N10_10  and  C11_11 
REMARK   11  A    between atoms: C11_11  and  C12_12 
REMARK   12  A    between atoms: C12_12  and  C13_13 
REMARK   13  A    between atoms: C13_13  and  N14_14 
ROOT
ATOM      1  C7  SPM d          -3.859   3.252  12.056  0.00  0.00    -0.041 C 
ATOM      2  H14 SPM d          -4.161   3.912  12.882  0.00  0.00     0.035 H 
ATOM      3  H15 SPM d          -4.329   3.595  11.123  0.00  0.00     0.035 H 
ENDROOT
BRANCH   1   4
ATOM      4  C6  SPM d          -4.233   1.814  12.352  0.00  0.00     0.082 C 
ATOM      5  H12 SPM d          -5.257   1.645  11.986  0.00  0.00     0.075 H 
ATOM      6  H13 SPM d          -3.537   1.161  11.805  0.00  0.00     0.075 H 
BRANCH   4   7
ATOM      7  N5  SPM d          -4.189   1.448  13.756  0.00  0.00    -0.075 N 
ATOM      8  H10 SPM d          -4.635   0.547  13.846  0.00  0.00     0.277 HD
ATOM      9  H11 SPM d          -3.218   1.368  14.016  0.00  0.00     0.277 HD
BRANCH   7  10
ATOM     10  C4  SPM d          -4.817   2.336  14.706  0.00  0.00     0.083 C 
ATOM     11  H8  SPM d          -4.552   3.369  14.436  0.00  0.00     0.075 H 
ATOM     12  H9  SPM d          -5.906   2.204  14.628  0.00  0.00     0.075 H 
BRANCH  10  13
ATOM     13  C3  SPM d          -4.412   2.105  16.166  0.00  0.00    -0.020 C 
ATOM     14  H6  SPM d          -3.713   1.258  16.212  0.00  0.00     0.037 H 
ATOM     15  H7  SPM d          -3.916   3.011  16.545  0.00  0.00     0.037 H 
BRANCH  13  16
ATOM     16  C2  SPM d          -5.610   1.800  17.038  0.00  0.00     0.081 C 
ATOM     17  H4  SPM d          -6.006   0.803  16.794  0.00  0.00     0.075 H 
ATOM     18  H5  SPM d          -5.318   1.828  18.098  0.00  0.00     0.075 H 
BRANCH  16  19
ATOM     19  N1  SPM d          -6.613   2.803  16.778  0.00  0.00    -0.079 N 
ATOM     20  H1  SPM d          -6.442   3.608  17.360  0.00  0.00     0.274 HD
ATOM     21  H2  SPM d          -7.525   2.427  16.985  0.00  0.00     0.274 HD
ATOM     22  H3  SPM d          -6.575   3.073  15.808  0.00  0.00     0.274 HD
ENDBRANCH  16  19
ENDBRANCH  13  16
ENDBRANCH  10  13
ENDBRANCH   7  10
ENDBRANCH   4   7
ENDBRANCH   1   4
BRANCH   1  23
ATOM     23  C8  SPM d          -2.348   3.215  11.919  0.00  0.00    -0.041 C 
ATOM     24  H16 SPM d          -2.067   3.102  10.862  0.00  0.00     0.035 H 
ATOM     25  H17 SPM d          -1.935   2.376  12.499  0.00  0.00     0.035 H 
BRANCH  23  26
ATOM     26  C9  SPM d          -1.829   4.520  12.456  0.00  0.00     0.082 C 
ATOM     27  H18 SPM d          -2.616   5.284  12.376  0.00  0.00     0.075 H 
ATOM     28  H19 SPM d          -0.954   4.833  11.867  0.00  0.00     0.075 H 
BRANCH  26  29
ATOM     29  N10 SPM d          -1.445   4.373  13.839  0.00  0.00    -0.075 N 
ATOM     30  H20 SPM d          -0.524   4.776  13.913  0.00  0.00     0.277 HD
ATOM     31  H21 SPM d          -1.392   3.381  14.005  0.00  0.00     0.277 HD
BRANCH  29  32
ATOM     32  C11 SPM d          -2.194   4.911  14.935  0.00  0.00     0.083 C 
ATOM     33  H22 SPM d          -1.506   5.174  15.753  0.00  0.00     0.075 H 
ATOM     34  H23 SPM d          -2.915   4.159  15.289  0.00  0.00     0.075 H 
BRANCH  32  35
ATOM     35  C12 SPM d          -2.940   6.152  14.489  0.00  0.00    -0.020 C 
ATOM     36  H24 SPM d          -2.649   6.387  13.455  0.00  0.00     0.037 H 
ATOM     37  H25 SPM d          -2.661   6.988  15.148  0.00  0.00     0.037 H 
BRANCH  35  38
ATOM     38  C13 SPM d          -4.456   5.972  14.542  0.00  0.00     0.081 C 
ATOM     39  H26 SPM d          -4.862   6.587  15.357  0.00  0.00     0.075 H 
ATOM     40  H27 SPM d          -4.684   4.913  14.733  0.00  0.00     0.075 H 
BRANCH  38  41
ATOM     41  N14 SPM d          -5.074   6.371  13.295  0.00  0.00    -0.079 N 
ATOM     42  H28 SPM d          -6.071   6.451  13.425  0.00  0.00     0.274 HD
ATOM     43  H29 SPM d          -4.883   5.679  12.587  0.00  0.00     0.274 HD
ATOM     44  H30 SPM d          -4.700   7.261  13.004  0.00  0.00     0.274 HD
ENDBRANCH  38  41
ENDBRANCH  35  38
ENDBRANCH  32  35
ENDBRANCH  29  32
ENDBRANCH  26  29
ENDBRANCH  23  26
ENDBRANCH   1  23
TORSDOF 13
ENDMDL
MODEL 4
REMARK VINA RESULT:      -3.7      1.800      5.928
REMARK  13 active torsions:
REMARK  status: ('A' for Active; 'I' for Inactive)
REMARK    1  A    between atoms: N1_1  and  C2_2 
REMARK    2  A    between atoms: C2_2  and  C3_3 
REMARK    3  A    between atoms: C3_3  and  C4_4 
REMARK    4  A    between atoms: C4_4  and  N5_5 
REMARK    5  A    between atoms: N5_5  and  C6_6 
REMARK    6  A    between atoms: C6_6  and  C7_7 
REMARK    7  A    between atoms: C7_7  and  C8_8 
REMARK    8  A    between atoms: C8_8  and  C9_9 
REMARK    9  A    between atoms: C9_9  and  N10_10 
REMARK   10  A    between atoms: N10_10  and  C11_11 
REMARK   11  A    between atoms: C11_11  and  C12_12 
REMARK   12  A    between atoms: C12_12  and  C13_13 
REMARK   13  A    between atoms: C13_13  and  N14_14 
ROOT
ATOM      1  C7  SPM d          -3.264   2.513  12.225  0.00  0.00    -0.041 C 
ATOM      2  H14 SPM d          -2.898   1.846  13.019  0.00  0.00     0.035 H 
ATOM      3  H15 SPM d          -3.334   1.954  11.280  0.00  0.00     0.035 H 
ENDROOT
BRANCH   1   4
ATOM      4  C6  SPM d          -2.360   3.718  12.073  0.00  0.00     0.082 C 
ATOM      5  H12 SPM d          -1.771   3.590  11.153  0.00  0.00     0.075 H 
ATOM      6  H13 SPM d          -2.995   4.612  11.979  0.00  0.00     0.075 H 
BRANCH   4   7
ATOM      7  N5  SPM d          -1.438   3.933  13.174  0.00  0.00    -0.075 N 
ATOM      8  H10 SPM d          -1.394   3.074  13.702  0.00  0.00     0.277 HD
ATOM      9  H11 SPM d          -0.533   4.127  12.774  0.00  0.00     0.277 HD
BRANCH   7  10
ATOM     10  C4  SPM d          -1.734   4.996  14.105  0.00  0.00     0.083 C 
ATOM     11  H8  SPM d          -2.704   4.777  14.577  0.00  0.00     0.075 H 
ATOM     12  H9  SPM d          -0.946   5.007  14.873  0.00  0.00     0.075 H 
BRANCH  10  13
ATOM     13  C3  SPM d          -1.811   6.393  13.481  0.00  0.00    -0.020 C 
ATOM     14  H6  SPM d          -0.879   6.933  13.700  0.00  0.00     0.037 H 
ATOM     15  H7  SPM d          -1.929   6.291  12.392  0.00  0.00     0.037 H 
BRANCH  13  16
ATOM     16  C2  SPM d          -2.977   7.187  14.028  0.00  0.00     0.081 C 
ATOM     17  H4  SPM d          -2.885   7.285  15.119  0.00  0.00     0.075 H 
ATOM     18  H5  SPM d          -2.995   8.187  13.570  0.00  0.00     0.075 H 
BRANCH  16  19
ATOM     19  N1  SPM d          -4.189   6.476  13.700  0.00  0.00    -0.079 N 
ATOM     20  H1  SPM d          -3.956   5.597  13.266  0.00  0.00     0.274 HD
ATOM     21  H2  SPM d          -4.742   7.029  13.065  0.00  0.00     0.274 HD
ATOM     22  H3  SPM d          -4.716   6.306  14.542  0.00  0.00     0.274 HD
ENDBRANCH  16  19
ENDBRANCH  13  16
ENDBRANCH  10  13
ENDBRANCH   7  10
ENDBRANCH   4   7
ENDBRANCH   1   4
BRANCH   1  23
ATOM     23  C8  SPM d          -4.609   3.111  12.600  0.00  0.00    -0.041 C 
ATOM     24  H16 SPM d          -5.408   2.644  12.007  0.00  0.00     0.035 H 
ATOM     25  H17 SPM d          -4.604   4.196  12.420  0.00  0.00     0.035 H 
BRANCH  23  26
ATOM     26  C9  SPM d          -4.818   2.830  14.063  0.00  0.00     0.082 C 
ATOM     27  H18 SPM d          -5.896   2.762  14.269  0.00  0.00     0.075 H 
ATOM     28  H19 SPM d          -4.382   3.648  14.655  0.00  0.00     0.075 H 
BRANCH  26  29
ATOM     29  N10 SPM d          -4.183   1.586  14.428  0.00  0.00    -0.075 N 
ATOM     30  H20 SPM d          -3.215   1.812  14.597  0.00  0.00     0.277 HD
ATOM     31  H21 SPM d          -4.254   0.994  13.615  0.00  0.00     0.277 HD
BRANCH  29  32
ATOM     32  C11 SPM d          -4.595   0.778  15.536  0.00  0.00     0.083 C 
ATOM     33  H22 SPM d          -3.723   0.243  15.941  0.00  0.00     0.075 H 
ATOM     34  H23 SPM d          -5.347   0.050  15.197  0.00  0.00     0.075 H 
BRANCH  32  35
ATOM     35  C12 SPM d          -5.194   1.653  16.618  0.00  0.00    -0.020 C 
ATOM     36  H24 SPM d          -5.704   2.504  16.142  0.00  0.00     0.037 H 
ATOM     37  H25 SPM d          -4.382   2.025  17.261  0.00  0.00     0.037 H 
BRANCH  35  38
ATOM     38  C13 SPM d          -6.201   0.901  17.485  0.00  0.00     0.081 C 
ATOM     39  H26 SPM d          -6.033   1.165  18.540  0.00  0.00     0.075 H 
ATOM     40  H27 SPM d          -6.053  -0.181  17.351  0.00  0.00     0.075 H 
BRANCH  38  41
ATOM     41  N14 SPM d          -7.561   1.241  17.123  0.00  0.00    -0.079 N 
ATOM     42  H28 SPM d          -7.957   1.838  17.832  0.00  0.00     0.274 HD
ATOM     43  H29 SPM d          -8.110   0.399  17.048  0.00  0.00     0.274 HD
ATOM     44  H30 SPM d          -7.563   1.723  16.238  0.00  0.00     0.274 HD
ENDBRANCH  38  41
ENDBRANCH  35  38
ENDBRANCH  32  35
ENDBRANCH  29  32
ENDBRANCH  26  29
ENDBRANCH  23  26
ENDBRANCH   1  23
TORSDOF 13
ENDMDL
MODEL 5
REMARK VINA RESULT:      -3.6      2.206      3.228
REMARK  13 active torsions:
REMARK  status: ('A' for Active; 'I' for Inactive)
REMARK    1  A    between atoms: N1_1  and  C2_2 
REMARK    2  A    between atoms: C2_2  and  C3_3 
REMARK    3  A    between atoms: C3_3  and  C4_4 
REMARK    4  A    between atoms: C4_4  and  N5_5 
REMARK    5  A    between atoms: N5_5  and  C6_6 
REMARK    6  A    between atoms: C6_6  and  C7_7 
REMARK    7  A    between atoms: C7_7  and  C8_8 
REMARK    8  A    between atoms: C8_8  and  C9_9 
REMARK    9  A    between atoms: C9_9  and  N10_10 
REMARK   10  A    between atoms: N10_10  and  C11_11 
REMARK   11  A    between atoms: C11_11  and  C12_12 
REMARK   12  A    between atoms: C12_12  and  C13_13 
REMARK   13  A    between atoms: C13_13  and  N14_14 
ROOT
ATOM      1  C7  SPM d          -3.443   6.540  14.598  0.00  0.00    -0.041 C 
ATOM      2  H14 SPM d          -3.022   7.356  15.203  0.00  0.00     0.035 H 
ATOM      3  H15 SPM d          -3.704   6.921  13.600  0.00  0.00     0.035 H 
ENDROOT
BRANCH   1   4
ATOM      4  C6  SPM d          -4.654   5.935  15.277  0.00  0.00     0.082 C 
ATOM      5  H12 SPM d          -4.305   5.352  16.143  0.00  0.00     0.075 H 
ATOM      6  H13 SPM d          -5.296   6.757  15.625  0.00  0.00     0.075 H 
BRANCH   4   7
ATOM      7  N5  SPM d          -5.453   5.061  14.436  0.00  0.00    -0.075 N 
ATOM      8  H10 SPM d          -6.252   5.592  14.124  0.00  0.00     0.277 HD
ATOM      9  H11 SPM d          -4.887   4.809  13.642  0.00  0.00     0.277 HD
BRANCH   7  10
ATOM     10  C4  SPM d          -5.951   3.837  15.017  0.00  0.00     0.083 C 
ATOM     11  H8  SPM d          -6.701   4.099  15.778  0.00  0.00     0.075 H 
ATOM     12  H9  SPM d          -6.428   3.249  14.219  0.00  0.00     0.075 H 
BRANCH  10  13
ATOM     13  C3  SPM d          -4.884   2.961  15.682  0.00  0.00    -0.020 C 
ATOM     14  H6  SPM d          -3.973   2.979  15.065  0.00  0.00     0.037 H 
ATOM     15  H7  SPM d          -4.659   3.368  16.679  0.00  0.00     0.037 H 
BRANCH  13  16
ATOM     16  C2  SPM d          -5.347   1.528  15.830  0.00  0.00     0.081 C 
ATOM     17  H4  SPM d          -5.885   1.405  16.781  0.00  0.00     0.075 H 
ATOM     18  H5  SPM d          -6.013   1.263  14.996  0.00  0.00     0.075 H 
BRANCH  16  19
ATOM     19  N1  SPM d          -4.180   0.682  15.814  0.00  0.00    -0.079 N 
ATOM     20  H1  SPM d          -4.061   0.291  14.892  0.00  0.00     0.274 HD
ATOM     21  H2  SPM d          -4.296  -0.063  16.482  0.00  0.00     0.274 HD
ATOM     22  H3  SPM d          -3.367   1.226  16.056  0.00  0.00     0.274 HD
ENDBRANCH  16  19
ENDBRANCH  13  16
ENDBRANCH  10  13
ENDBRANCH   7  10
ENDBRANCH   4   7
ENDBRANCH   1   4
BRANCH   1  23
ATOM     23  C8  SPM d          -2.465   5.383  14.497  0.00  0.00    -0.041 C 
ATOM     24  H16 SPM d          -3.012   4.430  14.447  0.00  0.00     0.035 H 
ATOM     25  H17 SPM d          -1.795   5.376  15.369  0.00  0.00     0.035 H 
BRANCH  23  26
ATOM     26  C9  SPM d          -1.672   5.592  13.236  0.00  0.00     0.082 C 
ATOM     27  H18 SPM d          -0.625   5.305  13.414  0.00  0.00     0.075 H 
ATOM     28  H19 SPM d          -1.718   6.653  12.949  0.00  0.00     0.075 H 
BRANCH  26  29
ATOM     29  N10 SPM d          -2.212   4.786  12.168  0.00  0.00    -0.075 N 
ATOM     30  H20 SPM d          -1.507   4.779  11.446  0.00  0.00     0.277 HD
ATOM     31  H21 SPM d          -3.026   5.279  11.838  0.00  0.00     0.277 HD
BRANCH  29  32
ATOM     32  C11 SPM d          -2.620   3.422  12.327  0.00  0.00     0.083 C 
ATOM     33  H22 SPM d          -2.501   3.126  13.379  0.00  0.00     0.075 H 
ATOM     34  H23 SPM d          -1.993   2.778  11.691  0.00  0.00     0.075 H 
BRANCH  32  35
ATOM     35  C12 SPM d          -4.072   3.268  11.922  0.00  0.00    -0.020 C 
ATOM     36  H24 SPM d          -4.168   3.509  10.854  0.00  0.00     0.037 H 
ATOM     37  H25 SPM d          -4.679   3.970  12.513  0.00  0.00     0.037 H 
BRANCH  35  38
ATOM     38  C13 SPM d          -4.595   1.852  12.155  0.00  0.00     0.081 C 
ATOM     39  H26 SPM d          -5.233   1.562  11.308  0.00  0.00     0.075 H 
ATOM     40  H27 SPM d          -5.187   1.836  13.082  0.00  0.00     0.075 H 
BRANCH  38  41
ATOM     41  N14 SPM d          -3.506   0.904  12.271  0.00  0.00    -0.079 N 
ATOM     42  H28 SPM d          -2.951   1.129  13.082  0.00  0.00     0.274 HD
ATOM     43  H29 SPM d          -2.929   0.951  11.446  0.00  0.00     0.274 HD
ATOM     44  H30 SPM d          -3.880  -0.027  12.367  0.00  0.00     0.274 HD
ENDBRANCH  38  41
ENDBRANCH  35  38
ENDBRANCH  32  35
ENDBRANCH  29  32
ENDBRANCH  26  29
ENDBRANCH  23  26
ENDBRANCH   1  23
TORSDOF 13
ENDMDL
MODEL 6
REMARK VINA RESULT:      -3.4      1.799      5.173
REMARK  13 active torsions:
REMARK  status: ('A' for Active; 'I' for Inactive)
REMARK    1  A    between atoms: N1_1  and  C2_2 
REMARK    2  A    between atoms: C2_2  and  C3_3 
REMARK    3  A    between atoms: C3_3  and  C4_4 
REMARK    4  A    between atoms: C4_4  and  N5_5 
REMARK    5  A    between atoms: N5_5  and  C6_6 
REMARK    6  A    between atoms: C6_6  and  C7_7 
REMARK    7  A    between atoms: C7_7  and  C8_8 
REMARK    8  A    between atoms: C8_8  and  C9_9 
REMARK    9  A    between atoms: C9_9  and  N10_10 
REMARK   10  A    between atoms: N10_10  and  C11_11 
REMARK   11  A    between atoms: C11_11  and  C12_12 
REMARK   12  A    between atoms: C12_12  and  C13_13 
REMARK   13  A    between atoms: C13_13  and  N14_14 
ROOT
ATOM      1  C7  SPM d          -3.149   3.796  12.900  0.00  0.00    -0.041 C 
ATOM      2  H14 SPM d          -3.636   3.829  13.885  0.00  0.00     0.035 H 
ATOM      3  H15 SPM d          -2.137   3.379  13.005  0.00  0.00     0.035 H 
ENDROOT
BRANCH   1   4
ATOM      4  C6  SPM d          -3.100   5.175  12.276  0.00  0.00     0.082 C 
ATOM      5  H12 SPM d          -2.046   5.480  12.201  0.00  0.00     0.075 H 
ATOM      6  H13 SPM d          -3.535   5.110  11.268  0.00  0.00     0.075 H 
BRANCH   4   7
ATOM      7  N5  SPM d          -3.816   6.204  13.011  0.00  0.00    -0.075 N 
ATOM      8  H10 SPM d          -3.936   5.871  13.955  0.00  0.00     0.277 HD
ATOM      9  H11 SPM d          -3.236   7.028  13.017  0.00  0.00     0.277 HD
BRANCH   7  10
ATOM     10  C4  SPM d          -5.119   6.597  12.526  0.00  0.00     0.083 C 
ATOM     11  H8  SPM d          -5.106   7.684  12.354  0.00  0.00     0.075 H 
ATOM     12  H9  SPM d          -5.300   6.077  11.573  0.00  0.00     0.075 H 
BRANCH  10  13
ATOM     13  C3  SPM d          -6.280   6.277  13.472  0.00  0.00    -0.020 C 
ATOM     14  H6  SPM d          -6.803   7.211  13.725  0.00  0.00     0.037 H 
ATOM     15  H7  SPM d          -6.976   5.593  12.964  0.00  0.00     0.037 H 
BRANCH  13  16
ATOM     16  C2  SPM d          -5.798   5.625  14.750  0.00  0.00     0.081 C 
ATOM     17  H4  SPM d          -4.698   5.631  14.781  0.00  0.00     0.075 H 
ATOM     18  H5  SPM d          -6.191   6.171  15.619  0.00  0.00     0.075 H 
BRANCH  16  19
ATOM     19  N1  SPM d          -6.281   4.266  14.763  0.00  0.00    -0.079 N 
ATOM     20  H1  SPM d          -6.844   4.102  13.943  0.00  0.00     0.274 HD
ATOM     21  H2  SPM d          -6.839   4.116  15.589  0.00  0.00     0.274 HD
ATOM     22  H3  SPM d          -5.499   3.631  14.767  0.00  0.00     0.274 HD
ENDBRANCH  16  19
ENDBRANCH  13  16
ENDBRANCH  10  13
ENDBRANCH   7  10
ENDBRANCH   4   7
ENDBRANCH   1   4
BRANCH   1  23
ATOM     23  C8  SPM d          -3.970   2.981  11.918  0.00  0.00    -0.041 C 
ATOM     24  H16 SPM d          -3.345   2.671  11.068  0.00  0.00     0.035 H 
ATOM     25  H17 SPM d          -4.821   3.574  11.550  0.00  0.00     0.035 H 
BRANCH  23  26
ATOM     26  C9  SPM d          -4.467   1.772  12.663  0.00  0.00     0.082 C 
ATOM     27  H18 SPM d          -4.043   0.865  12.207  0.00  0.00     0.075 H 
ATOM     28  H19 SPM d          -5.565   1.734  12.603  0.00  0.00     0.075 H 
BRANCH  26  29
ATOM     29  N10 SPM d          -4.067   1.841  14.048  0.00  0.00    -0.075 N 
ATOM     30  H20 SPM d          -4.346   2.755  14.369  0.00  0.00     0.277 HD
ATOM     31  H21 SPM d          -3.061   1.777  14.046  0.00  0.00     0.277 HD
BRANCH  29  32
ATOM     32  C11 SPM d          -4.513   0.923  15.052  0.00  0.00     0.083 C 
ATOM     33  H22 SPM d          -3.795   0.094  15.134  0.00  0.00     0.075 H 
ATOM     34  H23 SPM d          -5.501   0.526  14.771  0.00  0.00     0.075 H 
BRANCH  32  35
ATOM     35  C12 SPM d          -4.618   1.631  16.387  0.00  0.00    -0.020 C 
ATOM     36  H24 SPM d          -4.632   2.717  16.212  0.00  0.00     0.037 H 
ATOM     37  H25 SPM d          -3.740   1.368  16.996  0.00  0.00     0.037 H 
BRANCH  35  38
ATOM     38  C13 SPM d          -5.880   1.244  17.156  0.00  0.00     0.081 C 
ATOM     39  H26 SPM d          -5.635   0.440  17.865  0.00  0.00     0.075 H 
ATOM     40  H27 SPM d          -6.638   0.885  16.443  0.00  0.00     0.075 H 
BRANCH  38  41
ATOM     41  N14 SPM d          -6.415   2.373  17.887  0.00  0.00    -0.079 N 
ATOM     42  H28 SPM d          -7.216   2.740  17.398  0.00  0.00     0.274 HD
ATOM     43  H29 SPM d          -5.710   3.090  17.962  0.00  0.00     0.274 HD
ATOM     44  H30 SPM d          -6.691   2.076  18.810  0.00  0.00     0.274 HD
ENDBRANCH  38  41
ENDBRANCH  35  38
ENDBRANCH  32  35
ENDBRANCH  29  32
ENDBRANCH  26  29
ENDBRANCH  23  26
ENDBRANCH   1  23
TORSDOF 13
ENDMDL
MODEL 7
REMARK VINA RESULT:      -3.2      1.450      5.848
REMARK  13 active torsions:
REMARK  status: ('A' for Active; 'I' for Inactive)
REMARK    1  A    between atoms: N1_1  and  C2_2 
REMARK    2  A    between atoms: C2_2  and  C3_3 
REMARK    3  A    between atoms: C3_3  and  C4_4 
REMARK    4  A    between atoms: C4_4  and  N5_5 
REMARK    5  A    between atoms: N5_5  and  C6_6 
REMARK    6  A    between atoms: C6_6  and  C7_7 
REMARK    7  A    between atoms: C7_7  and  C8_8 
REMARK    8  A    between atoms: C8_8  and  C9_9 
REMARK    9  A    between atoms: C9_9  and  N10_10 
REMARK   10  A    between atoms: N10_10  and  C11_11 
REMARK   11  A    between atoms: C11_11  and  C12_12 
REMARK   12  A    between atoms: C12_12  and  C13_13 
REMARK   13  A    between atoms: C13_13  and  N14_14 
ROOT
ATOM      1  C7  SPM d          -3.296   4.488  14.782  0.00  0.00    -0.041 C 
ATOM      2  H14 SPM d          -4.184   4.911  15.272  0.00  0.00     0.035 H 
ATOM      3  H15 SPM d          -2.718   3.902  15.512  0.00  0.00     0.035 H 
ENDROOT
BRANCH   1   4
ATOM      4  C6  SPM d          -2.443   5.582  14.173  0.00  0.00     0.082 C 
ATOM      5  H12 SPM d          -1.687   5.879  14.916  0.00  0.00     0.075 H 
ATOM      6  H13 SPM d          -1.942   5.170  13.285  0.00  0.00     0.075 H 
BRANCH   4   7
ATOM      7  N5  SPM d          -3.172   6.771  13.770  0.00  0.00    -0.075 N 
ATOM      8  H10 SPM d          -4.081   6.729  14.204  0.00  0.00     0.277 HD
ATOM      9  H11 SPM d          -2.667   7.568  14.125  0.00  0.00     0.277 HD
BRANCH   7  10
ATOM     10  C4  SPM d          -3.380   6.989  12.357  0.00  0.00     0.083 C 
ATOM     11  H8  SPM d          -2.757   7.841  12.047  0.00  0.00     0.075 H 
ATOM     12  H9  SPM d          -3.058   6.084  11.821  0.00  0.00     0.075 H 
BRANCH  10  13
ATOM     13  C3  SPM d          -4.830   7.287  11.961  0.00  0.00    -0.020 C 
ATOM     14  H6  SPM d          -4.989   8.375  11.985  0.00  0.00     0.037 H 
ATOM     15  H7  SPM d          -5.004   6.914  10.940  0.00  0.00     0.037 H 
BRANCH  13  16
ATOM     16  C2  SPM d          -5.815   6.627  12.899  0.00  0.00     0.081 C 
ATOM     17  H4  SPM d          -5.876   5.550  12.681  0.00  0.00     0.075 H 
ATOM     18  H5  SPM d          -5.493   6.771  13.941  0.00  0.00     0.075 H 
BRANCH  16  19
ATOM     19  N1  SPM d          -7.103   7.243  12.695  0.00  0.00    -0.079 N 
ATOM     20  H1  SPM d          -7.523   6.872  11.857  0.00  0.00     0.274 HD
ATOM     21  H2  SPM d          -6.987   8.239  12.600  0.00  0.00     0.274 HD
ATOM     22  H3  SPM d          -7.698   7.048  13.485  0.00  0.00     0.274 HD
ENDBRANCH  16  19
ENDBRANCH  13  16
ENDBRANCH  10  13
ENDBRANCH   7  10
ENDBRANCH   4   7
ENDBRANCH   1   4
BRANCH   1  23
ATOM     23  C8  SPM d          -3.692   3.631  13.593  0.00  0.00    -0.041 C 
ATOM     24  H16 SPM d          -2.843   3.008  13.277  0.00  0.00     0.035 H 
ATOM     25  H17 SPM d          -4.011   4.269  12.755  0.00  0.00     0.035 H 
BRANCH  23  26
ATOM     26  C9  SPM d          -4.833   2.761  14.044  0.00  0.00     0.082 C 
ATOM     27  H18 SPM d          -4.435   1.812  14.432  0.00  0.00     0.075 H 
ATOM     28  H19 SPM d          -5.496   2.558  13.189  0.00  0.00     0.075 H 
BRANCH  26  29
ATOM     29  N10 SPM d          -5.585   3.423  15.083  0.00  0.00    -0.075 N 
ATOM     30  H20 SPM d          -6.067   4.184  14.630  0.00  0.00     0.277 HD
ATOM     31  H21 SPM d          -4.900   3.792  15.723  0.00  0.00     0.277 HD
BRANCH  29  32
ATOM     32  C11 SPM d          -6.567   2.770  15.895  0.00  0.00     0.083 C 
ATOM     33  H22 SPM d          -6.657   1.719  15.583  0.00  0.00     0.075 H 
ATOM     34  H23 SPM d          -7.537   3.274  15.771  0.00  0.00     0.075 H 
BRANCH  32  35
ATOM     35  C12 SPM d          -6.153   2.828  17.351  0.00  0.00    -0.020 C 
ATOM     36  H24 SPM d          -6.679   3.664  17.835  0.00  0.00     0.037 H 
ATOM     37  H25 SPM d          -5.067   2.997  17.402  0.00  0.00     0.037 H 
BRANCH  35  38
ATOM     38  C13 SPM d          -6.484   1.541  18.103  0.00  0.00     0.081 C 
ATOM     39  H26 SPM d          -7.576   1.419  18.143  0.00  0.00     0.075 H 
ATOM     40  H27 SPM d          -6.085   1.611  19.126  0.00  0.00     0.075 H 
BRANCH  38  41
ATOM     41  N14 SPM d          -5.905   0.387  17.447  0.00  0.00    -0.079 N 
ATOM     42  H28 SPM d          -5.524  -0.238  18.141  0.00  0.00     0.274 HD
ATOM     43  H29 SPM d          -5.169   0.686  16.826  0.00  0.00     0.274 HD
ATOM     44  H30 SPM d          -6.617  -0.092  16.918  0.00  0.00     0.274 HD
ENDBRANCH  38  41
ENDBRANCH  35  38
ENDBRANCH  32  35
ENDBRANCH  29  32
ENDBRANCH  26  29
ENDBRANCH  23  26
ENDBRANCH   1  23
TORSDOF 13
ENDMDL
MODEL 8
REMARK VINA RESULT:      -3.0      1.538      1.924
REMARK  13 active torsions:
REMARK  status: ('A' for Active; 'I' for Inactive)
REMARK    1  A    between atoms: N1_1  and  C2_2 
REMARK    2  A    between atoms: C2_2  and  C3_3 
REMARK    3  A    between atoms: C3_3  and  C4_4 
REMARK    4  A    between atoms: C4_4  and  N5_5 
REMARK    5  A    between atoms: N5_5  and  C6_6 
REMARK    6  A    between atoms: C6_6  and  C7_7 
REMARK    7  A    between atoms: C7_7  and  C8_8 
REMARK    8  A    between atoms: C8_8  and  C9_9 
REMARK    9  A    between atoms: C9_9  and  N10_10 
REMARK   10  A    between atoms: N10_10  and  C11_11 
REMARK   11  A    between atoms: C11_11  and  C12_12 
REMARK   12  A    between atoms: C12_12  and  C13_13 
REMARK   13  A    between atoms: C13_13  and  N14_14 
ROOT
ATOM      1  C7  SPM d          -6.105   5.994  14.560  0.00  0.00    -0.041 C 
ATOM      2  H14 SPM d          -5.717   6.978  14.860  0.00  0.00     0.035 H 
ATOM      3  H15 SPM d          -7.058   6.124  14.025  0.00  0.00     0.035 H 
ENDROOT
BRANCH   1   4
ATOM      4  C6  SPM d          -6.282   5.094  15.765  0.00  0.00     0.082 C 
ATOM      5  H12 SPM d          -5.542   5.388  16.523  0.00  0.00     0.075 H 
ATOM      6  H13 SPM d          -7.296   5.251  16.162  0.00  0.00     0.075 H 
BRANCH   4   7
ATOM      7  N5  SPM d          -6.116   3.676  15.498  0.00  0.00    -0.075 N 
ATOM      8  H10 SPM d          -6.670   3.456  14.684  0.00  0.00     0.277 HD
ATOM      9  H11 SPM d          -5.142   3.521  15.293  0.00  0.00     0.277 HD
BRANCH   7  10
ATOM     10  C4  SPM d          -6.491   2.745  16.537  0.00  0.00     0.083 C 
ATOM     11  H8  SPM d          -6.320   3.231  17.509  0.00  0.00     0.075 H 
ATOM     12  H9  SPM d          -7.562   2.519  16.423  0.00  0.00     0.075 H 
BRANCH  10  13
ATOM     13  C3  SPM d          -5.719   1.422  16.522  0.00  0.00    -0.020 C 
ATOM     14  H6  SPM d          -5.714   1.001  17.538  0.00  0.00     0.037 H 
ATOM     15  H7  SPM d          -6.224   0.723  15.838  0.00  0.00     0.037 H 
BRANCH  13  16
ATOM     16  C2  SPM d          -4.291   1.612  16.062  0.00  0.00     0.081 C 
ATOM     17  H4  SPM d          -4.063   2.685  15.980  0.00  0.00     0.075 H 
ATOM     18  H5  SPM d          -3.602   1.146  16.782  0.00  0.00     0.075 H 
BRANCH  16  19
ATOM     19  N1  SPM d          -4.153   0.982  14.773  0.00  0.00    -0.079 N 
ATOM     20  H1  SPM d          -4.942   1.224  14.194  0.00  0.00     0.274 HD
ATOM     21  H2  SPM d          -4.117  -0.019  14.890  0.00  0.00     0.274 HD
ATOM     22  H3  SPM d          -3.303   1.299  14.333  0.00  0.00     0.274 HD
ENDBRANCH  16  19
ENDBRANCH  13  16
ENDBRANCH  10  13
ENDBRANCH   7  10
ENDBRANCH   4   7
ENDBRANCH   1   4
BRANCH   1  23
ATOM     23  C8  SPM d          -5.098   5.255  13.697  0.00  0.00    -0.041 C 
ATOM     24  H16 SPM d          -5.587   4.420  13.177  0.00  0.00     0.035 H 
ATOM     25  H17 SPM d          -4.277   4.870  14.320  0.00  0.00     0.035 H 
BRANCH  23  26
ATOM     26  C9  SPM d          -4.568   6.248  12.699  0.00  0.00     0.082 C 
ATOM     27  H18 SPM d          -4.223   7.147  13.230  0.00  0.00     0.075 H 
ATOM     28  H19 SPM d          -5.370   6.521  11.997  0.00  0.00     0.075 H 
BRANCH  26  29
ATOM     29  N10 SPM d          -3.465   5.676  11.964  0.00  0.00    -0.075 N 
ATOM     30  H20 SPM d          -2.637   6.134  12.311  0.00  0.00     0.277 HD
ATOM     31  H21 SPM d          -3.615   5.934  11.002  0.00  0.00     0.277 HD
BRANCH  29  32
ATOM     32  C11 SPM d          -3.159   4.277  11.949  0.00  0.00     0.083 C 
ATOM     33  H22 SPM d          -3.277   3.889  10.927  0.00  0.00     0.075 H 
ATOM     34  H23 SPM d          -3.846   3.746  12.625  0.00  0.00     0.075 H 
BRANCH  32  35
ATOM     35  C12 SPM d          -1.732   4.057  12.407  0.00  0.00    -0.020 C 
ATOM     36  H24 SPM d          -1.055   4.261  11.565  0.00  0.00     0.037 H 
ATOM     37  H25 SPM d          -1.620   3.009  12.723  0.00  0.00     0.037 H 
BRANCH  35  38
ATOM     38  C13 SPM d          -1.348   4.963  13.575  0.00  0.00     0.081 C 
ATOM     39  H26 SPM d          -1.977   5.865  13.551  0.00  0.00     0.075 H 
ATOM     40  H27 SPM d          -0.291   5.252  13.473  0.00  0.00     0.075 H 
BRANCH  38  41
ATOM     41  N14 SPM d          -1.534   4.291  14.843  0.00  0.00    -0.079 N 
ATOM     42  H28 SPM d          -0.642   4.185  15.302  0.00  0.00     0.274 HD
ATOM     43  H29 SPM d          -1.940   3.382  14.686  0.00  0.00     0.274 HD
ATOM     44  H30 SPM d          -2.150   4.836  15.426  0.00  0.00     0.274 HD
ENDBRANCH  38  41
ENDBRANCH  35  38
ENDBRANCH  32  35
ENDBRANCH  29  32
ENDBRANCH  26  29
ENDBRANCH  23  26
ENDBRANCH   1  23
TORSDOF 13
ENDMDL
MODEL 9
REMARK VINA RESULT:      -2.9      1.803      6.165
REMARK  13 active torsions:
REMARK  status: ('A' for Active; 'I' for Inactive)
REMARK    1  A    between atoms: N1_1  and  C2_2 
REMARK    2  A    between atoms: C2_2  and  C3_3 
REMARK    3  A    between atoms: C3_3  and  C4_4 
REMARK    4  A    between atoms: C4_4  and  N5_5 
REMARK    5  A    between atoms: N5_5  and  C6_6 
REMARK    6  A    between atoms: C6_6  and  C7_7 
REMARK    7  A    between atoms: C7_7  and  C8_8 
REMARK    8  A    between atoms: C8_8  and  C9_9 
REMARK    9  A    between atoms: C9_9  and  N10_10 
REMARK   10  A    between atoms: N10_10  and  C11_11 
REMARK   11  A    between atoms: C11_11  and  C12_12 
REMARK   12  A    between atoms: C12_12  and  C13_13 
REMARK   13  A    between atoms: C13_13  and  N14_14 
ROOT
ATOM      1  C7  SPM d          -4.118   3.348  15.234  0.00  0.00    -0.041 C 
ATOM      2  H14 SPM d          -4.273   3.392  16.322  0.00  0.00     0.035 H 
ATOM      3  H15 SPM d          -3.045   3.443  15.012  0.00  0.00     0.035 H 
ENDROOT
BRANCH   1   4
ATOM      4  C6  SPM d          -4.912   4.430  14.533  0.00  0.00     0.082 C 
ATOM      5  H12 SPM d          -5.981   4.201  14.651  0.00  0.00     0.075 H 
ATOM      6  H13 SPM d          -4.686   5.389  15.022  0.00  0.00     0.075 H 
BRANCH   4   7
ATOM      7  N5  SPM d          -4.633   4.570  13.114  0.00  0.00    -0.075 N 
ATOM      8  H10 SPM d          -4.110   3.757  12.828  0.00  0.00     0.277 HD
ATOM      9  H11 SPM d          -5.519   4.585  12.634  0.00  0.00     0.277 HD
BRANCH   7  10
ATOM     10  C4  SPM d          -3.891   5.732  12.683  0.00  0.00     0.083 C 
ATOM     11  H8  SPM d          -3.501   5.534  11.674  0.00  0.00     0.075 H 
ATOM     12  H9  SPM d          -4.583   6.586  12.648  0.00  0.00     0.075 H 
BRANCH  10  13
ATOM     13  C3  SPM d          -2.711   6.110  13.585  0.00  0.00    -0.020 C 
ATOM     14  H6  SPM d          -2.677   7.205  13.687  0.00  0.00     0.037 H 
ATOM     15  H7  SPM d          -2.859   5.654  14.575  0.00  0.00     0.037 H 
BRANCH  13  16
ATOM     16  C2  SPM d          -1.394   5.630  13.015  0.00  0.00     0.081 C 
ATOM     17  H4  SPM d          -1.442   5.626  11.916  0.00  0.00     0.075 H 
ATOM     18  H5  SPM d          -0.581   6.294  13.343  0.00  0.00     0.075 H 
BRANCH  16  19
ATOM     19  N1  SPM d          -1.163   4.293  13.501  0.00  0.00    -0.079 N 
ATOM     20  H1  SPM d          -0.745   3.737  12.771  0.00  0.00     0.274 HD
ATOM     21  H2  SPM d          -2.039   3.879  13.777  0.00  0.00     0.274 HD
ATOM     22  H3  SPM d          -0.543   4.327  14.295  0.00  0.00     0.274 HD
ENDBRANCH  16  19
ENDBRANCH  13  16
ENDBRANCH  10  13
ENDBRANCH   7  10
ENDBRANCH   4   7
ENDBRANCH   1   4
BRANCH   1  23
ATOM     23  C8  SPM d          -4.676   2.057  14.660  0.00  0.00    -0.041 C 
ATOM     24  H16 SPM d          -4.075   1.736  13.798  0.00  0.00     0.035 H 
ATOM     25  H17 SPM d          -5.720   2.203  14.345  0.00  0.00     0.035 H 
BRANCH  23  26
ATOM     26  C9  SPM d          -4.605   1.028  15.754  0.00  0.00     0.082 C 
ATOM     27  H18 SPM d          -3.837   1.325  16.483  0.00  0.00     0.075 H 
ATOM     28  H19 SPM d          -4.340   0.052  15.319  0.00  0.00     0.075 H 
BRANCH  26  29
ATOM     29  N10 SPM d          -5.880   0.920  16.422  0.00  0.00    -0.075 N 
ATOM     30  H20 SPM d          -6.362   0.156  15.973  0.00  0.00     0.277 HD
ATOM     31  H21 SPM d          -6.364   1.783  16.228  0.00  0.00     0.277 HD
BRANCH  29  32
ATOM     32  C11 SPM d          -6.026   0.699  17.829  0.00  0.00     0.083 C 
ATOM     33  H22 SPM d          -5.079   0.318  18.239  0.00  0.00     0.075 H 
ATOM     34  H23 SPM d          -6.824  -0.039  18.002  0.00  0.00     0.075 H 
BRANCH  32  35
ATOM     35  C12 SPM d          -6.386   1.998  18.521  0.00  0.00    -0.020 C 
ATOM     36  H24 SPM d          -5.511   2.352  19.086  0.00  0.00     0.037 H 
ATOM     37  H25 SPM d          -7.219   1.810  19.214  0.00  0.00     0.037 H 
BRANCH  35  38
ATOM     38  C13 SPM d          -6.804   3.087  17.535  0.00  0.00     0.081 C 
ATOM     39  H26 SPM d          -7.681   2.741  16.968  0.00  0.00     0.075 H 
ATOM     40  H27 SPM d          -5.973   3.282  16.841  0.00  0.00     0.075 H 
BRANCH  38  41
ATOM     41  N14 SPM d          -7.142   4.315  18.224  0.00  0.00    -0.079 N 
ATOM     42  H28 SPM d          -6.895   5.103  17.646  0.00  0.00     0.274 HD
ATOM     43  H29 SPM d          -6.634   4.365  19.093  0.00  0.00     0.274 HD
ATOM     44  H30 SPM d          -8.132   4.333  18.413  0.00  0.00     0.274 HD
ENDBRANCH  38  41
ENDBRANCH  35  38
ENDBRANCH  32  35
ENDBRANCH  29  32
ENDBRANCH  26  29
ENDBRANCH  23  26
ENDBRANCH   1  23
TORSDOF 13
ENDMDL
MODEL 10
REMARK VINA RESULT:      -2.4      2.281      5.583
REMARK  13 active torsions:
REMARK  status: ('A' for Active; 'I' for Inactive)
REMARK    1  A    between atoms: N1_1  and  C2_2 
REMARK    2  A    between atoms: C2_2  and  C3_3 
REMARK    3  A    between atoms: C3_3  and  C4_4 
REMARK    4  A    between atoms: C4_4  and  N5_5 
REMARK    5  A    between atoms: N5_5  and  C6_6 
REMARK    6  A    between atoms: C6_6  and  C7_7 
REMARK    7  A    between atoms: C7_7  and  C8_8 
REMARK    8  A    between atoms: C8_8  and  C9_9 
REMARK    9  A    between atoms: C9_9  and  N10_10 
REMARK   10  A    between atoms: N10_10  and  C11_11 
REMARK   11  A    between atoms: C11_11  and  C12_12 
REMARK   12  A    between atoms: C12_12  and  C13_13 
REMARK   13  A    between atoms: C13_13  and  N14_14 
ROOT
ATOM      1  C7  SPM d          -3.020   4.087  14.921  0.00  0.00    -0.041 C 
ATOM      2  H14 SPM d          -2.376   3.565  15.643  0.00  0.00     0.035 H 
ATOM      3  H15 SPM d          -3.066   3.509  13.986  0.00  0.00     0.035 H 
ENDROOT
BRANCH   1   4
ATOM      4  C6  SPM d          -2.513   5.490  14.663  0.00  0.00     0.082 C 
ATOM      5  H12 SPM d          -3.383   6.146  14.509  0.00  0.00     0.075 H 
ATOM      6  H13 SPM d          -1.958   5.822  15.553  0.00  0.00     0.075 H 
BRANCH   4   7
ATOM      7  N5  SPM d          -1.638   5.622  13.511  0.00  0.00    -0.075 N 
ATOM      8  H10 SPM d          -1.045   6.421  13.673  0.00  0.00     0.277 HD
ATOM      9  H11 SPM d          -1.074   4.788  13.465  0.00  0.00     0.277 HD
BRANCH   7  10
ATOM     10  C4  SPM d          -2.251   5.798  12.215  0.00  0.00     0.083 C 
ATOM     11  H8  SPM d          -1.496   5.577  11.446  0.00  0.00     0.075 H 
ATOM     12  H9  SPM d          -3.082   5.082  12.129  0.00  0.00     0.075 H 
BRANCH  10  13
ATOM     13  C3  SPM d          -2.804   7.203  11.952  0.00  0.00    -0.020 C 
ATOM     14  H6  SPM d          -2.270   7.921  12.592  0.00  0.00     0.037 H 
ATOM     15  H7  SPM d          -2.637   7.459  10.895  0.00  0.00     0.037 H 
BRANCH  13  16
ATOM     16  C2  SPM d          -4.285   7.287  12.249  0.00  0.00     0.081 C 
ATOM     17  H4  SPM d          -4.440   7.548  13.307  0.00  0.00     0.075 H 
ATOM     18  H5  SPM d          -4.751   8.052  11.612  0.00  0.00     0.075 H 
BRANCH  16  19
ATOM     19  N1  SPM d          -4.866   5.997  11.972  0.00  0.00    -0.079 N 
ATOM     20  H1  SPM d          -4.563   5.680  11.064  0.00  0.00     0.274 HD
ATOM     21  H2  SPM d          -5.871   6.072  11.984  0.00  0.00     0.274 HD
ATOM     22  H3  SPM d          -4.570   5.337  12.674  0.00  0.00     0.274 HD
ENDBRANCH  16  19
ENDBRANCH  13  16
ENDBRANCH  10  13
ENDBRANCH   7  10
ENDBRANCH   4   7
ENDBRANCH   1   4
BRANCH   1  23
ATOM     23  C8  SPM d          -4.410   4.301  15.493  0.00  0.00    -0.041 C 
ATOM     24  H16 SPM d          -5.000   4.941  14.822  0.00  0.00     0.035 H 
ATOM     25  H17 SPM d          -4.343   4.772  16.485  0.00  0.00     0.035 H 
BRANCH  23  26
ATOM     26  C9  SPM d          -5.048   2.944  15.607  0.00  0.00     0.082 C 
ATOM     27  H18 SPM d          -6.090   3.059  15.941  0.00  0.00     0.075 H 
ATOM     28  H19 SPM d          -4.492   2.342  16.342  0.00  0.00     0.075 H 
BRANCH  26  29
ATOM     29  N10 SPM d          -5.027   2.273  14.329  0.00  0.00    -0.075 N 
ATOM     30  H20 SPM d          -4.540   2.894  13.702  0.00  0.00     0.277 HD
ATOM     31  H21 SPM d          -5.991   2.197  14.045  0.00  0.00     0.277 HD
BRANCH  29  32
ATOM     32  C11 SPM d          -4.454   0.978  14.119  0.00  0.00     0.083 C 
ATOM     33  H22 SPM d          -5.160   0.207  14.459  0.00  0.00     0.075 H 
ATOM     34  H23 SPM d          -3.517   0.896  14.691  0.00  0.00     0.075 H 
BRANCH  32  35
ATOM     35  C12 SPM d          -4.162   0.777  12.646  0.00  0.00    -0.020 C 
ATOM     36  H24 SPM d          -5.035   0.301  12.175  0.00  0.00     0.037 H 
ATOM     37  H25 SPM d          -3.286   0.120  12.546  0.00  0.00     0.037 H 
BRANCH  35  38
ATOM     38  C13 SPM d          -3.873   2.091  11.924  0.00  0.00     0.081 C 
ATOM     39  H26 SPM d          -4.421   2.904  12.424  0.00  0.00     0.075 H 
ATOM     40  H27 SPM d          -4.212   2.009  10.880  0.00  0.00     0.075 H 
BRANCH  38  41
ATOM     41  N14 SPM d          -2.458   2.397  11.939  0.00  0.00    -0.079 N 
ATOM     42  H28 SPM d          -2.327   3.389  11.817  0.00  0.00     0.274 HD
ATOM     43  H29 SPM d          -1.999   1.904  11.188  0.00  0.00     0.274 HD
ATOM     44  H30 SPM d          -2.061   2.110  12.820  0.00  0.00     0.274 HD
ENDBRANCH  38  41
ENDBRANCH  35  38
ENDBRANCH  32  35
ENDBRANCH  29  32
ENDBRANCH  26  29
ENDBRANCH  23  26
ENDBRANCH   1  23
TORSDOF 13
ENDMDL
