MODEL 1
REMARK VINA RESULT:      -8.0      0.000      0.000
REMARK  5 active torsions:
REMARK  status: ('A' for Active; 'I' for Inactive)
REMARK    1  A    between atoms: S1_2  and  N1_4 
REMARK    2  A    between atoms: S1_2  and  C13_10 
REMARK    3  A    between atoms: N1_4  and  C12_5 
REMARK    4  A    between atoms: C12_5  and  C14_6 
REMARK       I    between atoms: C14_6  and  N2_8 
REMARK    5  A    between atoms: C2_15  and  C1_16 
ROOT
ATOM      1  C13 HS4 d           2.743  -5.287   5.713  0.00  0.00     0.079 A 
ATOM      2  C10 HS4 d           3.946  -5.843   5.266  0.00  0.00    -0.059 A 
ATOM      3  C5  HS4 d           4.853  -6.419   6.151  0.00  0.00    -0.071 A 
ATOM      4  C11 HS4 d           2.471  -5.298   7.085  0.00  0.00    -0.059 A 
ATOM      5  C8  HS4 d           3.382  -5.874   7.974  0.00  0.00    -0.071 A 
ATOM      6  C2  HS4 d           4.587  -6.419   7.519  0.00  0.00    -0.026 A 
ATOM      7  H4  HS4 d           4.178  -5.824   4.207  0.00  0.00     0.085 H 
ATOM      8  H5  HS4 d           5.765  -6.868   5.776  0.00  0.00     0.084 H 
ATOM      9  H6  HS4 d           1.554  -4.859   7.459  0.00  0.00     0.085 H 
ATOM     10  H7  HS4 d           3.151  -5.899   9.033  0.00  0.00     0.084 H 
ENDROOT
BRANCH   1  11
ATOM     11  S1  HS4 d           1.820  -4.691   4.549  0.00  0.00     0.259 S 
ATOM     12  O4  HS4 d           2.782  -4.872   3.486  0.00  0.00    -0.201 OA
ATOM     13  O3  HS4 d           1.334  -3.406   4.792  0.00  0.00    -0.201 OA
BRANCH  11  14
ATOM     14  N1  HS4 d           0.629  -5.582   3.960  0.00  0.00    -0.306 N 
ATOM     15  H1  HS4 d           0.094  -5.178   3.217  0.00  0.00     0.172 HD
BRANCH  14  16
ATOM     16  C12 HS4 d           0.247  -6.899   4.385  0.00  0.00     0.080 C 
ATOM     17  H2  HS4 d          -0.784  -7.097   4.058  0.00  0.00     0.079 H 
ATOM     18  H3  HS4 d           0.300  -6.952   5.483  0.00  0.00     0.079 H 
BRANCH  16  19
ATOM     19  C14 HS4 d           1.158  -7.942   3.798  0.00  0.00     0.287 C 
ATOM     20  O1  HS4 d           1.737  -8.792   4.471  0.00  0.00    -0.267 OA
ATOM     21  N2  HS4 d           1.274  -7.887   2.491  0.00  0.00    -0.057 NA
ATOM     22  O2  HS4 d           2.054  -8.829   1.865  0.00  0.00    -0.058 OA
ENDBRANCH  16  19
ENDBRANCH  14  16
ENDBRANCH  11  14
ENDBRANCH   1  11
BRANCH   6  23
ATOM     23  C1  HS4 d           5.540  -7.089   8.448  0.00  0.00    -0.026 A 
ATOM     24  C4  HS4 d           5.276  -7.316   9.794  0.00  0.00    -0.072 A 
ATOM     25  C7  HS4 d           6.239  -7.912  10.611  0.00  0.00    -0.082 A 
ATOM     26  H8  HS4 d           4.317  -7.028  10.212  0.00  0.00     0.084 H 
ATOM     27  C9  HS4 d           7.482  -8.255  10.095  0.00  0.00    -0.083 A 
ATOM     28  H9  HS4 d           6.016  -8.107  11.654  0.00  0.00     0.083 H 
ATOM     29  C6  HS4 d           7.762  -8.002   8.758  0.00  0.00    -0.082 A 
ATOM     30  H10 HS4 d           8.228  -8.718  10.731  0.00  0.00     0.083 H 
ATOM     31  C3  HS4 d           6.804  -7.411   7.947  0.00  0.00    -0.072 A 
ATOM     32  H11 HS4 d           8.730  -8.267   8.348  0.00  0.00     0.083 H 
ATOM     33  H12 HS4 d           7.039  -7.196   6.910  0.00  0.00     0.084 H 
ENDBRANCH   6  23
TORSDOF 5
ENDMDL
MODEL 2
REMARK VINA RESULT:      -7.9      1.858      3.189
REMARK  5 active torsions:
REMARK  status: ('A' for Active; 'I' for Inactive)
REMARK    1  A    between atoms: S1_2  and  N1_4 
REMARK    2  A    between atoms: S1_2  and  C13_10 
REMARK    3  A    between atoms: N1_4  and  C12_5 
REMARK    4  A    between atoms: C12_5  and  C14_6 
REMARK       I    between atoms: C14_6  and  N2_8 
REMARK    5  A    between atoms: C2_15  and  C1_16 
ROOT
ATOM      1  C13 HS4 d           1.640  -6.620   5.020  0.00  0.00     0.079 A 
ATOM      2  C10 HS4 d           2.864  -7.219   4.703  0.00  0.00    -0.059 A 
ATOM      3  C5  HS4 d           3.879  -7.342   5.647  0.00  0.00    -0.071 A 
ATOM      4  C11 HS4 d           1.458  -6.118   6.312  0.00  0.00    -0.059 A 
ATOM      5  C8  HS4 d           2.477  -6.240   7.260  0.00  0.00    -0.071 A 
ATOM      6  C2  HS4 d           3.701  -6.832   6.932  0.00  0.00    -0.026 A 
ATOM      7  H4  HS4 d           3.026  -7.596   3.699  0.00  0.00     0.085 H 
ATOM      8  H5  HS4 d           4.807  -7.835   5.384  0.00  0.00     0.084 H 
ATOM      9  H6  HS4 d           0.525  -5.635   6.579  0.00  0.00     0.085 H 
ATOM     10  H7  HS4 d           2.317  -5.869   8.267  0.00  0.00     0.084 H 
ENDROOT
BRANCH   1  11
ATOM     11  S1  HS4 d           0.590  -6.589   3.813  0.00  0.00     0.259 S 
ATOM     12  O4  HS4 d          -0.415  -5.814   4.507  0.00  0.00    -0.201 OA
ATOM     13  O3  HS4 d           0.234  -7.844   3.318  0.00  0.00    -0.201 OA
BRANCH  11  14
ATOM     14  N1  HS4 d           0.847  -5.609   2.575  0.00  0.00    -0.306 N 
ATOM     15  H1  HS4 d           0.220  -5.692   1.801  0.00  0.00     0.172 HD
BRANCH  14  16
ATOM     16  C12 HS4 d           1.884  -4.622   2.459  0.00  0.00     0.080 C 
ATOM     17  H2  HS4 d           1.913  -4.252   1.424  0.00  0.00     0.079 H 
ATOM     18  H3  HS4 d           2.850  -5.084   2.712  0.00  0.00     0.079 H 
BRANCH  16  19
ATOM     19  C14 HS4 d           1.635  -3.465   3.388  0.00  0.00     0.287 C 
ATOM     20  O1  HS4 d           0.814  -2.579   3.161  0.00  0.00    -0.267 OA
ATOM     21  N2  HS4 d           2.358  -3.484   4.484  0.00  0.00    -0.057 NA
ATOM     22  O2  HS4 d           2.167  -2.488   5.410  0.00  0.00    -0.058 OA
ENDBRANCH  16  19
ENDBRANCH  14  16
ENDBRANCH  11  14
ENDBRANCH   1  11
BRANCH   6  23
ATOM     23  C1  HS4 d           4.774  -7.021   7.948  0.00  0.00    -0.026 A 
ATOM     24  C4  HS4 d           4.537  -7.092   9.316  0.00  0.00    -0.072 A 
ATOM     25  C7  HS4 d           5.603  -7.226  10.209  0.00  0.00    -0.082 A 
ATOM     26  H8  HS4 d           3.521  -7.041   9.691  0.00  0.00     0.084 H 
ATOM     27  C9  HS4 d           6.910  -7.259   9.742  0.00  0.00    -0.083 A 
ATOM     28  H9  HS4 d           5.408  -7.305  11.273  0.00  0.00     0.083 H 
ATOM     29  C6  HS4 d           7.153  -7.157   8.378  0.00  0.00    -0.082 A 
ATOM     30  H10 HS4 d           7.735  -7.364  10.438  0.00  0.00     0.083 H 
ATOM     31  C3  HS4 d           6.095  -7.025   7.492  0.00  0.00    -0.072 A 
ATOM     32  H11 HS4 d           8.171  -7.181   8.007  0.00  0.00     0.083 H 
ATOM     33  H12 HS4 d           6.295  -6.923   6.431  0.00  0.00     0.084 H 
ENDBRANCH   6  23
TORSDOF 5
ENDMDL
MODEL 3
REMARK VINA RESULT:      -7.6      1.710      3.053
REMARK  5 active torsions:
REMARK  status: ('A' for Active; 'I' for Inactive)
REMARK    1  A    between atoms: S1_2  and  N1_4 
REMARK    2  A    between atoms: S1_2  and  C13_10 
REMARK    3  A    between atoms: N1_4  and  C12_5 
REMARK    4  A    between atoms: C12_5  and  C14_6 
REMARK       I    between atoms: C14_6  and  N2_8 
REMARK    5  A    between atoms: C2_15  and  C1_16 
ROOT
ATOM      1  C13 HS4 d           1.538  -6.291   5.619  0.00  0.00     0.079 A 
ATOM      2  C10 HS4 d           2.570  -7.141   5.209  0.00  0.00    -0.059 A 
ATOM      3  C5  HS4 d           3.698  -7.346   5.997  0.00  0.00    -0.071 A 
ATOM      4  C11 HS4 d           1.670  -5.621   6.840  0.00  0.00    -0.059 A 
ATOM      5  C8  HS4 d           2.804  -5.825   7.631  0.00  0.00    -0.071 A 
ATOM      6  C2  HS4 d           3.835  -6.670   7.208  0.00  0.00    -0.026 A 
ATOM      7  H4  HS4 d           2.489  -7.651   4.256  0.00  0.00     0.085 H 
ATOM      8  H5  HS4 d           4.471  -8.031   5.669  0.00  0.00     0.084 H 
ATOM      9  H6  HS4 d           0.892  -4.944   7.174  0.00  0.00     0.085 H 
ATOM     10  H7  HS4 d           2.885  -5.321   8.587  0.00  0.00     0.084 H 
ENDROOT
BRANCH   1  11
ATOM     11  S1  HS4 d           0.313  -6.197   4.593  0.00  0.00     0.259 S 
ATOM     12  O4  HS4 d          -0.485  -5.295   5.392  0.00  0.00    -0.201 OA
ATOM     13  O3  HS4 d          -0.239  -7.428   4.232  0.00  0.00    -0.201 OA
BRANCH  11  14
ATOM     14  N1  HS4 d           0.460  -5.300   3.278  0.00  0.00    -0.306 N 
ATOM     15  H1  HS4 d           0.424  -5.782   2.401  0.00  0.00     0.172 HD
BRANCH  14  16
ATOM     16  C12 HS4 d           0.638  -3.876   3.221  0.00  0.00     0.080 C 
ATOM     17  H2  HS4 d          -0.175  -3.390   3.780  0.00  0.00     0.079 H 
ATOM     18  H3  HS4 d           0.607  -3.551   2.171  0.00  0.00     0.079 H 
BRANCH  16  19
ATOM     19  C14 HS4 d           1.957  -3.472   3.822  0.00  0.00     0.287 C 
ATOM     20  O1  HS4 d           2.099  -2.487   4.542  0.00  0.00    -0.267 OA
ATOM     21  N2  HS4 d           2.954  -4.275   3.530  0.00  0.00    -0.057 NA
ATOM     22  O2  HS4 d           4.188  -4.006   4.071  0.00  0.00    -0.058 OA
ENDBRANCH  16  19
ENDBRANCH  14  16
ENDBRANCH  11  14
ENDBRANCH   1  11
BRANCH   6  23
ATOM     23  C1  HS4 d           5.022  -6.943   8.066  0.00  0.00    -0.026 A 
ATOM     24  C4  HS4 d           6.316  -7.075   7.575  0.00  0.00    -0.072 A 
ATOM     25  C7  HS4 d           7.371  -7.374   8.440  0.00  0.00    -0.082 A 
ATOM     26  H8  HS4 d           6.506  -6.946   6.515  0.00  0.00     0.084 H 
ATOM     27  C9  HS4 d           7.133  -7.573   9.794  0.00  0.00    -0.083 A 
ATOM     28  H9  HS4 d           8.380  -7.452   8.053  0.00  0.00     0.083 H 
ATOM     29  C6  HS4 d           5.838  -7.473  10.284  0.00  0.00    -0.082 A 
ATOM     30  H10 HS4 d           7.954  -7.805  10.463  0.00  0.00     0.083 H 
ATOM     31  C3  HS4 d           4.791  -7.174   9.425  0.00  0.00    -0.072 A 
ATOM     32  H11 HS4 d           5.645  -7.628  11.340  0.00  0.00     0.083 H 
ATOM     33  H12 HS4 d           3.779  -7.120   9.812  0.00  0.00     0.084 H 
ENDBRANCH   6  23
TORSDOF 5
ENDMDL
MODEL 4
REMARK VINA RESULT:      -7.1      1.267      1.604
REMARK  5 active torsions:
REMARK  status: ('A' for Active; 'I' for Inactive)
REMARK    1  A    between atoms: S1_2  and  N1_4 
REMARK    2  A    between atoms: S1_2  and  C13_10 
REMARK    3  A    between atoms: N1_4  and  C12_5 
REMARK    4  A    between atoms: C12_5  and  C14_6 
REMARK       I    between atoms: C14_6  and  N2_8 
REMARK    5  A    between atoms: C2_15  and  C1_16 
ROOT
ATOM      1  C13 HS4 d           2.161  -4.676   4.841  0.00  0.00     0.079 A 
ATOM      2  C10 HS4 d           3.447  -5.137   4.539  0.00  0.00    -0.059 A 
ATOM      3  C5  HS4 d           4.245  -5.746   5.503  0.00  0.00    -0.071 A 
ATOM      4  C11 HS4 d           1.693  -4.815   6.152  0.00  0.00    -0.059 A 
ATOM      5  C8  HS4 d           2.495  -5.424   7.121  0.00  0.00    -0.071 A 
ATOM      6  C2  HS4 d           3.783  -5.875   6.811  0.00  0.00    -0.026 A 
ATOM      7  H4  HS4 d           3.830  -5.019   3.532  0.00  0.00     0.085 H 
ATOM      8  H5  HS4 d           5.227  -6.120   5.236  0.00  0.00     0.084 H 
ATOM      9  H6  HS4 d           0.707  -4.451   6.416  0.00  0.00     0.085 H 
ATOM     10  H7  HS4 d           2.113  -5.550   8.128  0.00  0.00     0.084 H 
ENDROOT
BRANCH   1  11
ATOM     11  S1  HS4 d           1.386  -4.025   3.602  0.00  0.00     0.259 S 
ATOM     12  O4  HS4 d           2.571  -3.629   2.874  0.00  0.00    -0.201 OA
ATOM     13  O3  HS4 d           0.460  -3.039   3.947  0.00  0.00    -0.201 OA
BRANCH  11  14
ATOM     14  N1  HS4 d           0.726  -4.980   2.502  0.00  0.00    -0.306 N 
ATOM     15  H1  HS4 d          -0.202  -4.750   2.208  0.00  0.00     0.172 HD
BRANCH  14  16
ATOM     16  C12 HS4 d           1.326  -6.133   1.891  0.00  0.00     0.080 C 
ATOM     17  H2  HS4 d           2.417  -6.080   2.017  0.00  0.00     0.079 H 
ATOM     18  H3  HS4 d           1.080  -6.140   0.818  0.00  0.00     0.079 H 
BRANCH  16  19
ATOM     19  C14 HS4 d           0.820  -7.402   2.519  0.00  0.00     0.287 C 
ATOM     20  O1  HS4 d          -0.027  -8.125   1.998  0.00  0.00    -0.267 OA
ATOM     21  N2  HS4 d           1.374  -7.695   3.673  0.00  0.00    -0.057 NA
ATOM     22  O2  HS4 d           1.002  -8.860   4.299  0.00  0.00    -0.058 OA
ENDBRANCH  16  19
ENDBRANCH  14  16
ENDBRANCH  11  14
ENDBRANCH   1  11
BRANCH   6  23
ATOM     23  C1  HS4 d           4.626  -6.578   7.818  0.00  0.00    -0.026 A 
ATOM     24  C4  HS4 d           4.254  -6.759   9.146  0.00  0.00    -0.072 A 
ATOM     25  C7  HS4 d           5.120  -7.391  10.040  0.00  0.00    -0.082 A 
ATOM     26  H8  HS4 d           3.287  -6.406   9.488  0.00  0.00     0.084 H 
ATOM     27  C9  HS4 d           6.373  -7.818   9.621  0.00  0.00    -0.083 A 
ATOM     28  H9  HS4 d           4.813  -7.550  11.067  0.00  0.00     0.083 H 
ATOM     29  C6  HS4 d           6.762  -7.612   8.303  0.00  0.00    -0.082 A 
ATOM     30  H10 HS4 d           7.044  -8.309  10.317  0.00  0.00     0.083 H 
ATOM     31  C3  HS4 d           5.901  -6.984   7.415  0.00  0.00    -0.072 A 
ATOM     32  H11 HS4 d           7.739  -7.941   7.969  0.00  0.00     0.083 H 
ATOM     33  H12 HS4 d           6.221  -6.806   6.394  0.00  0.00     0.084 H 
ENDBRANCH   6  23
TORSDOF 5
ENDMDL
MODEL 5
REMARK VINA RESULT:      -6.3      1.579      3.023
REMARK  5 active torsions:
REMARK  status: ('A' for Active; 'I' for Inactive)
REMARK    1  A    between atoms: S1_2  and  N1_4 
REMARK    2  A    between atoms: S1_2  and  C13_10 
REMARK    3  A    between atoms: N1_4  and  C12_5 
REMARK    4  A    between atoms: C12_5  and  C14_6 
REMARK       I    between atoms: C14_6  and  N2_8 
REMARK    5  A    between atoms: C2_15  and  C1_16 
ROOT
ATOM      1  C13 HS4 d           2.739  -6.478   4.279  0.00  0.00     0.079 A 
ATOM      2  C10 HS4 d           3.706  -5.543   4.662  0.00  0.00    -0.059 A 
ATOM      3  C5  HS4 d           4.481  -5.726   5.803  0.00  0.00    -0.071 A 
ATOM      4  C11 HS4 d           2.542  -7.603   5.087  0.00  0.00    -0.059 A 
ATOM      5  C8  HS4 d           3.319  -7.786   6.234  0.00  0.00    -0.071 A 
ATOM      6  C2  HS4 d           4.277  -6.841   6.613  0.00  0.00    -0.026 A 
ATOM      7  H4  HS4 d           3.855  -4.657   4.056  0.00  0.00     0.085 H 
ATOM      8  H5  HS4 d           5.243  -4.999   6.062  0.00  0.00     0.084 H 
ATOM      9  H6  HS4 d           1.787  -8.335   4.822  0.00  0.00     0.085 H 
ATOM     10  H7  HS4 d           3.176  -8.674   6.840  0.00  0.00     0.084 H 
ENDROOT
BRANCH   1  11
ATOM     11  S1  HS4 d           1.963  -6.110   2.929  0.00  0.00     0.259 S 
ATOM     12  O4  HS4 d           1.703  -7.474   2.527  0.00  0.00    -0.201 OA
ATOM     13  O3  HS4 d           2.675  -5.286   2.056  0.00  0.00    -0.201 OA
BRANCH  11  14
ATOM     14  N1  HS4 d           0.455  -5.583   3.010  0.00  0.00    -0.306 N 
ATOM     15  H1  HS4 d          -0.236  -6.133   2.541  0.00  0.00     0.172 HD
BRANCH  14  16
ATOM     16  C12 HS4 d          -0.011  -4.405   3.685  0.00  0.00     0.080 C 
ATOM     17  H2  HS4 d          -1.104  -4.458   3.788  0.00  0.00     0.079 H 
ATOM     18  H3  HS4 d           0.260  -3.520   3.091  0.00  0.00     0.079 H 
BRANCH  16  19
ATOM     19  C14 HS4 d           0.606  -4.285   5.052  0.00  0.00     0.287 C 
ATOM     20  O1  HS4 d           1.402  -3.401   5.361  0.00  0.00    -0.267 OA
ATOM     21  N2  HS4 d           0.209  -5.198   5.908  0.00  0.00    -0.057 NA
ATOM     22  O2  HS4 d           0.689  -5.141   7.194  0.00  0.00    -0.058 OA
ENDBRANCH  16  19
ENDBRANCH  14  16
ENDBRANCH  11  14
ENDBRANCH   1  11
BRANCH   6  23
ATOM     23  C1  HS4 d           5.152  -7.050   7.801  0.00  0.00    -0.026 A 
ATOM     24  C4  HS4 d           6.532  -7.206   7.725  0.00  0.00    -0.072 A 
ATOM     25  C7  HS4 d           7.279  -7.443   8.881  0.00  0.00    -0.082 A 
ATOM     26  H8  HS4 d           7.030  -7.144   6.764  0.00  0.00     0.084 H 
ATOM     27  C9  HS4 d           6.648  -7.557  10.113  0.00  0.00    -0.083 A 
ATOM     28  H9  HS4 d           8.357  -7.539   8.817  0.00  0.00     0.083 H 
ATOM     29  C6  HS4 d           5.267  -7.433  10.190  0.00  0.00    -0.082 A 
ATOM     30  H10 HS4 d           7.230  -7.740  11.009  0.00  0.00     0.083 H 
ATOM     31  C3  HS4 d           4.526  -7.197   9.041  0.00  0.00    -0.072 A 
ATOM     32  H11 HS4 d           4.767  -7.521  11.148  0.00  0.00     0.083 H 
ATOM     33  H12 HS4 d           3.446  -7.124   9.106  0.00  0.00     0.084 H 
ENDBRANCH   6  23
TORSDOF 5
ENDMDL
