MODEL 1
REMARK VINA RESULT:     -11.8      0.000      0.000
REMARK  9 active torsions:
REMARK  status: ('A' for Active; 'I' for Inactive)
REMARK    1  A    between atoms: C16_2  and  C17_3 
REMARK       I    between atoms: C16_2  and  N7_10 
REMARK    2  A    between atoms: C40_7  and  C44_8 
REMARK    3  A    between atoms: C8_14  and  C18_30 
REMARK    4  A    between atoms: C14_20  and  C37_21 
REMARK    5  A    between atoms: C14_20  and  C38_22 
REMARK    6  A    between atoms: C6_27  and  O36_28 
REMARK    7  A    between atoms: C21_34  and  O24_37 
REMARK    8  A    between atoms: O24_37  and  C25_38 
REMARK    9  A    between atoms: C25_38  and  C26_39 
ROOT
ATOM      1  O35 XNC d          27.020   6.648  40.177  0.00  0.00    -0.265 OA
ATOM      2  C16 XNC d          28.051   6.240  39.667  0.00  0.00     0.278 C 
ATOM      3  N7  XNC d          28.326   6.435  38.303  0.00  0.00    -0.296 N 
ATOM      4  C4  XNC d          29.628   6.350  37.737  0.00  0.00     0.068 A 
ATOM      5  C3  XNC d          30.655   7.192  38.189  0.00  0.00    -0.054 A 
ATOM      6  C2  XNC d          31.921   7.140  37.622  0.00  0.00    -0.078 A 
ATOM      7  C8  XNC d          27.212   6.738  37.379  0.00  0.00     0.086 C 
ATOM      8  C9  XNC d          26.747   5.458  36.735  0.00  0.00     0.087 C 
ATOM      9  S12 XNC d          25.042   5.323  36.723  0.00  0.00     0.176 S 
ATOM     10  O32 XNC d          24.505   6.495  36.037  0.00  0.00    -0.223 OA
ATOM     11  O33 XNC d          24.504   5.315  38.063  0.00  0.00    -0.223 OA
ATOM     12  C13 XNC d          24.613   3.781  35.892  0.00  0.00     0.040 C 
ATOM     13  C14 XNC d          25.621   3.387  34.817  0.00  0.00    -0.029 C 
ATOM     14  C15 XNC d          26.978   3.254  35.549  0.00  0.00    -0.018 C 
ATOM     15  C10 XNC d          27.548   4.496  36.217  0.00  0.00     0.030 C 
ATOM     16  N11 XNC d          28.937   4.532  36.202  0.00  0.00    -0.354 N 
ATOM     17  C5  XNC d          29.884   5.437  36.708  0.00  0.00     0.093 A 
ATOM     18  C6  XNC d          31.157   5.379  36.169  0.00  0.00     0.094 A 
ATOM     19  C1  XNC d          32.159   6.228  36.624  0.00  0.00    -0.049 A 
ATOM     20  H7  XNC d          30.458   7.892  38.992  0.00  0.00     0.087 H 
ATOM     21  H8  XNC d          32.705   7.807  37.960  0.00  0.00     0.083 H 
ATOM     22  H9  XNC d          26.364   7.138  37.954  0.00  0.00     0.090 H 
ATOM     23  H10 XNC d          23.626   3.899  35.421  0.00  0.00     0.057 H 
ATOM     24  H11 XNC d          24.568   2.978  36.642  0.00  0.00     0.057 H 
ATOM     25  H18 XNC d          27.717   2.909  34.810  0.00  0.00     0.043 H 
ATOM     26  H19 XNC d          26.857   2.488  36.329  0.00  0.00     0.043 H 
ATOM     27  H20 XNC d          29.360   3.727  35.718  0.00  0.00     0.166 HD
ATOM     28  H22 XNC d          33.148   6.168  36.183  0.00  0.00     0.087 H 
ENDROOT
BRANCH   7  29
ATOM     29  C18 XNC d          27.708   7.860  36.436  0.00  0.00     0.009 A 
ATOM     30  C23 XNC d          27.943   9.124  36.962  0.00  0.00     0.127 A 
ATOM     31  F34 XNC d          27.728   9.319  38.261  0.00  0.00    -0.205 F 
ATOM     32  C22 XNC d          28.378  10.171  36.149  0.00  0.00    -0.013 A 
ATOM     33  C21 XNC d          28.586   9.954  34.786  0.00  0.00     0.072 A 
ATOM     34  H23 XNC d          28.554  11.153  36.574  0.00  0.00     0.092 H 
ATOM     35  C20 XNC d          28.353   8.677  34.256  0.00  0.00    -0.050 A 
ATOM     36  C19 XNC d          27.911   7.644  35.074  0.00  0.00    -0.069 A 
ATOM     37  H24 XNC d          28.519   8.494  33.200  0.00  0.00     0.087 H 
ATOM     38  H25 XNC d          27.723   6.664  34.651  0.00  0.00     0.084 H 
BRANCH  33  39
ATOM     39  O24 XNC d          29.034  10.998  34.017  0.00  0.00    -0.347 OA
BRANCH  39  40
ATOM     40  C25 XNC d          29.435  10.843  32.638  0.00  0.00     0.050 C 
ATOM     41  H26 XNC d          29.971   9.890  32.520  0.00  0.00     0.082 H 
ATOM     42  H27 XNC d          30.098  11.674  32.358  0.00  0.00     0.082 H 
BRANCH  40  43
ATOM     43  C26 XNC d          28.214  10.847  31.729  0.00  0.00    -0.034 A 
ATOM     44  C31 XNC d          28.176  10.021  30.620  0.00  0.00    -0.075 A 
ATOM     45  C30 XNC d          27.055   9.984  29.799  0.00  0.00    -0.082 A 
ATOM     46  H28 XNC d          29.031   9.396  30.389  0.00  0.00     0.084 H 
ATOM     47  C29 XNC d          25.965  10.794  30.081  0.00  0.00    -0.083 A 
ATOM     48  H29 XNC d          27.034   9.323  28.940  0.00  0.00     0.083 H 
ATOM     49  C28 XNC d          25.998  11.638  31.202  0.00  0.00    -0.082 A 
ATOM     50  H30 XNC d          25.092  10.774  29.439  0.00  0.00     0.083 H 
ATOM     51  C27 XNC d          27.116  11.659  32.027  0.00  0.00    -0.075 A 
ATOM     52  H31 XNC d          25.150  12.276  31.425  0.00  0.00     0.083 H 
ATOM     53  H32 XNC d          27.136  12.303  32.898  0.00  0.00     0.084 H 
ENDBRANCH  40  43
ENDBRANCH  39  40
ENDBRANCH  33  39
ENDBRANCH   7  29
BRANCH   2  54
ATOM     54  C17 XNC d          29.019   5.538  40.547  0.00  0.00     0.125 A 
ATOM     55  C43 XNC d          29.158   4.160  40.502  0.00  0.00    -0.050 A 
ATOM     56  C42 XNC d          30.081   3.558  41.354  0.00  0.00    -0.079 A 
ATOM     57  H1  XNC d          28.562   3.564  39.821  0.00  0.00     0.087 H 
ATOM     58  C41 XNC d          30.871   4.343  42.213  0.00  0.00    -0.059 A 
ATOM     59  H2  XNC d          30.191   2.480  41.354  0.00  0.00     0.083 H 
ATOM     60  C40 XNC d          30.747   5.724  42.231  0.00  0.00     0.031 A 
ATOM     61  H3  XNC d          31.586   3.862  42.869  0.00  0.00     0.086 H 
ATOM     62  N39 XNC d          29.812   6.307  41.400  0.00  0.00    -0.248 NA
BRANCH  60  63
ATOM     63  C44 XNC d          31.565   6.593  43.148  0.00  0.00    -0.035 C 
ATOM     64  H4  XNC d          31.298   7.647  42.988  0.00  0.00     0.035 H 
ATOM     65  H5  XNC d          32.634   6.448  42.932  0.00  0.00     0.035 H 
ATOM     66  H6  XNC d          31.362   6.317  44.193  0.00  0.00     0.035 H 
ENDBRANCH  60  63
ENDBRANCH   2  54
BRANCH  18  67
ATOM     67  O36 XNC d          31.459   4.505  35.168  0.00  0.00    -0.358 OA
ATOM     68  H21 XNC d          32.372   4.605  34.925  0.00  0.00     0.217 HD
ENDBRANCH  18  67
BRANCH  13  69
ATOM     69  C37 XNC d          25.210   2.012  34.235  0.00  0.00    -0.068 C 
ATOM     70  H12 XNC d          25.928   1.713  33.457  0.00  0.00     0.028 H 
ATOM     71  H13 XNC d          24.204   2.086  33.796  0.00  0.00     0.028 H 
ATOM     72  H14 XNC d          25.205   1.260  35.038  0.00  0.00     0.028 H 
ENDBRANCH  13  69
BRANCH  13  73
ATOM     73  C38 XNC d          25.703   4.442  33.680  0.00  0.00    -0.068 C 
ATOM     74  H15 XNC d          25.995   5.414  34.103  0.00  0.00     0.028 H 
ATOM     75  H16 XNC d          24.721   4.534  33.194  0.00  0.00     0.028 H 
ATOM     76  H17 XNC d          26.450   4.125  32.939  0.00  0.00     0.028 H 
ENDBRANCH  13  73
TORSDOF 9
ENDMDL
