MODEL 1
REMARK VINA RESULT:     -11.9      0.000      0.000
REMARK  9 active torsions:
REMARK  status: ('A' for Active; 'I' for Inactive)
REMARK    1  A    between atoms: C16_2  and  C17_3 
REMARK       I    between atoms: C16_2  and  N7_10 
REMARK    2  A    between atoms: C40_7  and  C44_8 
REMARK    3  A    between atoms: C8_14  and  C18_30 
REMARK    4  A    between atoms: C14_20  and  C37_21 
REMARK    5  A    between atoms: C14_20  and  C38_22 
REMARK    6  A    between atoms: C6_27  and  O36_28 
REMARK    7  A    between atoms: C21_34  and  O24_37 
REMARK    8  A    between atoms: O24_37  and  C25_38 
REMARK    9  A    between atoms: C25_38  and  C26_39 
ROOT
ATOM      1  O35 XNC d          26.962   6.648  40.140  0.00  0.00    -0.265 OA
ATOM      2  C16 XNC d          27.997   6.247  39.632  0.00  0.00     0.278 C 
ATOM      3  N7  XNC d          28.277   6.453  38.270  0.00  0.00    -0.296 N 
ATOM      4  C4  XNC d          29.582   6.376  37.710  0.00  0.00     0.068 A 
ATOM      5  C3  XNC d          30.604   7.219  38.172  0.00  0.00    -0.054 A 
ATOM      6  C2  XNC d          31.873   7.176  37.610  0.00  0.00    -0.078 A 
ATOM      7  C8  XNC d          27.167   6.758  37.344  0.00  0.00     0.086 C 
ATOM      8  C9  XNC d          26.709   5.481  36.688  0.00  0.00     0.087 C 
ATOM      9  S12 XNC d          25.005   5.340  36.668  0.00  0.00     0.176 S 
ATOM     10  O32 XNC d          24.466   6.515  35.988  0.00  0.00    -0.223 OA
ATOM     11  O33 XNC d          24.461   5.320  38.005  0.00  0.00    -0.223 OA
ATOM     12  C13 XNC d          24.585   3.802  35.823  0.00  0.00     0.040 C 
ATOM     13  C14 XNC d          25.600   3.420  34.750  0.00  0.00    -0.029 C 
ATOM     14  C15 XNC d          26.954   3.286  35.487  0.00  0.00    -0.018 C 
ATOM     15  C10 XNC d          27.516   4.526  36.167  0.00  0.00     0.030 C 
ATOM     16  N11 XNC d          28.904   4.567  36.158  0.00  0.00    -0.354 N 
ATOM     17  C5  XNC d          29.847   5.472  36.675  0.00  0.00     0.093 A 
ATOM     18  C6  XNC d          31.122   5.422  36.142  0.00  0.00     0.094 A 
ATOM     19  C1  XNC d          32.119   6.272  36.607  0.00  0.00    -0.049 A 
ATOM     20  H7  XNC d          30.400   7.913  38.980  0.00  0.00     0.087 H 
ATOM     21  H8  XNC d          32.653   7.843  37.957  0.00  0.00     0.083 H 
ATOM     22  H9  XNC d          26.314   7.151  37.918  0.00  0.00     0.090 H 
ATOM     23  H10 XNC d          23.599   3.920  35.349  0.00  0.00     0.057 H 
ATOM     24  H11 XNC d          24.539   2.994  36.568  0.00  0.00     0.057 H 
ATOM     25  H18 XNC d          27.697   2.950  34.750  0.00  0.00     0.043 H 
ATOM     26  H19 XNC d          26.832   2.515  36.261  0.00  0.00     0.043 H 
ATOM     27  H20 XNC d          29.333   3.767  35.671  0.00  0.00     0.166 HD
ATOM     28  H22 XNC d          33.110   6.219  36.170  0.00  0.00     0.087 H 
ENDROOT
BRANCH   7  29
ATOM     29  C18 XNC d          27.662   7.889  36.411  0.00  0.00     0.009 A 
ATOM     30  C23 XNC d          27.932   9.138  36.955  0.00  0.00     0.127 A 
ATOM     31  F34 XNC d          27.750   9.313  38.262  0.00  0.00    -0.205 F 
ATOM     32  C22 XNC d          28.369  10.193  36.152  0.00  0.00    -0.013 A 
ATOM     33  C21 XNC d          28.543   9.997  34.781  0.00  0.00     0.072 A 
ATOM     34  H23 XNC d          28.572  11.163  36.591  0.00  0.00     0.092 H 
ATOM     35  C20 XNC d          28.275   8.735  34.232  0.00  0.00    -0.050 A 
ATOM     36  C19 XNC d          27.832   7.695  35.041  0.00  0.00    -0.069 A 
ATOM     37  H24 XNC d          28.414   8.570  33.170  0.00  0.00     0.087 H 
ATOM     38  H25 XNC d          27.616   6.727  34.604  0.00  0.00     0.084 H 
BRANCH  33  39
ATOM     39  O24 XNC d          28.994  11.047  34.022  0.00  0.00    -0.347 OA
BRANCH  39  40
ATOM     40  C25 XNC d          29.409  10.902  32.646  0.00  0.00     0.050 C 
ATOM     41  H26 XNC d          29.969   9.962  32.533  0.00  0.00     0.082 H 
ATOM     42  H27 XNC d          30.054  11.749  32.370  0.00  0.00     0.082 H 
BRANCH  40  43
ATOM     43  C26 XNC d          28.195  10.875  31.727  0.00  0.00    -0.034 A 
ATOM     44  C31 XNC d          28.168  10.015  30.645  0.00  0.00    -0.075 A 
ATOM     45  C30 XNC d          27.054   9.950  29.816  0.00  0.00    -0.082 A 
ATOM     46  H28 XNC d          29.026   9.384  30.440  0.00  0.00     0.084 H 
ATOM     47  C29 XNC d          25.959  10.766  30.064  0.00  0.00    -0.083 A 
ATOM     48  H29 XNC d          27.040   9.263  28.979  0.00  0.00     0.083 H 
ATOM     49  C28 XNC d          25.983  11.645  31.158  0.00  0.00    -0.082 A 
ATOM     50  H30 XNC d          25.091  10.725  29.416  0.00  0.00     0.083 H 
ATOM     51  C27 XNC d          27.094  11.694  31.991  0.00  0.00    -0.075 A 
ATOM     52  H31 XNC d          25.132  12.288  31.354  0.00  0.00     0.083 H 
ATOM     53  H32 XNC d          27.106  12.365  32.842  0.00  0.00     0.084 H 
ENDBRANCH  40  43
ENDBRANCH  39  40
ENDBRANCH  33  39
ENDBRANCH   7  29
BRANCH   2  54
ATOM     54  C17 XNC d          28.964   5.542  40.511  0.00  0.00     0.125 A 
ATOM     55  C43 XNC d          29.085   4.162  40.480  0.00  0.00    -0.050 A 
ATOM     56  C42 XNC d          30.007   3.558  41.330  0.00  0.00    -0.079 A 
ATOM     57  H1  XNC d          28.475   3.567  39.810  0.00  0.00     0.087 H 
ATOM     58  C41 XNC d          30.815   4.342  42.174  0.00  0.00    -0.059 A 
ATOM     59  H2  XNC d          30.104   2.478  41.342  0.00  0.00     0.083 H 
ATOM     60  C40 XNC d          30.708   5.724  42.178  0.00  0.00     0.031 A 
ATOM     61  H3  XNC d          31.530   3.859  42.830  0.00  0.00     0.086 H 
ATOM     62  N39 XNC d          29.774   6.310  41.348  0.00  0.00    -0.248 NA
BRANCH  60  63
ATOM     63  C44 XNC d          31.546   6.592  43.078  0.00  0.00    -0.035 C 
ATOM     64  H4  XNC d          32.555   6.695  42.653  0.00  0.00     0.035 H 
ATOM     65  H5  XNC d          31.613   6.131  44.074  0.00  0.00     0.035 H 
ATOM     66  H6  XNC d          31.082   7.586  43.165  0.00  0.00     0.035 H 
ENDBRANCH  60  63
ENDBRANCH   2  54
BRANCH  18  67
ATOM     67  O36 XNC d          31.432   4.557  35.135  0.00  0.00    -0.358 OA
ATOM     68  H21 XNC d          31.270   4.975  34.298  0.00  0.00     0.217 HD
ENDBRANCH  18  67
BRANCH  13  69
ATOM     69  C37 XNC d          25.196   2.048  34.157  0.00  0.00    -0.068 C 
ATOM     70  H12 XNC d          24.502   1.541  34.843  0.00  0.00     0.028 H 
ATOM     71  H13 XNC d          26.094   1.428  34.021  0.00  0.00     0.028 H 
ATOM     72  H14 XNC d          24.704   2.199  33.184  0.00  0.00     0.028 H 
ENDBRANCH  13  69
BRANCH  13  73
ATOM     73  C38 XNC d          25.682   4.483  33.622  0.00  0.00    -0.068 C 
ATOM     74  H15 XNC d          25.168   5.400  33.944  0.00  0.00     0.028 H 
ATOM     75  H16 XNC d          25.200   4.093  32.714  0.00  0.00     0.028 H 
ATOM     76  H17 XNC d          26.737   4.710  33.408  0.00  0.00     0.028 H 
ENDBRANCH  13  73
TORSDOF 9
ENDMDL
MODEL 2
REMARK VINA RESULT:      -9.0      2.632      7.288
REMARK  9 active torsions:
REMARK  status: ('A' for Active; 'I' for Inactive)
REMARK    1  A    between atoms: C16_2  and  C17_3 
REMARK       I    between atoms: C16_2  and  N7_10 
REMARK    2  A    between atoms: C40_7  and  C44_8 
REMARK    3  A    between atoms: C8_14  and  C18_30 
REMARK    4  A    between atoms: C14_20  and  C37_21 
REMARK    5  A    between atoms: C14_20  and  C38_22 
REMARK    6  A    between atoms: C6_27  and  O36_28 
REMARK    7  A    between atoms: C21_34  and  O24_37 
REMARK    8  A    between atoms: O24_37  and  C25_38 
REMARK    9  A    between atoms: C25_38  and  C26_39 
ROOT
ATOM      1  O35 XNC d          29.886   5.279  33.271  0.00  0.00    -0.265 OA
ATOM      2  C16 XNC d          29.230   6.022  33.984  0.00  0.00     0.278 C 
ATOM      3  N7  XNC d          29.073   5.776  35.359  0.00  0.00    -0.296 N 
ATOM      4  C4  XNC d          28.678   6.765  36.301  0.00  0.00     0.068 A 
ATOM      5  C3  XNC d          29.445   7.928  36.473  0.00  0.00    -0.054 A 
ATOM      6  C2  XNC d          29.087   8.885  37.413  0.00  0.00    -0.078 A 
ATOM      7  C8  XNC d          29.317   4.414  35.880  0.00  0.00     0.086 C 
ATOM      8  C9  XNC d          28.005   3.678  35.963  0.00  0.00     0.087 C 
ATOM      9  S12 XNC d          28.116   2.089  35.341  0.00  0.00     0.176 S 
ATOM     10  O32 XNC d          29.169   1.392  36.077  0.00  0.00    -0.223 OA
ATOM     11  O33 XNC d          28.485   2.091  33.946  0.00  0.00    -0.223 OA
ATOM     12  C13 XNC d          26.504   1.302  35.537  0.00  0.00     0.040 C 
ATOM     13  C14 XNC d          25.739   1.814  36.754  0.00  0.00    -0.029 C 
ATOM     14  C15 XNC d          25.581   3.338  36.535  0.00  0.00    -0.018 C 
ATOM     15  C10 XNC d          26.848   4.178  36.458  0.00  0.00     0.030 C 
ATOM     16  N11 XNC d          26.680   5.459  36.966  0.00  0.00    -0.354 N 
ATOM     17  C5  XNC d          27.531   6.572  37.078  0.00  0.00     0.093 A 
ATOM     18  C6  XNC d          27.172   7.546  37.993  0.00  0.00     0.094 A 
ATOM     19  C1  XNC d          27.950   8.686  38.156  0.00  0.00    -0.049 A 
ATOM     20  H7  XNC d          30.328   8.081  35.865  0.00  0.00     0.087 H 
ATOM     21  H8  XNC d          29.693   9.771  37.557  0.00  0.00     0.083 H 
ATOM     22  H9  XNC d          29.953   3.864  35.170  0.00  0.00     0.090 H 
ATOM     23  H10 XNC d          26.653   0.218  35.646  0.00  0.00     0.057 H 
ATOM     24  H11 XNC d          25.904   1.501  34.636  0.00  0.00     0.057 H 
ATOM     25  H18 XNC d          24.978   3.728  37.368  0.00  0.00     0.043 H 
ATOM     26  H19 XNC d          25.036   3.479  35.591  0.00  0.00     0.043 H 
ATOM     27  H20 XNC d          25.735   5.630  37.339  0.00  0.00     0.166 HD
ATOM     28  H22 XNC d          27.652   9.434  38.883  0.00  0.00     0.087 H 
ENDROOT
BRANCH   7  29
ATOM     29  C18 XNC d          30.117   4.576  37.194  0.00  0.00     0.009 A 
ATOM     30  C23 XNC d          31.383   5.145  37.144  0.00  0.00     0.127 A 
ATOM     31  F34 XNC d          31.860   5.526  35.961  0.00  0.00    -0.205 F 
ATOM     32  C22 XNC d          32.147   5.299  38.302  0.00  0.00    -0.013 A 
ATOM     33  C21 XNC d          31.638   4.883  39.533  0.00  0.00     0.072 A 
ATOM     34  H23 XNC d          33.136   5.742  38.245  0.00  0.00     0.092 H 
ATOM     35  C20 XNC d          30.359   4.313  39.584  0.00  0.00    -0.050 A 
ATOM     36  C19 XNC d          29.611   4.156  38.423  0.00  0.00    -0.069 A 
ATOM     37  H24 XNC d          29.950   3.993  40.536  0.00  0.00     0.087 H 
ATOM     38  H25 XNC d          28.627   3.703  38.474  0.00  0.00     0.084 H 
BRANCH  33  39
ATOM     39  O24 XNC d          32.405   5.068  40.655  0.00  0.00    -0.347 OA
BRANCH  39  40
ATOM     40  C25 XNC d          31.954   5.826  41.799  0.00  0.00     0.050 C 
ATOM     41  H26 XNC d          32.780   5.922  42.519  0.00  0.00     0.082 H 
ATOM     42  H27 XNC d          31.114   5.299  42.274  0.00  0.00     0.082 H 
BRANCH  40  43
ATOM     43  C26 XNC d          31.499   7.213  41.368  0.00  0.00    -0.034 A 
ATOM     44  C31 XNC d          30.197   7.616  41.605  0.00  0.00    -0.075 A 
ATOM     45  C30 XNC d          29.772   8.891  41.252  0.00  0.00    -0.082 A 
ATOM     46  H28 XNC d          29.499   6.928  42.070  0.00  0.00     0.084 H 
ATOM     47  C29 XNC d          30.656   9.770  40.642  0.00  0.00    -0.083 A 
ATOM     48  H29 XNC d          28.753   9.199  41.453  0.00  0.00     0.083 H 
ATOM     49  C28 XNC d          31.978   9.366  40.395  0.00  0.00    -0.082 A 
ATOM     50  H30 XNC d          30.327  10.763  40.358  0.00  0.00     0.083 H 
ATOM     51  C27 XNC d          32.399   8.095  40.764  0.00  0.00    -0.075 A 
ATOM     52  H31 XNC d          32.671  10.047  39.915  0.00  0.00     0.083 H 
ATOM     53  H32 XNC d          33.423   7.788  40.583  0.00  0.00     0.084 H 
ENDBRANCH  40  43
ENDBRANCH  39  40
ENDBRANCH  33  39
ENDBRANCH   7  29
BRANCH   2  54
ATOM     54  C17 XNC d          28.612   7.213  33.348  0.00  0.00     0.125 A 
ATOM     55  C43 XNC d          27.337   7.156  32.809  0.00  0.00    -0.050 A 
ATOM     56  C42 XNC d          26.812   8.305  32.223  0.00  0.00    -0.079 A 
ATOM     57  H1  XNC d          26.762   6.238  32.842  0.00  0.00     0.087 H 
ATOM     58  C41 XNC d          27.556   9.499  32.212  0.00  0.00    -0.059 A 
ATOM     59  H2  XNC d          25.826   8.279  31.774  0.00  0.00     0.083 H 
ATOM     60  C40 XNC d          28.819   9.556  32.779  0.00  0.00     0.031 A 
ATOM     61  H3  XNC d          27.135  10.386  31.754  0.00  0.00     0.086 H 
ATOM     62  N39 XNC d          29.339   8.405  33.336  0.00  0.00    -0.248 NA
BRANCH  60  63
ATOM     63  C44 XNC d          29.648  10.812  32.772  0.00  0.00    -0.035 C 
ATOM     64  H4  XNC d          29.435  11.397  33.679  0.00  0.00     0.035 H 
ATOM     65  H5  XNC d          29.399  11.411  31.884  0.00  0.00     0.035 H 
ATOM     66  H6  XNC d          30.716  10.548  32.749  0.00  0.00     0.035 H 
ENDBRANCH  60  63
ENDBRANCH   2  54
BRANCH  18  67
ATOM     67  O36 XNC d          26.062   7.407  38.772  0.00  0.00    -0.358 OA
ATOM     68  H21 XNC d          25.287   7.581  38.251  0.00  0.00     0.217 HD
ENDBRANCH  18  67
BRANCH  13  69
ATOM     69  C37 XNC d          24.342   1.146  36.775  0.00  0.00    -0.068 C 
ATOM     70  H12 XNC d          24.169   0.627  35.821  0.00  0.00     0.028 H 
ATOM     71  H13 XNC d          23.570   1.916  36.917  0.00  0.00     0.028 H 
ATOM     72  H14 XNC d          24.294   0.421  37.601  0.00  0.00     0.028 H 
ENDBRANCH  13  69
BRANCH  13  73
ATOM     73  C38 XNC d          26.490   1.517  38.080  0.00  0.00    -0.068 C 
ATOM     74  H15 XNC d          26.211   0.516  38.443  0.00  0.00     0.028 H 
ATOM     75  H16 XNC d          26.215   2.269  38.834  0.00  0.00     0.028 H 
ATOM     76  H17 XNC d          27.575   1.553  37.904  0.00  0.00     0.028 H 
ENDBRANCH  13  73
TORSDOF 9
ENDMDL
