MODEL 1
REMARK VINA RESULT:      -7.1      0.000      0.000
REMARK  7 active torsions:
REMARK  status: ('A' for Active; 'I' for Inactive)
REMARK    1  A    between atoms: C13_2  and  C15_3 
REMARK       I    between atoms: C13_2  and  N12_13 
REMARK    2  A    between atoms: C19_7  and  C21_8 
REMARK    3  A    between atoms: C21_8  and  N22_9 
REMARK    4  A    between atoms: N22_9  and  C23_10 
REMARK    5  A    between atoms: N22_9  and  C24_11 
REMARK    6  A    between atoms: N12_13  and  C10_14 
REMARK    7  A    between atoms: C6_16  and  C2_20 
ROOT
ATOM      1  C15 DN3 d         -10.429  57.660  11.618  0.00  0.00     0.032 A 
ATOM      2  C16 DN3 d          -9.916  58.388  10.546  0.00  0.00    -0.068 A 
ATOM      3  C17 DN3 d         -10.583  59.535  10.119  0.00  0.00    -0.081 A 
ATOM      4  C18 DN3 d         -11.769  59.939  10.721  0.00  0.00    -0.075 A 
ATOM      5  C19 DN3 d         -12.221  59.268  11.857  0.00  0.00    -0.032 A 
ATOM      6  C20 DN3 d         -11.563  58.120  12.280  0.00  0.00    -0.060 A 
ATOM      7  H1  DN3 d          -9.008  58.065  10.050  0.00  0.00     0.085 H 
ATOM      8  H2  DN3 d         -10.170  60.121   9.305  0.00  0.00     0.083 H 
ATOM      9  H3  DN3 d         -12.335  60.768  10.312  0.00  0.00     0.084 H 
ATOM     10  H13 DN3 d         -11.938  57.575  13.139  0.00  0.00     0.086 H 
ENDROOT
BRANCH   1  11
ATOM     11  C13 DN3 d          -9.688  56.463  12.170  0.00  0.00     0.256 C 
ATOM     12  O14 DN3 d          -9.603  56.319  13.385  0.00  0.00    -0.267 OA
ATOM     13  N12 DN3 d          -9.151  55.591  11.307  0.00  0.00    -0.323 N 
ATOM     14  H14 DN3 d          -9.310  55.742  10.332  0.00  0.00     0.169 HD
BRANCH  13  15
ATOM     15  C10 DN3 d          -8.375  54.470  11.682  0.00  0.00     0.035 A 
ATOM     16  C11 DN3 d          -7.028  54.680  11.961  0.00  0.00    -0.043 A 
ATOM     17  C6  DN3 d          -6.216  53.625  12.363  0.00  0.00     0.017 A 
ATOM     18  H15 DN3 d          -6.608  55.675  11.864  0.00  0.00     0.088 H 
ATOM     19  C7  DN3 d          -6.739  52.343  12.492  0.00  0.00    -0.069 A 
ATOM     20  C8  DN3 d          -8.086  52.130  12.240  0.00  0.00    -0.080 A 
ATOM     21  H16 DN3 d          -6.101  51.518  12.787  0.00  0.00     0.085 H 
ATOM     22  C9  DN3 d          -8.902  53.185  11.809  0.00  0.00    -0.057 A 
ATOM     23  H17 DN3 d          -8.510  51.142  12.378  0.00  0.00     0.083 H 
ATOM     24  H18 DN3 d          -9.944  53.001  11.574  0.00  0.00     0.086 H 
BRANCH  17  25
ATOM     25  C2  DN3 d          -4.781  53.860  12.649  0.00  0.00     0.198 A 
ATOM     26  N1  DN3 d          -4.178  53.629  13.833  0.00  0.00    -0.139 NA
ATOM     27  N5  DN3 d          -2.841  53.993  13.732  0.00  0.00    -0.200 N 
ATOM     28  N4  DN3 d          -2.648  54.445  12.426  0.00  0.00     0.022 NA
ATOM     29  H19 DN3 d          -2.131  53.940  14.476  0.00  0.00     0.208 HD
ATOM     30  N3  DN3 d          -3.881  54.368  11.774  0.00  0.00    -0.136 NA
ENDBRANCH  17  25
ENDBRANCH  13  15
ENDBRANCH   1  11
BRANCH   5  31
ATOM     31  C21 DN3 d         -13.495  59.702  12.564  0.00  0.00     0.106 C 
ATOM     32  H4  DN3 d         -13.446  60.776  12.796  0.00  0.00     0.083 H 
ATOM     33  H5  DN3 d         -13.619  59.131  13.496  0.00  0.00     0.083 H 
BRANCH  31  34
ATOM     34  N22 DN3 d         -14.629  59.436  11.658  0.00  0.00    -0.075 N 
ATOM     35  H6  DN3 d         -14.289  59.370  10.711  0.00  0.00     0.279 HD
BRANCH  34  36
ATOM     36  C23 DN3 d         -15.252  58.160  12.051  0.00  0.00     0.066 C 
ATOM     37  H7  DN3 d         -16.236  58.355  12.501  0.00  0.00     0.068 H 
ATOM     38  H8  DN3 d         -14.609  57.649  12.783  0.00  0.00     0.068 H 
ATOM     39  H9  DN3 d         -15.374  57.523  11.163  0.00  0.00     0.068 H 
ENDBRANCH  34  36
BRANCH  34  40
ATOM     40  C24 DN3 d         -15.639  60.502  11.734  0.00  0.00     0.066 C 
ATOM     41  H10 DN3 d         -15.730  60.991  10.753  0.00  0.00     0.068 H 
ATOM     42  H11 DN3 d         -15.333  61.244  12.487  0.00  0.00     0.068 H 
ATOM     43  H12 DN3 d         -16.610  60.068  12.019  0.00  0.00     0.068 H 
ENDBRANCH  34  40
ENDBRANCH  31  34
ENDBRANCH   5  31
TORSDOF 7
ENDMDL
MODEL 2
REMARK VINA RESULT:      -6.7      2.030      3.199
REMARK  7 active torsions:
REMARK  status: ('A' for Active; 'I' for Inactive)
REMARK    1  A    between atoms: C13_2  and  C15_3 
REMARK       I    between atoms: C13_2  and  N12_13 
REMARK    2  A    between atoms: C19_7  and  C21_8 
REMARK    3  A    between atoms: C21_8  and  N22_9 
REMARK    4  A    between atoms: N22_9  and  C23_10 
REMARK    5  A    between atoms: N22_9  and  C24_11 
REMARK    6  A    between atoms: N12_13  and  C10_14 
REMARK    7  A    between atoms: C6_16  and  C2_20 
ROOT
ATOM      1  C15 DN3 d         -12.273  58.656  11.802  0.00  0.00     0.032 A 
ATOM      2  C16 DN3 d         -12.468  59.976  12.205  0.00  0.00    -0.068 A 
ATOM      3  C17 DN3 d         -13.731  60.377  12.640  0.00  0.00    -0.081 A 
ATOM      4  C18 DN3 d         -14.802  59.492  12.641  0.00  0.00    -0.075 A 
ATOM      5  C19 DN3 d         -14.579  58.149  12.336  0.00  0.00    -0.032 A 
ATOM      6  C20 DN3 d         -13.324  57.748  11.895  0.00  0.00    -0.060 A 
ATOM      7  H1  DN3 d         -11.647  60.683  12.181  0.00  0.00     0.085 H 
ATOM      8  H2  DN3 d         -13.878  61.395  12.984  0.00  0.00     0.083 H 
ATOM      9  H3  DN3 d         -15.801  59.842  12.876  0.00  0.00     0.084 H 
ATOM     10  H13 DN3 d         -13.161  56.713  11.619  0.00  0.00     0.086 H 
ENDROOT
BRANCH   1  11
ATOM     11  C13 DN3 d         -10.901  58.158  11.412  0.00  0.00     0.256 C 
ATOM     12  O14 DN3 d         -10.204  58.841  10.667  0.00  0.00    -0.267 OA
ATOM     13  N12 DN3 d         -10.485  56.983  11.901  0.00  0.00    -0.323 N 
ATOM     14  H14 DN3 d         -11.083  56.510  12.548  0.00  0.00     0.169 HD
BRANCH  13  15
ATOM     15  C10 DN3 d          -9.258  56.366  11.566  0.00  0.00     0.035 A 
ATOM     16  C11 DN3 d          -8.547  55.744  12.587  0.00  0.00    -0.043 A 
ATOM     17  C6  DN3 d          -7.347  55.092  12.319  0.00  0.00     0.017 A 
ATOM     18  H15 DN3 d          -8.930  55.766  13.600  0.00  0.00     0.088 H 
ATOM     19  C7  DN3 d          -6.840  55.054  11.024  0.00  0.00    -0.069 A 
ATOM     20  C8  DN3 d          -7.556  55.650   9.997  0.00  0.00    -0.080 A 
ATOM     21  H16 DN3 d          -5.896  54.564  10.821  0.00  0.00     0.085 H 
ATOM     22  C9  DN3 d          -8.752  56.330  10.267  0.00  0.00    -0.057 A 
ATOM     23  H17 DN3 d          -7.188  55.589   8.979  0.00  0.00     0.083 H 
ATOM     24  H18 DN3 d          -9.284  56.828   9.465  0.00  0.00     0.086 H 
BRANCH  17  25
ATOM     25  C2  DN3 d          -6.594  54.442  13.417  0.00  0.00     0.198 A 
ATOM     26  N1  DN3 d          -7.090  53.502  14.246  0.00  0.00    -0.139 NA
ATOM     27  N5  DN3 d          -6.106  53.150  15.162  0.00  0.00    -0.200 N 
ATOM     28  N4  DN3 d          -4.978  53.907  14.846  0.00  0.00     0.022 NA
ATOM     29  H19 DN3 d          -6.193  52.463  15.925  0.00  0.00     0.208 HD
ATOM     30  N3  DN3 d          -5.314  54.720  13.762  0.00  0.00    -0.136 NA
ENDBRANCH  17  25
ENDBRANCH  13  15
ENDBRANCH   1  11
BRANCH   5  31
ATOM     31  C21 DN3 d         -15.719  57.144  12.360  0.00  0.00     0.106 C 
ATOM     32  H4  DN3 d         -16.082  56.967  11.337  0.00  0.00     0.083 H 
ATOM     33  H5  DN3 d         -16.543  57.527  12.981  0.00  0.00     0.083 H 
BRANCH  31  34
ATOM     34  N22 DN3 d         -15.202  55.886  12.934  0.00  0.00    -0.075 N 
ATOM     35  H6  DN3 d         -14.247  56.022  13.226  0.00  0.00     0.279 HD
BRANCH  34  36
ATOM     36  C23 DN3 d         -16.030  55.528  14.098  0.00  0.00     0.066 C 
ATOM     37  H7  DN3 d         -16.578  56.417  14.445  0.00  0.00     0.068 H 
ATOM     38  H8  DN3 d         -15.385  55.157  14.907  0.00  0.00     0.068 H 
ATOM     39  H9  DN3 d         -16.747  54.745  13.811  0.00  0.00     0.068 H 
ENDBRANCH  34  36
BRANCH  34  40
ATOM     40  C24 DN3 d         -15.254  54.788  11.957  0.00  0.00     0.066 C 
ATOM     41  H10 DN3 d         -14.437  54.080  12.157  0.00  0.00     0.068 H 
ATOM     42  H11 DN3 d         -15.145  55.197  10.941  0.00  0.00     0.068 H 
ATOM     43  H12 DN3 d         -16.220  54.267  12.041  0.00  0.00     0.068 H 
ENDBRANCH  34  40
ENDBRANCH  31  34
ENDBRANCH   5  31
TORSDOF 7
ENDMDL
MODEL 3
REMARK VINA RESULT:      -6.7      1.586      2.001
REMARK  7 active torsions:
REMARK  status: ('A' for Active; 'I' for Inactive)
REMARK    1  A    between atoms: C13_2  and  C15_3 
REMARK       I    between atoms: C13_2  and  N12_13 
REMARK    2  A    between atoms: C19_7  and  C21_8 
REMARK    3  A    between atoms: C21_8  and  N22_9 
REMARK    4  A    between atoms: N22_9  and  C23_10 
REMARK    5  A    between atoms: N22_9  and  C24_11 
REMARK    6  A    between atoms: N12_13  and  C10_14 
REMARK    7  A    between atoms: C6_16  and  C2_20 
ROOT
ATOM      1  C15 DN3 d         -11.368  58.113  11.114  0.00  0.00     0.032 A 
ATOM      2  C16 DN3 d         -10.987  59.261  10.422  0.00  0.00    -0.068 A 
ATOM      3  C17 DN3 d         -11.720  60.435  10.592  0.00  0.00    -0.081 A 
ATOM      4  C18 DN3 d         -12.843  60.465  11.411  0.00  0.00    -0.075 A 
ATOM      5  C19 DN3 d         -13.158  59.344  12.179  0.00  0.00    -0.032 A 
ATOM      6  C20 DN3 d         -12.435  58.172  12.006  0.00  0.00    -0.060 A 
ATOM      7  H1  DN3 d         -10.130  59.242   9.758  0.00  0.00     0.085 H 
ATOM      8  H2  DN3 d         -11.409  61.338  10.079  0.00  0.00     0.083 H 
ATOM      9  H3  DN3 d         -13.468  61.350  11.451  0.00  0.00     0.084 H 
ATOM     10  H13 DN3 d         -12.706  57.289  12.573  0.00  0.00     0.086 H 
ENDROOT
BRANCH   1  11
ATOM     11  C13 DN3 d         -10.547  56.847  11.028  0.00  0.00     0.256 C 
ATOM     12  O14 DN3 d         -11.102  55.761  11.172  0.00  0.00    -0.267 OA
ATOM     13  N12 DN3 d          -9.234  56.952  10.789  0.00  0.00    -0.323 N 
ATOM     14  H14 DN3 d          -8.862  57.865  10.625  0.00  0.00     0.169 HD
BRANCH  13  15
ATOM     15  C10 DN3 d          -8.337  55.859  10.752  0.00  0.00     0.035 A 
ATOM     16  C11 DN3 d          -7.742  55.471  11.948  0.00  0.00    -0.043 A 
ATOM     17  C6  DN3 d          -6.873  54.385  11.987  0.00  0.00     0.017 A 
ATOM     18  H15 DN3 d          -7.957  56.019  12.858  0.00  0.00     0.088 H 
ATOM     19  C7  DN3 d          -6.587  53.671  10.828  0.00  0.00    -0.069 A 
ATOM     20  C8  DN3 d          -7.195  54.036   9.637  0.00  0.00    -0.080 A 
ATOM     21  H16 DN3 d          -5.894  52.838  10.856  0.00  0.00     0.085 H 
ATOM     22  C9  DN3 d          -8.051  55.146   9.588  0.00  0.00    -0.057 A 
ATOM     23  H17 DN3 d          -7.009  53.460   8.738  0.00  0.00     0.083 H 
ATOM     24  H18 DN3 d          -8.490  55.449   8.645  0.00  0.00     0.086 H 
BRANCH  17  25
ATOM     25  C2  DN3 d          -6.239  53.987  13.265  0.00  0.00     0.198 A 
ATOM     26  N1  DN3 d          -6.855  53.320  14.262  0.00  0.00    -0.139 NA
ATOM     27  N5  DN3 d          -5.956  53.150  15.308  0.00  0.00    -0.200 N 
ATOM     28  N4  DN3 d          -4.754  53.732  14.900  0.00  0.00     0.022 NA
ATOM     29  H19 DN3 d          -6.140  52.685  16.208  0.00  0.00     0.208 HD
ATOM     30  N3  DN3 d          -4.963  54.263  13.626  0.00  0.00    -0.136 NA
ENDBRANCH  17  25
ENDBRANCH  13  15
ENDBRANCH   1  11
BRANCH   5  31
ATOM     31  C21 DN3 d         -14.359  59.351  13.112  0.00  0.00     0.106 C 
ATOM     32  H4  DN3 d         -14.218  60.108  13.897  0.00  0.00     0.083 H 
ATOM     33  H5  DN3 d         -14.479  58.360  13.575  0.00  0.00     0.083 H 
BRANCH  31  34
ATOM     34  N22 DN3 d         -15.554  59.676  12.309  0.00  0.00    -0.075 N 
ATOM     35  H6  DN3 d         -15.276  60.210  11.501  0.00  0.00     0.279 HD
BRANCH  34  36
ATOM     36  C23 DN3 d         -16.185  58.417  11.879  0.00  0.00     0.066 C 
ATOM     37  H7  DN3 d         -15.553  57.568  12.180  0.00  0.00     0.068 H 
ATOM     38  H8  DN3 d         -16.299  58.419  10.785  0.00  0.00     0.068 H 
ATOM     39  H9  DN3 d         -17.174  58.323  12.350  0.00  0.00     0.068 H 
ENDBRANCH  34  36
BRANCH  34  40
ATOM     40  C24 DN3 d         -16.529  60.455  13.089  0.00  0.00     0.066 C 
ATOM     41  H10 DN3 d         -17.289  60.872  12.412  0.00  0.00     0.068 H 
ATOM     42  H11 DN3 d         -16.010  61.275  13.608  0.00  0.00     0.068 H 
ATOM     43  H12 DN3 d         -17.015  59.801  13.828  0.00  0.00     0.068 H 
ENDBRANCH  34  40
ENDBRANCH  31  34
ENDBRANCH   5  31
TORSDOF 7
ENDMDL
MODEL 4
REMARK VINA RESULT:      -6.6      2.019      9.021
REMARK  7 active torsions:
REMARK  status: ('A' for Active; 'I' for Inactive)
REMARK    1  A    between atoms: C13_2  and  C15_3 
REMARK       I    between atoms: C13_2  and  N12_13 
REMARK    2  A    between atoms: C19_7  and  C21_8 
REMARK    3  A    between atoms: C21_8  and  N22_9 
REMARK    4  A    between atoms: N22_9  and  C23_10 
REMARK    5  A    between atoms: N22_9  and  C24_11 
REMARK    6  A    between atoms: N12_13  and  C10_14 
REMARK    7  A    between atoms: C6_16  and  C2_20 
ROOT
ATOM      1  C15 DN3 d          -6.932  53.658  12.681  0.00  0.00     0.032 A 
ATOM      2  C16 DN3 d          -6.973  53.518  14.066  0.00  0.00    -0.068 A 
ATOM      3  C17 DN3 d          -5.890  52.937  14.726  0.00  0.00    -0.081 A 
ATOM      4  C18 DN3 d          -4.792  52.464  14.018  0.00  0.00    -0.075 A 
ATOM      5  C19 DN3 d          -4.710  52.700  12.646  0.00  0.00    -0.032 A 
ATOM      6  C20 DN3 d          -5.790  53.271  11.985  0.00  0.00    -0.060 A 
ATOM      7  H1  DN3 d          -7.838  53.857  14.626  0.00  0.00     0.085 H 
ATOM      8  H2  DN3 d          -5.906  52.854  15.807  0.00  0.00     0.083 H 
ATOM      9  H3  DN3 d          -4.006  51.917  14.528  0.00  0.00     0.084 H 
ATOM     10  H13 DN3 d          -5.743  53.417  10.912  0.00  0.00     0.086 H 
ENDROOT
BRANCH   1  11
ATOM     11  C13 DN3 d          -8.043  54.364  11.938  0.00  0.00     0.256 C 
ATOM     12  O14 DN3 d          -9.092  53.766  11.718  0.00  0.00    -0.267 OA
ATOM     13  N12 DN3 d          -7.848  55.631  11.549  0.00  0.00    -0.323 N 
ATOM     14  H14 DN3 d          -6.990  56.072  11.814  0.00  0.00     0.169 HD
BRANCH  13  15
ATOM     15  C10 DN3 d          -8.770  56.386  10.789  0.00  0.00     0.035 A 
ATOM     16  C11 DN3 d          -9.719  57.133  11.481  0.00  0.00    -0.043 A 
ATOM     17  C6  DN3 d         -10.637  57.921  10.794  0.00  0.00     0.017 A 
ATOM     18  H15 DN3 d          -9.743  57.100  12.564  0.00  0.00     0.088 H 
ATOM     19  C7  DN3 d         -10.619  57.973   9.404  0.00  0.00    -0.069 A 
ATOM     20  C8  DN3 d          -9.660  57.252   8.709  0.00  0.00    -0.080 A 
ATOM     21  H16 DN3 d         -11.347  58.572   8.870  0.00  0.00     0.085 H 
ATOM     22  C9  DN3 d          -8.750  56.436   9.395  0.00  0.00    -0.057 A 
ATOM     23  H17 DN3 d          -9.614  57.320   7.628  0.00  0.00     0.083 H 
ATOM     24  H18 DN3 d          -8.031  55.843   8.843  0.00  0.00     0.086 H 
BRANCH  17  25
ATOM     25  C2  DN3 d         -11.648  58.704  11.541  0.00  0.00     0.198 A 
ATOM     26  N1  DN3 d         -11.628  60.043  11.701  0.00  0.00    -0.139 NA
ATOM     27  N5  DN3 d         -12.717  60.415  12.479  0.00  0.00    -0.200 N 
ATOM     28  N4  DN3 d         -13.415  59.244  12.777  0.00  0.00     0.022 NA
ATOM     29  H19 DN3 d         -12.962  61.370  12.778  0.00  0.00     0.208 HD
ATOM     30  N3  DN3 d         -12.716  58.186  12.193  0.00  0.00    -0.136 NA
ENDBRANCH  17  25
ENDBRANCH  13  15
ENDBRANCH   1  11
BRANCH   5  31
ATOM     31  C21 DN3 d          -3.508  52.228  11.844  0.00  0.00     0.106 C 
ATOM     32  H4  DN3 d          -3.843  51.779  10.898  0.00  0.00     0.083 H 
ATOM     33  H5  DN3 d          -2.940  51.484  12.422  0.00  0.00     0.083 H 
BRANCH  31  34
ATOM     34  N22 DN3 d          -2.658  53.403  11.568  0.00  0.00    -0.075 N 
ATOM     35  H6  DN3 d          -3.231  54.149  11.205  0.00  0.00     0.279 HD
BRANCH  34  36
ATOM     36  C23 DN3 d          -2.028  53.830  12.829  0.00  0.00     0.066 C 
ATOM     37  H7  DN3 d          -2.329  53.149  13.639  0.00  0.00     0.068 H 
ATOM     38  H8  DN3 d          -2.349  54.853  13.071  0.00  0.00     0.068 H 
ATOM     39  H9  DN3 d          -0.933  53.806  12.718  0.00  0.00     0.068 H 
ENDBRANCH  34  36
BRANCH  34  40
ATOM     40  C24 DN3 d          -1.604  53.086  10.592  0.00  0.00     0.066 C 
ATOM     41  H10 DN3 d          -1.134  54.018  10.245  0.00  0.00     0.068 H 
ATOM     42  H11 DN3 d          -2.047  52.556   9.734  0.00  0.00     0.068 H 
ATOM     43  H12 DN3 d          -0.845  52.447  11.066  0.00  0.00     0.068 H 
ENDBRANCH  34  40
ENDBRANCH  31  34
ENDBRANCH   5  31
TORSDOF 7
ENDMDL
MODEL 5
REMARK VINA RESULT:      -6.2      1.220      9.069
REMARK  7 active torsions:
REMARK  status: ('A' for Active; 'I' for Inactive)
REMARK    1  A    between atoms: C13_2  and  C15_3 
REMARK       I    between atoms: C13_2  and  N12_13 
REMARK    2  A    between atoms: C19_7  and  C21_8 
REMARK    3  A    between atoms: C21_8  and  N22_9 
REMARK    4  A    between atoms: N22_9  and  C23_10 
REMARK    5  A    between atoms: N22_9  and  C24_11 
REMARK    6  A    between atoms: N12_13  and  C10_14 
REMARK    7  A    between atoms: C6_16  and  C2_20 
ROOT
ATOM      1  C15 DN3 d          -8.280  54.489  12.393  0.00  0.00     0.032 A 
ATOM      2  C16 DN3 d          -8.810  53.307  11.880  0.00  0.00    -0.068 A 
ATOM      3  C17 DN3 d          -8.066  52.130  11.972  0.00  0.00    -0.081 A 
ATOM      4  C18 DN3 d          -6.794  52.130  12.532  0.00  0.00    -0.075 A 
ATOM      5  C19 DN3 d          -6.313  53.292  13.135  0.00  0.00    -0.032 A 
ATOM      6  C20 DN3 d          -7.048  54.466  13.038  0.00  0.00    -0.060 A 
ATOM      7  H1  DN3 d          -9.789  53.301  11.415  0.00  0.00     0.085 H 
ATOM      8  H2  DN3 d          -8.487  51.202  11.602  0.00  0.00     0.083 H 
ATOM      9  H3  DN3 d          -6.182  51.235  12.500  0.00  0.00     0.084 H 
ATOM     10  H13 DN3 d          -6.655  55.379  13.472  0.00  0.00     0.086 H 
ENDROOT
BRANCH   1  11
ATOM     11  C13 DN3 d          -9.091  55.765  12.396  0.00  0.00     0.256 C 
ATOM     12  O14 DN3 d          -9.399  56.277  13.468  0.00  0.00    -0.267 OA
ATOM     13  N12 DN3 d          -9.441  56.302  11.220  0.00  0.00    -0.323 N 
ATOM     14  H14 DN3 d          -9.105  55.861  10.388  0.00  0.00     0.169 HD
BRANCH  13  15
ATOM     15  C10 DN3 d         -10.254  57.450  11.075  0.00  0.00     0.035 A 
ATOM     16  C11 DN3 d         -11.474  57.467  11.744  0.00  0.00    -0.043 A 
ATOM     17  C6  DN3 d         -12.307  58.578  11.668  0.00  0.00     0.017 A 
ATOM     18  H15 DN3 d         -11.777  56.608  12.331  0.00  0.00     0.088 H 
ATOM     19  C7  DN3 d         -11.933  59.689  10.919  0.00  0.00    -0.069 A 
ATOM     20  C8  DN3 d         -10.708  59.689  10.270  0.00  0.00    -0.080 A 
ATOM     21  H16 DN3 d         -12.592  60.546  10.844  0.00  0.00     0.085 H 
ATOM     22  C9  DN3 d          -9.876  58.562  10.323  0.00  0.00    -0.057 A 
ATOM     23  H17 DN3 d         -10.391  60.567   9.718  0.00  0.00     0.083 H 
ATOM     24  H18 DN3 d          -8.939  58.555   9.779  0.00  0.00     0.086 H 
BRANCH  17  25
ATOM     25  C2  DN3 d         -13.608  58.581  12.377  0.00  0.00     0.198 A 
ATOM     26  N1  DN3 d         -14.481  57.554  12.400  0.00  0.00    -0.139 NA
ATOM     27  N5  DN3 d         -15.596  57.932  13.138  0.00  0.00    -0.200 N 
ATOM     28  N4  DN3 d         -15.360  59.234  13.580  0.00  0.00     0.022 NA
ATOM     29  H19 DN3 d         -16.433  57.361  13.323  0.00  0.00     0.208 HD
ATOM     30  N3  DN3 d         -14.117  59.623  13.076  0.00  0.00    -0.136 NA
ENDBRANCH  17  25
ENDBRANCH  13  15
ENDBRANCH   1  11
BRANCH   5  31
ATOM     31  C21 DN3 d          -4.940  53.321  13.789  0.00  0.00     0.106 C 
ATOM     32  H4  DN3 d          -4.817  52.442  14.439  0.00  0.00     0.083 H 
ATOM     33  H5  DN3 d          -4.829  54.238  14.386  0.00  0.00     0.083 H 
BRANCH  31  34
ATOM     34  N22 DN3 d          -3.927  53.297  12.715  0.00  0.00    -0.075 N 
ATOM     35  H6  DN3 d          -4.392  53.263  11.821  0.00  0.00     0.279 HD
BRANCH  34  36
ATOM     36  C23 DN3 d          -3.119  54.525  12.808  0.00  0.00     0.066 C 
ATOM     37  H7  DN3 d          -2.266  54.455  12.117  0.00  0.00     0.068 H 
ATOM     38  H8  DN3 d          -2.748  54.642  13.837  0.00  0.00     0.068 H 
ATOM     39  H9  DN3 d          -3.739  55.393  12.540  0.00  0.00     0.068 H 
ENDBRANCH  34  36
BRANCH  34  40
ATOM     40  C24 DN3 d          -3.039  52.131  12.841  0.00  0.00     0.066 C 
ATOM     41  H10 DN3 d          -2.316  52.131  12.012  0.00  0.00     0.068 H 
ATOM     42  H11 DN3 d          -3.639  51.209  12.805  0.00  0.00     0.068 H 
ATOM     43  H12 DN3 d          -2.500  52.182  13.799  0.00  0.00     0.068 H 
ENDBRANCH  34  40
ENDBRANCH  31  34
ENDBRANCH   5  31
TORSDOF 7
ENDMDL
MODEL 6
REMARK VINA RESULT:      -5.7      2.634      9.136
REMARK  7 active torsions:
REMARK  status: ('A' for Active; 'I' for Inactive)
REMARK    1  A    between atoms: C13_2  and  C15_3 
REMARK       I    between atoms: C13_2  and  N12_13 
REMARK    2  A    between atoms: C19_7  and  C21_8 
REMARK    3  A    between atoms: C21_8  and  N22_9 
REMARK    4  A    between atoms: N22_9  and  C23_10 
REMARK    5  A    between atoms: N22_9  and  C24_11 
REMARK    6  A    between atoms: N12_13  and  C10_14 
REMARK    7  A    between atoms: C6_16  and  C2_20 
ROOT
ATOM      1  C15 DN3 d          -6.695  54.088  12.862  0.00  0.00     0.032 A 
ATOM      2  C16 DN3 d          -6.740  53.687  14.196  0.00  0.00    -0.068 A 
ATOM      3  C17 DN3 d          -5.756  52.828  14.685  0.00  0.00    -0.081 A 
ATOM      4  C18 DN3 d          -4.756  52.340  13.852  0.00  0.00    -0.075 A 
ATOM      5  C19 DN3 d          -4.654  52.825  12.548  0.00  0.00    -0.032 A 
ATOM      6  C20 DN3 d          -5.638  53.673  12.057  0.00  0.00    -0.060 A 
ATOM      7  H1  DN3 d          -7.533  54.038  14.847  0.00  0.00     0.085 H 
ATOM      8  H2  DN3 d          -5.771  52.538  15.729  0.00  0.00     0.083 H 
ATOM      9  H3  DN3 d          -4.061  51.590  14.214  0.00  0.00     0.084 H 
ATOM     10  H13 DN3 d          -5.581  54.018  11.031  0.00  0.00     0.086 H 
ENDROOT
BRANCH   1  11
ATOM     11  C13 DN3 d          -7.688  55.088  12.318  0.00  0.00     0.256 C 
ATOM     12  O14 DN3 d          -8.041  56.028  13.023  0.00  0.00    -0.267 OA
ATOM     13  N12 DN3 d          -8.148  54.918  11.072  0.00  0.00    -0.323 N 
ATOM     14  H14 DN3 d          -7.772  54.162  10.536  0.00  0.00     0.169 HD
BRANCH  13  15
ATOM     15  C10 DN3 d          -9.129  55.734  10.462  0.00  0.00     0.035 A 
ATOM     16  C11 DN3 d         -10.463  55.377  10.632  0.00  0.00    -0.043 A 
ATOM     17  C6  DN3 d         -11.479  56.154  10.083  0.00  0.00     0.017 A 
ATOM     18  H15 DN3 d         -10.714  54.486  11.196  0.00  0.00     0.088 H 
ATOM     19  C7  DN3 d         -11.174  57.300   9.356  0.00  0.00    -0.069 A 
ATOM     20  C8  DN3 d          -9.848  57.676   9.205  0.00  0.00    -0.080 A 
ATOM     21  H16 DN3 d         -11.965  57.893   8.913  0.00  0.00     0.085 H 
ATOM     22  C9  DN3 d          -8.821  56.883   9.733  0.00  0.00    -0.057 A 
ATOM     23  H17 DN3 d          -9.605  58.590   8.675  0.00  0.00     0.083 H 
ATOM     24  H18 DN3 d          -7.786  57.162   9.575  0.00  0.00     0.086 H 
BRANCH  17  25
ATOM     25  C2  DN3 d         -12.895  55.758  10.262  0.00  0.00     0.198 A 
ATOM     26  N1  DN3 d         -13.959  56.506   9.907  0.00  0.00    -0.139 NA
ATOM     27  N5  DN3 d         -15.119  55.824  10.254  0.00  0.00    -0.200 N 
ATOM     28  N4  DN3 d         -14.717  54.616  10.826  0.00  0.00     0.022 NA
ATOM     29  H19 DN3 d         -16.088  56.147  10.116  0.00  0.00     0.208 HD
ATOM     30  N3  DN3 d         -13.321  54.607  10.835  0.00  0.00    -0.136 NA
ENDBRANCH  17  25
ENDBRANCH  13  15
ENDBRANCH   1  11
BRANCH   5  31
ATOM     31  C21 DN3 d          -3.553  52.340  11.619  0.00  0.00     0.106 C 
ATOM     32  H4  DN3 d          -3.979  52.075  10.641  0.00  0.00     0.083 H 
ATOM     33  H5  DN3 d          -3.057  51.460  12.054  0.00  0.00     0.083 H 
BRANCH  31  34
ATOM     34  N22 DN3 d          -2.578  53.438  11.461  0.00  0.00    -0.075 N 
ATOM     35  H6  DN3 d          -3.062  54.271  11.165  0.00  0.00     0.279 HD
BRANCH  34  36
ATOM     36  C23 DN3 d          -1.929  53.677  12.762  0.00  0.00     0.066 C 
ATOM     37  H7  DN3 d          -2.438  54.504  13.279  0.00  0.00     0.068 H 
ATOM     38  H8  DN3 d          -0.873  53.939  12.601  0.00  0.00     0.068 H 
ATOM     39  H9  DN3 d          -1.992  52.766  13.376  0.00  0.00     0.068 H 
ENDBRANCH  34  36
BRANCH  34  40
ATOM     40  C24 DN3 d          -1.547  53.101  10.468  0.00  0.00     0.066 C 
ATOM     41  H10 DN3 d          -2.004  52.539   9.641  0.00  0.00     0.068 H 
ATOM     42  H11 DN3 d          -0.768  52.485  10.944  0.00  0.00     0.068 H 
ATOM     43  H12 DN3 d          -1.096  54.026  10.079  0.00  0.00     0.068 H 
ENDBRANCH  34  40
ENDBRANCH  31  34
ENDBRANCH   5  31
TORSDOF 7
ENDMDL
MODEL 7
REMARK VINA RESULT:      -5.4      2.205      2.574
REMARK  7 active torsions:
REMARK  status: ('A' for Active; 'I' for Inactive)
REMARK    1  A    between atoms: C13_2  and  C15_3 
REMARK       I    between atoms: C13_2  and  N12_13 
REMARK    2  A    between atoms: C19_7  and  C21_8 
REMARK    3  A    between atoms: C21_8  and  N22_9 
REMARK    4  A    between atoms: N22_9  and  C23_10 
REMARK    5  A    between atoms: N22_9  and  C24_11 
REMARK    6  A    between atoms: N12_13  and  C10_14 
REMARK    7  A    between atoms: C6_16  and  C2_20 
ROOT
ATOM      1  C15 DN3 d         -11.244  57.056   9.382  0.00  0.00     0.032 A 
ATOM      2  C16 DN3 d         -12.152  56.574   8.442  0.00  0.00    -0.068 A 
ATOM      3  C17 DN3 d         -13.356  57.250   8.248  0.00  0.00    -0.081 A 
ATOM      4  C18 DN3 d         -13.677  58.372   9.004  0.00  0.00    -0.075 A 
ATOM      5  C19 DN3 d         -12.722  58.909   9.868  0.00  0.00    -0.032 A 
ATOM      6  C20 DN3 d         -11.526  58.233  10.069  0.00  0.00    -0.060 A 
ATOM      7  H1  DN3 d         -11.926  55.683   7.867  0.00  0.00     0.085 H 
ATOM      8  H2  DN3 d         -14.053  56.896   7.496  0.00  0.00     0.083 H 
ATOM      9  H3  DN3 d         -14.659  58.825   8.923  0.00  0.00     0.084 H 
ATOM     10  H13 DN3 d         -10.800  58.629  10.771  0.00  0.00     0.086 H 
ENDROOT
BRANCH   1  11
ATOM     11  C13 DN3 d          -9.890  56.406   9.557  0.00  0.00     0.256 C 
ATOM     12  O14 DN3 d          -8.884  57.009   9.196  0.00  0.00    -0.267 OA
ATOM     13  N12 DN3 d          -9.833  55.188  10.112  0.00  0.00    -0.323 N 
ATOM     14  H14 DN3 d         -10.688  54.783  10.435  0.00  0.00     0.169 HD
BRANCH  13  15
ATOM     15  C10 DN3 d          -8.646  54.437  10.272  0.00  0.00     0.035 A 
ATOM     16  C11 DN3 d          -8.087  54.374  11.545  0.00  0.00    -0.043 A 
ATOM     17  C6  DN3 d          -6.936  53.628  11.777  0.00  0.00     0.017 A 
ATOM     18  H15 DN3 d          -8.553  54.912  12.363  0.00  0.00     0.088 H 
ATOM     19  C7  DN3 d          -6.327  52.933  10.738  0.00  0.00    -0.069 A 
ATOM     20  C8  DN3 d          -6.892  52.970   9.472  0.00  0.00    -0.080 A 
ATOM     21  H16 DN3 d          -5.419  52.368  10.916  0.00  0.00     0.085 H 
ATOM     22  C9  DN3 d          -8.036  53.742   9.228  0.00  0.00    -0.057 A 
ATOM     23  H17 DN3 d          -6.446  52.398   8.667  0.00  0.00     0.083 H 
ATOM     24  H18 DN3 d          -8.447  53.798   8.227  0.00  0.00     0.086 H 
BRANCH  17  25
ATOM     25  C2  DN3 d          -6.346  53.577  13.135  0.00  0.00     0.198 A 
ATOM     26  N1  DN3 d          -6.999  53.192  14.250  0.00  0.00    -0.139 NA
ATOM     27  N5  DN3 d          -6.134  53.300  15.333  0.00  0.00    -0.200 N 
ATOM     28  N4  DN3 d          -4.916  53.756  14.828  0.00  0.00     0.022 NA
ATOM     29  H19 DN3 d          -6.351  53.085  16.317  0.00  0.00     0.208 HD
ATOM     30  N3  DN3 d          -5.080  53.938  13.453  0.00  0.00    -0.136 NA
ENDBRANCH  17  25
ENDBRANCH  13  15
ENDBRANCH   1  11
BRANCH   5  31
ATOM     31  C21 DN3 d         -13.023  60.155  10.686  0.00  0.00     0.106 C 
ATOM     32  H4  DN3 d         -13.150  61.018  10.017  0.00  0.00     0.083 H 
ATOM     33  H5  DN3 d         -12.198  60.351  11.386  0.00  0.00     0.083 H 
BRANCH  31  34
ATOM     34  N22 DN3 d         -14.271  59.913  11.437  0.00  0.00    -0.075 N 
ATOM     35  H6  DN3 d         -14.492  58.930  11.404  0.00  0.00     0.279 HD
BRANCH  34  36
ATOM     36  C23 DN3 d         -14.062  60.329  12.834  0.00  0.00     0.066 C 
ATOM     37  H7  DN3 d         -14.920  60.007  13.444  0.00  0.00     0.068 H 
ATOM     38  H8  DN3 d         -13.970  61.423  12.881  0.00  0.00     0.068 H 
ATOM     39  H9  DN3 d         -13.143  59.866  13.221  0.00  0.00     0.068 H 
ENDBRANCH  34  36
BRANCH  34  40
ATOM     40  C24 DN3 d         -15.393  60.679  10.874  0.00  0.00     0.066 C 
ATOM     41  H10 DN3 d         -15.579  60.350   9.841  0.00  0.00     0.068 H 
ATOM     42  H11 DN3 d         -15.144  61.751  10.879  0.00  0.00     0.068 H 
ATOM     43  H12 DN3 d         -16.295  60.508  11.481  0.00  0.00     0.068 H 
ENDBRANCH  34  40
ENDBRANCH  31  34
ENDBRANCH   5  31
TORSDOF 7
ENDMDL
MODEL 8
REMARK VINA RESULT:      -5.0      1.798      8.884
REMARK  7 active torsions:
REMARK  status: ('A' for Active; 'I' for Inactive)
REMARK    1  A    between atoms: C13_2  and  C15_3 
REMARK       I    between atoms: C13_2  and  N12_13 
REMARK    2  A    between atoms: C19_7  and  C21_8 
REMARK    3  A    between atoms: C21_8  and  N22_9 
REMARK    4  A    between atoms: N22_9  and  C23_10 
REMARK    5  A    between atoms: N22_9  and  C24_11 
REMARK    6  A    between atoms: N12_13  and  C10_14 
REMARK    7  A    between atoms: C6_16  and  C2_20 
ROOT
ATOM      1  C15 DN3 d          -9.321  54.383  10.615  0.00  0.00     0.032 A 
ATOM      2  C16 DN3 d          -9.461  53.257   9.806  0.00  0.00    -0.068 A 
ATOM      3  C17 DN3 d          -8.672  52.135  10.056  0.00  0.00    -0.081 A 
ATOM      4  C18 DN3 d          -7.724  52.139  11.073  0.00  0.00    -0.075 A 
ATOM      5  C19 DN3 d          -7.661  53.228  11.943  0.00  0.00    -0.032 A 
ATOM      6  C20 DN3 d          -8.439  54.350  11.691  0.00  0.00    -0.060 A 
ATOM      7  H1  DN3 d         -10.176  53.253   8.992  0.00  0.00     0.085 H 
ATOM      8  H2  DN3 d          -8.800  51.246   9.449  0.00  0.00     0.083 H 
ATOM      9  H3  DN3 d          -7.042  51.304  11.189  0.00  0.00     0.084 H 
ATOM     10  H13 DN3 d          -8.360  55.212  12.344  0.00  0.00     0.086 H 
ENDROOT
BRANCH   1  11
ATOM     11  C13 DN3 d         -10.220  55.585  10.435  0.00  0.00     0.256 C 
ATOM     12  O14 DN3 d         -10.860  55.705   9.395  0.00  0.00    -0.267 OA
ATOM     13  N12 DN3 d         -10.294  56.481  11.428  0.00  0.00    -0.323 N 
ATOM     14  H14 DN3 d          -9.789  56.287  12.269  0.00  0.00     0.169 HD
BRANCH  13  15
ATOM     15  C10 DN3 d         -11.038  57.682  11.367  0.00  0.00     0.035 A 
ATOM     16  C11 DN3 d         -12.298  57.692  11.959  0.00  0.00    -0.043 A 
ATOM     17  C6  DN3 d         -13.069  58.850  11.961  0.00  0.00     0.017 A 
ATOM     18  H15 DN3 d         -12.681  56.791  12.422  0.00  0.00     0.088 H 
ATOM     19  C7  DN3 d         -12.591  60.015  11.370  0.00  0.00    -0.069 A 
ATOM     20  C8  DN3 d         -11.326  60.020  10.801  0.00  0.00    -0.080 A 
ATOM     21  H16 DN3 d         -13.201  60.911  11.355  0.00  0.00     0.085 H 
ATOM     22  C9  DN3 d         -10.557  58.849  10.773  0.00  0.00    -0.057 A 
ATOM     23  H17 DN3 d         -10.931  60.935  10.375  0.00  0.00     0.083 H 
ATOM     24  H18 DN3 d          -9.587  58.850  10.290  0.00  0.00     0.086 H 
BRANCH  17  25
ATOM     25  C2  DN3 d         -14.412  58.847  12.585  0.00  0.00     0.198 A 
ATOM     26  N1  DN3 d         -15.049  59.936  13.061  0.00  0.00    -0.139 NA
ATOM     27  N5  DN3 d         -16.269  59.542  13.596  0.00  0.00    -0.200 N 
ATOM     28  N4  DN3 d         -16.357  58.161  13.415  0.00  0.00     0.022 NA
ATOM     29  H19 DN3 d         -16.971  60.150  14.041  0.00  0.00     0.208 HD
ATOM     30  N3  DN3 d         -15.175  57.748  12.796  0.00  0.00    -0.136 NA
ENDBRANCH  17  25
ENDBRANCH  13  15
ENDBRANCH   1  11
BRANCH   5  31
ATOM     31  C21 DN3 d          -6.661  53.253  13.088  0.00  0.00     0.106 C 
ATOM     32  H4  DN3 d          -5.954  52.418  12.986  0.00  0.00     0.083 H 
ATOM     33  H5  DN3 d          -7.190  53.170  14.049  0.00  0.00     0.083 H 
BRANCH  31  34
ATOM     34  N22 DN3 d          -5.934  54.537  13.026  0.00  0.00    -0.075 N 
ATOM     35  H6  DN3 d          -6.251  55.059  12.225  0.00  0.00     0.279 HD
BRANCH  34  36
ATOM     36  C23 DN3 d          -6.218  55.295  14.257  0.00  0.00     0.066 C 
ATOM     37  H7  DN3 d          -5.375  55.966  14.477  0.00  0.00     0.068 H 
ATOM     38  H8  DN3 d          -6.359  54.596  15.093  0.00  0.00     0.068 H 
ATOM     39  H9  DN3 d          -7.133  55.889  14.117  0.00  0.00     0.068 H 
ENDBRANCH  34  36
BRANCH  34  40
ATOM     40  C24 DN3 d          -4.482  54.327  12.921  0.00  0.00     0.066 C 
ATOM     41  H10 DN3 d          -4.285  53.412  12.343  0.00  0.00     0.068 H 
ATOM     42  H11 DN3 d          -4.053  54.224  13.929  0.00  0.00     0.068 H 
ATOM     43  H12 DN3 d          -4.023  55.188  12.412  0.00  0.00     0.068 H 
ENDBRANCH  34  40
ENDBRANCH  31  34
ENDBRANCH   5  31
TORSDOF 7
ENDMDL
