MODEL 1
REMARK VINA RESULT:      -8.8      0.000      0.000
REMARK  6 active torsions:
REMARK  status: ('A' for Active; 'I' for Inactive)
REMARK    1  A    between atoms: N16_6  and  C12_7 
REMARK    2  A    between atoms: C9_12  and  N7_13 
REMARK    3  A    between atoms: N7_13  and  C4_14 
REMARK    4  A    between atoms: C6_19  and  C15_20 
REMARK    5  A    between atoms: N25_24  and  C29_25 
REMARK    6  A    between atoms: C26_26  and  C27_27 
ROOT
ATOM      1  C12 Y8L d          21.751  25.354  28.894  0.00  0.00     0.030 A 
ATOM      2  C13 Y8L d          21.883  25.933  30.158  0.00  0.00    -0.055 A 
ATOM      3  C14 Y8L d          22.366  27.241  30.306  0.00  0.00    -0.054 A 
ATOM      4  C11 Y8L d          22.076  26.111  27.772  0.00  0.00    -0.055 A 
ATOM      5  C10 Y8L d          22.530  27.425  27.939  0.00  0.00    -0.054 A 
ATOM      6  C9  Y8L d          22.707  28.003  29.199  0.00  0.00     0.049 A 
ATOM      7  H11 Y8L d          21.608  25.363  31.038  0.00  0.00     0.087 H 
ATOM      8  H12 Y8L d          22.473  27.662  31.299  0.00  0.00     0.087 H 
ATOM      9  H13 Y8L d          21.978  25.687  26.779  0.00  0.00     0.087 H 
ATOM     10  H14 Y8L d          22.753  28.016  27.058  0.00  0.00     0.087 H 
ENDROOT
BRANCH   6  11
ATOM     11  N7  Y8L d          23.146  29.274  29.268  0.00  0.00    -0.188 N 
ATOM     12  H15 Y8L d          22.643  29.894  29.920  0.00  0.00     0.184 HD
BRANCH  11  13
ATOM     13  C4  Y8L d          24.166  29.830  28.587  0.00  0.00     0.727 A 
ATOM     14  N5  Y8L d          25.035  29.148  27.810  0.00  0.00    -0.061 NA
ATOM     15  C6  Y8L d          26.047  29.760  27.164  0.00  0.00     0.096 A 
ATOM     16  C1  Y8L d          26.130  31.152  27.231  0.00  0.00    -0.036 A 
ATOM     17  C2  Y8L d          25.202  31.840  27.993  0.00  0.00     0.023 A 
ATOM     18  H17 Y8L d          26.908  31.684  26.696  0.00  0.00     0.089 H 
ATOM     19  N3  Y8L d          24.253  31.173  28.632  0.00  0.00    -0.075 NA
ATOM     20  H16 Y8L d          25.252  32.920  28.068  0.00  0.00     0.115 H 
BRANCH  15  21
ATOM     21  C15 Y8L d          26.938  29.065  26.329  0.00  0.00     0.062 A 
ATOM     22  S23 Y8L d          28.476  29.613  25.783  0.00  0.00    -0.025 SA
ATOM     23  C24 Y8L d          28.730  28.270  24.784  0.00  0.00     0.291 A 
ATOM     24  O28 Y8L d          29.737  28.050  24.115  0.00  0.00    -0.259 OA
ATOM     25  N25 Y8L d          27.700  27.427  24.892  0.00  0.00    -0.316 N 
ATOM     26  C26 Y8L d          26.715  27.824  25.709  0.00  0.00     0.030 A 
BRANCH  25  27
ATOM     27  C29 Y8L d          27.659  26.136  24.148  0.00  0.00    -0.011 C 
ATOM     28  H18 Y8L d          26.865  25.498  24.563  0.00  0.00     0.057 H 
ATOM     29  H19 Y8L d          28.629  25.626  24.246  0.00  0.00     0.057 H 
ATOM     30  H20 Y8L d          27.453  26.332  23.085  0.00  0.00     0.057 H 
ENDBRANCH  25  27
BRANCH  26  31
ATOM     31  C27 Y8L d          25.472  26.959  25.936  0.00  0.00    -0.036 C 
ATOM     32  H21 Y8L d          25.112  26.574  24.971  0.00  0.00     0.035 H 
ATOM     33  H22 Y8L d          24.684  27.565  26.405  0.00  0.00     0.035 H 
ATOM     34  H23 Y8L d          25.728  26.116  26.595  0.00  0.00     0.035 H 
ENDBRANCH  26  31
ENDBRANCH  15  21
ENDBRANCH  11  13
ENDBRANCH   6  11
BRANCH   1  35
ATOM     35  N16 Y8L d          21.312  24.019  28.748  0.00  0.00    -0.378 N 
ATOM     36  C17 Y8L d          20.684  23.616  27.475  0.00  0.00     0.018 C 
ATOM     37  C18 Y8L d          19.880  22.303  27.519  0.00  0.00     0.096 C 
ATOM     38  H1  Y8L d          20.002  24.421  27.163  0.00  0.00     0.066 H 
ATOM     39  H2  Y8L d          21.481  23.500  26.725  0.00  0.00     0.066 H 
ATOM     40  N19 Y8L d          19.894  21.675  28.849  0.00  0.00    -0.072 N 
ATOM     41  H3  Y8L d          20.313  21.599  26.794  0.00  0.00     0.078 H 
ATOM     42  H4  Y8L d          18.837  22.519  27.243  0.00  0.00     0.078 H 
ATOM     43  C20 Y8L d          21.272  21.617  29.317  0.00  0.00     0.096 C 
ATOM     44  H5  Y8L d          19.515  20.742  28.789  0.00  0.00     0.277 HD
ATOM     45  H6  Y8L d          19.339  22.221  29.490  0.00  0.00     0.277 HD
ATOM     46  C21 Y8L d          21.677  23.021  29.769  0.00  0.00     0.018 C 
ATOM     47  H7  Y8L d          21.929  21.284  28.501  0.00  0.00     0.078 H 
ATOM     48  H8  Y8L d          21.351  20.916  30.161  0.00  0.00     0.078 H 
ATOM     49  H9  Y8L d          22.764  23.049  29.930  0.00  0.00     0.066 H 
ATOM     50  H10 Y8L d          21.160  23.260  30.710  0.00  0.00     0.066 H 
ENDBRANCH   1  35
TORSDOF 6
ENDMDL
MODEL 2
REMARK VINA RESULT:      -8.2      3.895      8.293
REMARK  6 active torsions:
REMARK  status: ('A' for Active; 'I' for Inactive)
REMARK    1  A    between atoms: N16_6  and  C12_7 
REMARK    2  A    between atoms: C9_12  and  N7_13 
REMARK    3  A    between atoms: N7_13  and  C4_14 
REMARK    4  A    between atoms: C6_19  and  C15_20 
REMARK    5  A    between atoms: N25_24  and  C29_25 
REMARK    6  A    between atoms: C26_26  and  C27_27 
ROOT
ATOM      1  C12 Y8L d          25.711  29.229  27.248  0.00  0.00     0.030 A 
ATOM      2  C13 Y8L d          25.386  27.966  26.747  0.00  0.00    -0.055 A 
ATOM      3  C14 Y8L d          24.255  27.276  27.208  0.00  0.00    -0.054 A 
ATOM      4  C11 Y8L d          24.873  29.812  28.194  0.00  0.00    -0.055 A 
ATOM      5  C10 Y8L d          23.733  29.119  28.621  0.00  0.00    -0.054 A 
ATOM      6  C9  Y8L d          23.417  27.838  28.160  0.00  0.00     0.049 A 
ATOM      7  H11 Y8L d          26.016  27.513  25.991  0.00  0.00     0.087 H 
ATOM      8  H12 Y8L d          24.033  26.291  26.814  0.00  0.00     0.087 H 
ATOM      9  H13 Y8L d          25.099  30.793  28.595  0.00  0.00     0.087 H 
ATOM     10  H14 Y8L d          23.071  29.594  29.336  0.00  0.00     0.087 H 
ENDROOT
BRANCH   6  11
ATOM     11  N7  Y8L d          22.301  27.244  28.622  0.00  0.00    -0.188 N 
ATOM     12  H15 Y8L d          21.541  27.874  28.919  0.00  0.00     0.184 HD
BRANCH  11  13
ATOM     13  C4  Y8L d          22.060  25.925  28.741  0.00  0.00     0.727 A 
ATOM     14  N5  Y8L d          21.721  25.109  27.720  0.00  0.00    -0.061 NA
ATOM     15  C6  Y8L d          21.477  23.796  27.906  0.00  0.00     0.096 A 
ATOM     16  C1  Y8L d          21.678  23.259  29.178  0.00  0.00    -0.036 A 
ATOM     17  C2  Y8L d          22.072  24.101  30.204  0.00  0.00     0.023 A 
ATOM     18  H17 Y8L d          21.527  22.202  29.360  0.00  0.00     0.089 H 
ATOM     19  N3  Y8L d          22.261  25.389  29.960  0.00  0.00    -0.075 NA
ATOM     20  H16 Y8L d          22.225  23.708  31.202  0.00  0.00     0.115 H 
BRANCH  15  21
ATOM     21  C15 Y8L d          21.153  22.933  26.846  0.00  0.00     0.062 A 
ATOM     22  S23 Y8L d          19.580  22.388  26.407  0.00  0.00    -0.025 SA
ATOM     23  C24 Y8L d          20.150  21.347  25.200  0.00  0.00     0.291 A 
ATOM     24  O28 Y8L d          19.455  20.663  24.453  0.00  0.00    -0.259 OA
ATOM     25  N25 Y8L d          21.480  21.440  25.115  0.00  0.00    -0.316 N 
ATOM     26  C26 Y8L d          22.054  22.278  25.989  0.00  0.00     0.030 A 
BRANCH  25  27
ATOM     27  C29 Y8L d          22.260  20.659  24.115  0.00  0.00    -0.011 C 
ATOM     28  H18 Y8L d          22.543  21.314  23.277  0.00  0.00     0.057 H 
ATOM     29  H19 Y8L d          21.646  19.827  23.739  0.00  0.00     0.057 H 
ATOM     30  H20 Y8L d          23.168  20.259  24.589  0.00  0.00     0.057 H 
ENDBRANCH  25  27
BRANCH  26  31
ATOM     31  C27 Y8L d          23.570  22.492  26.007  0.00  0.00    -0.036 C 
ATOM     32  H21 Y8L d          23.932  22.464  27.045  0.00  0.00     0.035 H 
ATOM     33  H22 Y8L d          23.808  23.470  25.563  0.00  0.00     0.035 H 
ATOM     34  H23 Y8L d          24.060  21.697  25.426  0.00  0.00     0.035 H 
ENDBRANCH  26  31
ENDBRANCH  15  21
ENDBRANCH  11  13
ENDBRANCH   6  11
BRANCH   1  35
ATOM     35  N16 Y8L d          26.878  29.901  26.821  0.00  0.00    -0.378 N 
ATOM     36  C17 Y8L d          27.020  31.337  27.131  0.00  0.00     0.018 C 
ATOM     37  C18 Y8L d          28.085  32.090  26.312  0.00  0.00     0.096 C 
ATOM     38  H1  Y8L d          26.048  31.821  26.951  0.00  0.00     0.066 H 
ATOM     39  H2  Y8L d          27.283  31.430  28.196  0.00  0.00     0.066 H 
ATOM     40  N19 Y8L d          28.785  31.218  25.356  0.00  0.00    -0.072 N 
ATOM     41  H3  Y8L d          28.824  32.519  27.004  0.00  0.00     0.078 H 
ATOM     42  H4  Y8L d          27.592  32.900  25.754  0.00  0.00     0.078 H 
ATOM     43  C20 Y8L d          29.223  30.021  26.061  0.00  0.00     0.096 C 
ATOM     44  H5  Y8L d          29.585  31.701  24.977  0.00  0.00     0.277 HD
ATOM     45  H6  Y8L d          28.161  30.963  24.607  0.00  0.00     0.277 HD
ATOM     46  C21 Y8L d          28.003  29.124  26.272  0.00  0.00     0.018 C 
ATOM     47  H7  Y8L d          29.656  30.298  27.033  0.00  0.00     0.078 H 
ATOM     48  H8  Y8L d          29.978  29.490  25.461  0.00  0.00     0.078 H 
ATOM     49  H9  Y8L d          28.263  28.320  26.976  0.00  0.00     0.066 H 
ATOM     50  H10 Y8L d          27.705  28.687  25.308  0.00  0.00     0.066 H 
ENDBRANCH   1  35
TORSDOF 6
ENDMDL
MODEL 3
REMARK VINA RESULT:      -7.7      3.100      5.378
REMARK  6 active torsions:
REMARK  status: ('A' for Active; 'I' for Inactive)
REMARK    1  A    between atoms: N16_6  and  C12_7 
REMARK    2  A    between atoms: C9_12  and  N7_13 
REMARK    3  A    between atoms: N7_13  and  C4_14 
REMARK    4  A    between atoms: C6_19  and  C15_20 
REMARK    5  A    between atoms: N25_24  and  C29_25 
REMARK    6  A    between atoms: C26_26  and  C27_27 
ROOT
ATOM      1  C12 Y8L d          24.301  23.522  25.016  0.00  0.00     0.030 A 
ATOM      2  C13 Y8L d          25.411  22.856  24.491  0.00  0.00    -0.055 A 
ATOM      3  C14 Y8L d          26.584  23.552  24.165  0.00  0.00    -0.054 A 
ATOM      4  C11 Y8L d          24.388  24.893  25.245  0.00  0.00    -0.055 A 
ATOM      5  C10 Y8L d          25.577  25.565  24.939  0.00  0.00    -0.054 A 
ATOM      6  C9  Y8L d          26.681  24.920  24.375  0.00  0.00     0.049 A 
ATOM      7  H11 Y8L d          25.365  21.785  24.333  0.00  0.00     0.087 H 
ATOM      8  H12 Y8L d          27.425  23.014  23.745  0.00  0.00     0.087 H 
ATOM      9  H13 Y8L d          23.543  25.433  25.656  0.00  0.00     0.087 H 
ATOM     10  H14 Y8L d          25.645  26.627  25.148  0.00  0.00     0.087 H 
ENDROOT
BRANCH   6  11
ATOM     11  N7  Y8L d          27.786  25.643  24.114  0.00  0.00    -0.188 N 
ATOM     12  H15 Y8L d          28.511  25.177  23.549  0.00  0.00     0.184 HD
BRANCH  11  13
ATOM     13  C4  Y8L d          28.056  26.903  24.504  0.00  0.00     0.727 A 
ATOM     14  N5  Y8L d          27.269  27.642  25.315  0.00  0.00    -0.061 NA
ATOM     15  C6  Y8L d          27.585  28.907  25.658  0.00  0.00     0.096 A 
ATOM     16  C1  Y8L d          28.812  29.420  25.234  0.00  0.00    -0.036 A 
ATOM     17  C2  Y8L d          29.629  28.631  24.443  0.00  0.00     0.023 A 
ATOM     18  H17 Y8L d          29.119  30.420  25.520  0.00  0.00     0.089 H 
ATOM     19  N3  Y8L d          29.241  27.409  24.114  0.00  0.00    -0.075 NA
ATOM     20  H16 Y8L d          30.582  29.012  24.095  0.00  0.00     0.115 H 
BRANCH  15  21
ATOM     21  C15 Y8L d          26.789  29.674  26.525  0.00  0.00     0.062 A 
ATOM     22  S23 Y8L d          25.572  29.089  27.591  0.00  0.00    -0.025 SA
ATOM     23  C24 Y8L d          25.089  30.637  28.079  0.00  0.00     0.291 A 
ATOM     24  O28 Y8L d          24.227  30.891  28.916  0.00  0.00    -0.259 OA
ATOM     25  N25 Y8L d          25.850  31.555  27.478  0.00  0.00    -0.316 N 
ATOM     26  C26 Y8L d          26.770  31.076  26.631  0.00  0.00     0.030 A 
BRANCH  25  27
ATOM     27  C29 Y8L d          25.675  33.012  27.738  0.00  0.00    -0.011 C 
ATOM     28  H18 Y8L d          25.289  33.159  28.758  0.00  0.00     0.057 H 
ATOM     29  H19 Y8L d          24.963  33.432  27.012  0.00  0.00     0.057 H 
ATOM     30  H20 Y8L d          26.645  33.521  27.638  0.00  0.00     0.057 H 
ENDBRANCH  25  27
BRANCH  26  31
ATOM     31  C27 Y8L d          27.717  32.010  25.873  0.00  0.00    -0.036 C 
ATOM     32  H21 Y8L d          28.605  32.211  26.490  0.00  0.00     0.035 H 
ATOM     33  H22 Y8L d          27.201  32.957  25.654  0.00  0.00     0.035 H 
ATOM     34  H23 Y8L d          28.026  31.534  24.930  0.00  0.00     0.035 H 
ENDBRANCH  26  31
ENDBRANCH  15  21
ENDBRANCH  11  13
ENDBRANCH   6  11
BRANCH   1  35
ATOM     35  N16 Y8L d          23.103  22.829  25.296  0.00  0.00    -0.378 N 
ATOM     36  C17 Y8L d          22.761  21.649  24.478  0.00  0.00     0.018 C 
ATOM     37  C18 Y8L d          21.292  21.192  24.555  0.00  0.00     0.096 C 
ATOM     38  H1  Y8L d          22.987  21.886  23.428  0.00  0.00     0.066 H 
ATOM     39  H2  Y8L d          23.393  20.812  24.809  0.00  0.00     0.066 H 
ATOM     40  N19 Y8L d          20.485  22.030  25.456  0.00  0.00    -0.072 N 
ATOM     41  H3  Y8L d          21.264  20.155  24.920  0.00  0.00     0.078 H 
ATOM     42  H4  Y8L d          20.855  21.238  23.546  0.00  0.00     0.078 H 
ATOM     43  C20 Y8L d          21.197  22.167  26.719  0.00  0.00     0.096 C 
ATOM     44  H5  Y8L d          19.590  21.593  25.616  0.00  0.00     0.277 HD
ATOM     45  H6  Y8L d          20.346  22.938  25.043  0.00  0.00     0.277 HD
ATOM     46  C21 Y8L d          22.339  23.162  26.511  0.00  0.00     0.018 C 
ATOM     47  H7  Y8L d          21.604  21.192  27.026  0.00  0.00     0.078 H 
ATOM     48  H8  Y8L d          20.513  22.540  27.495  0.00  0.00     0.078 H 
ATOM     49  H9  Y8L d          23.012  23.127  27.381  0.00  0.00     0.066 H 
ATOM     50  H10 Y8L d          21.922  24.175  26.410  0.00  0.00     0.066 H 
ENDBRANCH   1  35
TORSDOF 6
ENDMDL
MODEL 4
REMARK VINA RESULT:      -7.6      3.490      7.760
REMARK  6 active torsions:
REMARK  status: ('A' for Active; 'I' for Inactive)
REMARK    1  A    between atoms: N16_6  and  C12_7 
REMARK    2  A    between atoms: C9_12  and  N7_13 
REMARK    3  A    between atoms: N7_13  and  C4_14 
REMARK    4  A    between atoms: C6_19  and  C15_20 
REMARK    5  A    between atoms: N25_24  and  C29_25 
REMARK    6  A    between atoms: C26_26  and  C27_27 
ROOT
ATOM      1  C12 Y8L d          26.155  30.010  26.950  0.00  0.00     0.030 A 
ATOM      2  C13 Y8L d          25.778  28.665  26.978  0.00  0.00    -0.055 A 
ATOM      3  C14 Y8L d          24.729  28.226  27.799  0.00  0.00    -0.054 A 
ATOM      4  C11 Y8L d          25.448  30.921  27.729  0.00  0.00    -0.055 A 
ATOM      5  C10 Y8L d          24.386  30.468  28.521  0.00  0.00    -0.054 A 
ATOM      6  C9  Y8L d          24.024  29.120  28.591  0.00  0.00     0.049 A 
ATOM      7  H11 Y8L d          26.304  27.950  26.356  0.00  0.00     0.087 H 
ATOM      8  H12 Y8L d          24.466  27.175  27.815  0.00  0.00     0.087 H 
ATOM      9  H13 Y8L d          25.717  31.971  27.722  0.00  0.00     0.087 H 
ATOM     10  H14 Y8L d          23.823  31.190  29.102  0.00  0.00     0.087 H 
ENDROOT
BRANCH   6  11
ATOM     11  N7  Y8L d          22.988  28.771  29.377  0.00  0.00    -0.188 N 
ATOM     12  H15 Y8L d          22.581  29.523  29.953  0.00  0.00     0.184 HD
BRANCH  11  13
ATOM     13  C4  Y8L d          22.422  27.556  29.500  0.00  0.00     0.727 A 
ATOM     14  N5  Y8L d          22.595  26.535  28.634  0.00  0.00    -0.061 NA
ATOM     15  C6  Y8L d          21.987  25.343  28.803  0.00  0.00     0.096 A 
ATOM     16  C1  Y8L d          21.236  25.143  29.962  0.00  0.00    -0.036 A 
ATOM     17  C2  Y8L d          21.108  26.185  30.864  0.00  0.00     0.023 A 
ATOM     18  H17 Y8L d          20.762  24.187  30.153  0.00  0.00     0.089 H 
ATOM     19  N3  Y8L d          21.704  27.341  30.619  0.00  0.00    -0.075 NA
ATOM     20  H16 Y8L d          20.522  26.054  31.767  0.00  0.00     0.115 H 
BRANCH  15  21
ATOM     21  C15 Y8L d          22.185  24.265  27.924  0.00  0.00     0.062 A 
ATOM     22  S23 Y8L d          21.696  22.634  28.172  0.00  0.00    -0.025 SA
ATOM     23  C24 Y8L d          22.439  22.073  26.758  0.00  0.00     0.291 A 
ATOM     24  O28 Y8L d          22.405  20.920  26.336  0.00  0.00    -0.259 OA
ATOM     25  N25 Y8L d          23.004  23.096  26.111  0.00  0.00    -0.316 N 
ATOM     26  C26 Y8L d          22.893  24.288  26.711  0.00  0.00     0.030 A 
BRANCH  25  27
ATOM     27  C29 Y8L d          23.708  22.910  24.810  0.00  0.00    -0.011 C 
ATOM     28  H18 Y8L d          24.174  21.914  24.785  0.00  0.00     0.057 H 
ATOM     29  H19 Y8L d          24.485  23.681  24.701  0.00  0.00     0.057 H 
ATOM     30  H20 Y8L d          22.986  22.997  23.986  0.00  0.00     0.057 H 
ENDBRANCH  25  27
BRANCH  26  31
ATOM     31  C27 Y8L d          23.487  25.553  26.084  0.00  0.00    -0.036 C 
ATOM     32  H21 Y8L d          24.578  25.444  26.003  0.00  0.00     0.035 H 
ATOM     33  H22 Y8L d          23.252  26.421  26.717  0.00  0.00     0.035 H 
ATOM     34  H23 Y8L d          23.057  25.702  25.082  0.00  0.00     0.035 H 
ENDBRANCH  26  31
ENDBRANCH  15  21
ENDBRANCH  11  13
ENDBRANCH   6  11
BRANCH   1  35
ATOM     35  N16 Y8L d          27.244  30.442  26.161  0.00  0.00    -0.378 N 
ATOM     36  C17 Y8L d          27.575  29.686  24.938  0.00  0.00     0.018 C 
ATOM     37  C18 Y8L d          28.978  29.948  24.357  0.00  0.00     0.096 C 
ATOM     38  H1  Y8L d          27.499  28.614  25.171  0.00  0.00     0.066 H 
ATOM     39  H2  Y8L d          26.835  29.947  24.167  0.00  0.00     0.066 H 
ATOM     40  N19 Y8L d          29.741  30.931  25.141  0.00  0.00    -0.072 N 
ATOM     41  H3  Y8L d          28.869  30.326  23.329  0.00  0.00     0.078 H 
ATOM     42  H4  Y8L d          29.536  29.000  24.342  0.00  0.00     0.078 H 
ATOM     43  C20 Y8L d          28.897  32.096  25.368  0.00  0.00     0.096 C 
ATOM     44  H5  Y8L d          30.568  31.205  24.632  0.00  0.00     0.277 HD
ATOM     45  H6  Y8L d          30.010  30.527  26.024  0.00  0.00     0.277 HD
ATOM     46  C21 Y8L d          27.881  31.738  26.454  0.00  0.00     0.018 C 
ATOM     47  H7  Y8L d          28.371  32.362  24.439  0.00  0.00     0.078 H 
ATOM     48  H8  Y8L d          29.513  32.946  25.697  0.00  0.00     0.078 H 
ATOM     49  H9  Y8L d          27.108  32.520  26.497  0.00  0.00     0.066 H 
ATOM     50  H10 Y8L d          28.396  31.677  27.424  0.00  0.00     0.066 H 
ENDBRANCH   1  35
TORSDOF 6
ENDMDL
MODEL 5
REMARK VINA RESULT:      -7.6      2.334      4.105
REMARK  6 active torsions:
REMARK  status: ('A' for Active; 'I' for Inactive)
REMARK    1  A    between atoms: N16_6  and  C12_7 
REMARK    2  A    between atoms: C9_12  and  N7_13 
REMARK    3  A    between atoms: N7_13  and  C4_14 
REMARK    4  A    between atoms: C6_19  and  C15_20 
REMARK    5  A    between atoms: N25_24  and  C29_25 
REMARK    6  A    between atoms: C26_26  and  C27_27 
ROOT
ATOM      1  C12 Y8L d          21.914  24.809  27.965  0.00  0.00     0.030 A 
ATOM      2  C13 Y8L d          22.327  26.128  27.763  0.00  0.00    -0.055 A 
ATOM      3  C14 Y8L d          23.207  26.457  26.721  0.00  0.00    -0.054 A 
ATOM      4  C11 Y8L d          22.364  23.824  27.090  0.00  0.00    -0.055 A 
ATOM      5  C10 Y8L d          23.219  24.177  26.040  0.00  0.00    -0.054 A 
ATOM      6  C9  Y8L d          23.675  25.485  25.850  0.00  0.00     0.049 A 
ATOM      7  H11 Y8L d          21.963  26.908  28.421  0.00  0.00     0.087 H 
ATOM      8  H12 Y8L d          23.525  27.486  26.596  0.00  0.00     0.087 H 
ATOM      9  H13 Y8L d          22.054  22.793  27.221  0.00  0.00     0.087 H 
ATOM     10  H14 Y8L d          23.541  23.408  25.347  0.00  0.00     0.087 H 
ENDROOT
BRANCH   6  11
ATOM     11  N7  Y8L d          24.495  25.737  24.813  0.00  0.00    -0.188 N 
ATOM     12  H15 Y8L d          24.126  25.514  23.877  0.00  0.00     0.184 HD
BRANCH  11  13
ATOM     13  C4  Y8L d          25.740  26.248  24.854  0.00  0.00     0.727 A 
ATOM     14  N5  Y8L d          26.030  27.557  25.016  0.00  0.00    -0.061 NA
ATOM     15  C6  Y8L d          27.300  28.009  25.033  0.00  0.00     0.096 A 
ATOM     16  C1  Y8L d          28.336  27.076  24.978  0.00  0.00    -0.036 A 
ATOM     17  C2  Y8L d          28.021  25.734  24.861  0.00  0.00     0.023 A 
ATOM     18  H17 Y8L d          29.370  27.397  25.026  0.00  0.00     0.089 H 
ATOM     19  N3  Y8L d          26.752  25.360  24.815  0.00  0.00    -0.075 NA
ATOM     20  H16 Y8L d          28.809  24.992  24.808  0.00  0.00     0.115 H 
BRANCH  15  21
ATOM     21  C15 Y8L d          27.614  29.365  25.230  0.00  0.00     0.062 A 
ATOM     22  S23 Y8L d          28.833  30.267  24.416  0.00  0.00    -0.025 SA
ATOM     23  C24 Y8L d          28.590  31.659  25.349  0.00  0.00     0.291 A 
ATOM     24  O28 Y8L d          29.173  32.731  25.207  0.00  0.00    -0.259 OA
ATOM     25  N25 Y8L d          27.598  31.451  26.218  0.00  0.00    -0.316 N 
ATOM     26  C26 Y8L d          27.054  30.227  26.188  0.00  0.00     0.030 A 
BRANCH  25  27
ATOM     27  C29 Y8L d          27.138  32.515  27.156  0.00  0.00    -0.011 C 
ATOM     28  H18 Y8L d          27.610  33.471  26.885  0.00  0.00     0.057 H 
ATOM     29  H19 Y8L d          27.421  32.244  28.184  0.00  0.00     0.057 H 
ATOM     30  H20 Y8L d          26.045  32.614  27.089  0.00  0.00     0.057 H 
ENDBRANCH  25  27
BRANCH  26  31
ATOM     31  C27 Y8L d          25.904  29.844  27.124  0.00  0.00    -0.036 C 
ATOM     32  H21 Y8L d          25.066  30.541  26.979  0.00  0.00     0.035 H 
ATOM     33  H22 Y8L d          26.248  29.897  28.168  0.00  0.00     0.035 H 
ATOM     34  H23 Y8L d          25.573  28.820  26.898  0.00  0.00     0.035 H 
ENDBRANCH  26  31
ENDBRANCH  15  21
ENDBRANCH  11  13
ENDBRANCH   6  11
BRANCH   1  35
ATOM     35  N16 Y8L d          21.068  24.470  29.044  0.00  0.00    -0.378 N 
ATOM     36  C17 Y8L d          21.501  23.409  29.975  0.00  0.00     0.018 C 
ATOM     37  C18 Y8L d          20.392  22.815  30.863  0.00  0.00     0.096 C 
ATOM     38  H1  Y8L d          21.933  22.591  29.379  0.00  0.00     0.066 H 
ATOM     39  H2  Y8L d          22.275  23.829  30.634  0.00  0.00     0.066 H 
ATOM     40  N19 Y8L d          19.080  23.435  30.622  0.00  0.00    -0.072 N 
ATOM     41  H3  Y8L d          20.665  22.969  31.918  0.00  0.00     0.078 H 
ATOM     42  H4  Y8L d          20.315  21.737  30.658  0.00  0.00     0.078 H 
ATOM     43  C20 Y8L d          19.241  24.882  30.652  0.00  0.00     0.096 C 
ATOM     44  H5  Y8L d          18.431  23.150  31.340  0.00  0.00     0.277 HD
ATOM     45  H6  Y8L d          18.729  23.149  29.721  0.00  0.00     0.277 HD
ATOM     46  C21 Y8L d          19.895  25.311  29.338  0.00  0.00     0.018 C 
ATOM     47  H7  Y8L d          19.882  25.168  31.498  0.00  0.00     0.078 H 
ATOM     48  H8  Y8L d          18.258  25.365  30.756  0.00  0.00     0.078 H 
ATOM     49  H9  Y8L d          20.214  26.361  29.420  0.00  0.00     0.066 H 
ATOM     50  H10 Y8L d          19.165  25.212  28.522  0.00  0.00     0.066 H 
ENDBRANCH   1  35
TORSDOF 6
ENDMDL
MODEL 6
REMARK VINA RESULT:      -7.4      2.525      4.877
REMARK  6 active torsions:
REMARK  status: ('A' for Active; 'I' for Inactive)
REMARK    1  A    between atoms: N16_6  and  C12_7 
REMARK    2  A    between atoms: C9_12  and  N7_13 
REMARK    3  A    between atoms: N7_13  and  C4_14 
REMARK    4  A    between atoms: C6_19  and  C15_20 
REMARK    5  A    between atoms: N25_24  and  C29_25 
REMARK    6  A    between atoms: C26_26  and  C27_27 
ROOT
ATOM      1  C12 Y8L d          23.720  23.867  25.610  0.00  0.00     0.030 A 
ATOM      2  C13 Y8L d          24.676  23.056  24.995  0.00  0.00    -0.055 A 
ATOM      3  C14 Y8L d          25.857  23.602  24.471  0.00  0.00    -0.054 A 
ATOM      4  C11 Y8L d          23.973  25.231  25.727  0.00  0.00    -0.055 A 
ATOM      5  C10 Y8L d          25.170  25.753  25.222  0.00  0.00    -0.054 A 
ATOM      6  C9  Y8L d          26.117  24.961  24.567  0.00  0.00     0.049 A 
ATOM      7  H11 Y8L d          24.503  21.988  24.922  0.00  0.00     0.087 H 
ATOM      8  H12 Y8L d          26.576  22.953  23.985  0.00  0.00     0.087 H 
ATOM      9  H13 Y8L d          23.249  25.883  26.204  0.00  0.00     0.087 H 
ATOM     10  H14 Y8L d          25.370  26.812  25.343  0.00  0.00     0.087 H 
ENDROOT
BRANCH   6  11
ATOM     11  N7  Y8L d          27.242  25.544  24.114  0.00  0.00    -0.188 N 
ATOM     12  H15 Y8L d          27.804  24.993  23.449  0.00  0.00     0.184 HD
BRANCH  11  13
ATOM     13  C4  Y8L d          27.720  26.763  24.427  0.00  0.00     0.727 A 
ATOM     14  N5  Y8L d          27.029  27.712  25.095  0.00  0.00    -0.061 NA
ATOM     15  C6  Y8L d          27.558  28.923  25.366  0.00  0.00     0.096 A 
ATOM     16  C1  Y8L d          28.892  29.153  25.025  0.00  0.00    -0.036 A 
ATOM     17  C2  Y8L d          29.600  28.152  24.384  0.00  0.00     0.023 A 
ATOM     18  H17 Y8L d          29.364  30.100  25.259  0.00  0.00     0.089 H 
ATOM     19  N3  Y8L d          29.009  26.998  24.116  0.00  0.00    -0.075 NA
ATOM     20  H16 Y8L d          30.634  28.313  24.101  0.00  0.00     0.115 H 
BRANCH  15  21
ATOM     21  C15 Y8L d          26.860  29.906  26.087  0.00  0.00     0.062 A 
ATOM     22  S23 Y8L d          27.082  31.609  25.983  0.00  0.00    -0.025 SA
ATOM     23  C24 Y8L d          25.988  31.946  27.231  0.00  0.00     0.291 A 
ATOM     24  O28 Y8L d          25.665  33.065  27.622  0.00  0.00    -0.259 OA
ATOM     25  N25 Y8L d          25.454  30.807  27.680  0.00  0.00    -0.316 N 
ATOM     26  C26 Y8L d          25.903  29.690  27.093  0.00  0.00     0.030 A 
BRANCH  25  27
ATOM     27  C29 Y8L d          24.430  30.794  28.763  0.00  0.00    -0.011 C 
ATOM     28  H18 Y8L d          24.546  31.691  29.389  0.00  0.00     0.057 H 
ATOM     29  H19 Y8L d          24.563  29.894  29.382  0.00  0.00     0.057 H 
ATOM     30  H20 Y8L d          23.425  30.786  28.317  0.00  0.00     0.057 H 
ENDBRANCH  25  27
BRANCH  26  31
ATOM     31  C27 Y8L d          25.377  28.311  27.501  0.00  0.00    -0.036 C 
ATOM     32  H21 Y8L d          25.439  28.203  28.593  0.00  0.00     0.035 H 
ATOM     33  H22 Y8L d          25.986  27.530  27.021  0.00  0.00     0.035 H 
ATOM     34  H23 Y8L d          24.330  28.208  27.181  0.00  0.00     0.035 H 
ENDBRANCH  26  31
ENDBRANCH  15  21
ENDBRANCH  11  13
ENDBRANCH   6  11
BRANCH   1  35
ATOM     35  N16 Y8L d          22.509  23.324  26.093  0.00  0.00    -0.378 N 
ATOM     36  C17 Y8L d          22.084  21.997  25.605  0.00  0.00     0.018 C 
ATOM     37  C18 Y8L d          20.603  21.647  25.841  0.00  0.00     0.096 C 
ATOM     38  H1  Y8L d          22.274  21.958  24.522  0.00  0.00     0.066 H 
ATOM     39  H2  Y8L d          22.697  21.237  26.112  0.00  0.00     0.066 H 
ATOM     40  N19 Y8L d          19.871  22.719  26.532  0.00  0.00    -0.072 N 
ATOM     41  H3  Y8L d          20.550  20.734  26.452  0.00  0.00     0.078 H 
ATOM     42  H4  Y8L d          20.125  21.465  24.867  0.00  0.00     0.078 H 
ATOM     43  C20 Y8L d          20.643  23.128  27.697  0.00  0.00     0.096 C 
ATOM     44  H5  Y8L d          18.967  22.381  26.825  0.00  0.00     0.277 HD
ATOM     45  H6  Y8L d          19.750  23.504  25.911  0.00  0.00     0.277 HD
ATOM     46  C21 Y8L d          21.814  23.984  27.212  0.00  0.00     0.018 C 
ATOM     47  H7  Y8L d          21.023  22.240  28.223  0.00  0.00     0.078 H 
ATOM     48  H8  Y8L d          20.009  23.714  28.379  0.00  0.00     0.078 H 
ATOM     49  H9  Y8L d          22.522  24.130  28.041  0.00  0.00     0.066 H 
ATOM     50  H10 Y8L d          21.433  24.960  26.877  0.00  0.00     0.066 H 
ENDBRANCH   1  35
TORSDOF 6
ENDMDL
MODEL 7
REMARK VINA RESULT:      -6.4      3.081      7.804
REMARK  6 active torsions:
REMARK  status: ('A' for Active; 'I' for Inactive)
REMARK    1  A    between atoms: N16_6  and  C12_7 
REMARK    2  A    between atoms: C9_12  and  N7_13 
REMARK    3  A    between atoms: N7_13  and  C4_14 
REMARK    4  A    between atoms: C6_19  and  C15_20 
REMARK    5  A    between atoms: N25_24  and  C29_25 
REMARK    6  A    between atoms: C26_26  and  C27_27 
ROOT
ATOM      1  C12 Y8L d          26.077  29.802  27.470  0.00  0.00     0.030 A 
ATOM      2  C13 Y8L d          25.753  28.495  27.096  0.00  0.00    -0.055 A 
ATOM      3  C14 Y8L d          24.661  27.830  27.672  0.00  0.00    -0.054 A 
ATOM      4  C11 Y8L d          25.275  30.450  28.404  0.00  0.00    -0.055 A 
ATOM      5  C10 Y8L d          24.174  29.779  28.948  0.00  0.00    -0.054 A 
ATOM      6  C9  Y8L d          23.861  28.458  28.615  0.00  0.00     0.049 A 
ATOM      7  H11 Y8L d          26.354  27.989  26.350  0.00  0.00     0.087 H 
ATOM      8  H12 Y8L d          24.440  26.811  27.377  0.00  0.00     0.087 H 
ATOM      9  H13 Y8L d          25.502  31.466  28.708  0.00  0.00     0.087 H 
ATOM     10  H14 Y8L d          23.539  30.303  29.653  0.00  0.00     0.087 H 
ENDROOT
BRANCH   6  11
ATOM     11  N7  Y8L d          22.782  27.888  29.184  0.00  0.00    -0.188 N 
ATOM     12  H15 Y8L d          22.432  28.336  30.043  0.00  0.00     0.184 HD
BRANCH  11  13
ATOM     13  C4  Y8L d          22.107  26.803  28.761  0.00  0.00     0.727 A 
ATOM     14  N5  Y8L d          22.589  25.884  27.897  0.00  0.00    -0.061 NA
ATOM     15  C6  Y8L d          21.857  24.824  27.499  0.00  0.00     0.096 A 
ATOM     16  C1  Y8L d          20.602  24.632  28.078  0.00  0.00    -0.036 A 
ATOM     17  C2  Y8L d          20.142  25.558  28.998  0.00  0.00     0.023 A 
ATOM     18  H17 Y8L d          19.998  23.773  27.811  0.00  0.00     0.089 H 
ATOM     19  N3  Y8L d          20.899  26.596  29.319  0.00  0.00    -0.075 NA
ATOM     20  H16 Y8L d          19.166  25.434  29.454  0.00  0.00     0.115 H 
BRANCH  15  21
ATOM     21  C15 Y8L d          22.360  23.847  26.624  0.00  0.00     0.062 A 
ATOM     22  S23 Y8L d          23.851  23.905  25.766  0.00  0.00    -0.025 SA
ATOM     23  C24 Y8L d          23.553  22.470  24.918  0.00  0.00     0.291 A 
ATOM     24  O28 Y8L d          24.322  21.930  24.126  0.00  0.00    -0.259 OA
ATOM     25  N25 Y8L d          22.383  21.955  25.302  0.00  0.00    -0.316 N 
ATOM     26  C26 Y8L d          21.710  22.671  26.213  0.00  0.00     0.030 A 
BRANCH  25  27
ATOM     27  C29 Y8L d          21.869  20.671  24.746  0.00  0.00    -0.011 C 
ATOM     28  H18 Y8L d          20.790  20.761  24.552  0.00  0.00     0.057 H 
ATOM     29  H19 Y8L d          22.045  19.861  25.470  0.00  0.00     0.057 H 
ATOM     30  H20 Y8L d          22.392  20.443  23.806  0.00  0.00     0.057 H 
ENDBRANCH  25  27
BRANCH  26  31
ATOM     31  C27 Y8L d          20.356  22.202  26.752  0.00  0.00    -0.036 C 
ATOM     32  H21 Y8L d          20.155  21.180  26.400  0.00  0.00     0.035 H 
ATOM     33  H22 Y8L d          19.564  22.875  26.391  0.00  0.00     0.035 H 
ATOM     34  H23 Y8L d          20.374  22.214  27.852  0.00  0.00     0.035 H 
ENDBRANCH  26  31
ENDBRANCH  15  21
ENDBRANCH  11  13
ENDBRANCH   6  11
BRANCH   1  35
ATOM     35  N16 Y8L d          27.206  30.453  26.926  0.00  0.00    -0.378 N 
ATOM     36  C17 Y8L d          27.126  31.903  26.661  0.00  0.00     0.018 C 
ATOM     37  C18 Y8L d          28.207  32.465  25.718  0.00  0.00     0.096 C 
ATOM     38  H1  Y8L d          26.143  32.113  26.214  0.00  0.00     0.066 H 
ATOM     39  H2  Y8L d          27.210  32.430  27.624  0.00  0.00     0.066 H 
ATOM     40  N19 Y8L d          29.145  31.432  25.252  0.00  0.00    -0.072 N 
ATOM     41  H3  Y8L d          28.775  33.239  26.254  0.00  0.00     0.078 H 
ATOM     42  H4  Y8L d          27.712  32.912  24.843  0.00  0.00     0.078 H 
ATOM     43  C20 Y8L d          29.610  30.677  26.408  0.00  0.00     0.096 C 
ATOM     44  H5  Y8L d          29.930  31.867  24.792  0.00  0.00     0.277 HD
ATOM     45  H6  Y8L d          28.678  30.814  24.607  0.00  0.00     0.277 HD
ATOM     46  C21 Y8L d          28.487  29.731  26.836  0.00  0.00     0.018 C 
ATOM     47  H7  Y8L d          29.851  31.365  27.230  0.00  0.00     0.078 H 
ATOM     48  H8  Y8L d          30.505  30.096  26.139  0.00  0.00     0.078 H 
ATOM     49  H9  Y8L d          28.731  29.303  27.820  0.00  0.00     0.066 H 
ATOM     50  H10 Y8L d          28.395  28.921  26.097  0.00  0.00     0.066 H 
ENDBRANCH   1  35
TORSDOF 6
ENDMDL
