MODEL 1
REMARK VINA RESULT:     -10.3      0.000      0.000
REMARK  2 active torsions:
REMARK  status: ('A' for Active; 'I' for Inactive)
REMARK    1  A    between atoms: CG_8  and  CA_2 
REMARK    2  A    between atoms: NM_14  and  CG_8 
ROOT
ATOM      1  CG  MOL d          -7.889 -27.518 -13.930  0.00  0.00     0.154 C 
ATOM      2  CH  MOL d          -6.716 -26.687 -14.640  0.00  0.00    -0.029 C 
ATOM      3  CI  MOL d          -7.008 -25.208 -14.438  0.00  0.00    -0.062 C 
ATOM      4  CJ  MOL d          -6.839 -24.818 -12.954  0.00  0.00    -0.065 C 
ATOM      5  CK  MOL d          -7.723 -25.712 -12.062  0.00  0.00    -0.062 C 
ATOM      6  CL  MOL d          -7.559 -27.198 -12.417  0.00  0.00    -0.029 C 
ATOM      7  H8  MOL d          -6.690 -26.920 -15.715  0.00  0.00     0.037 H 
ATOM      8  H9  MOL d          -5.748 -26.943 -14.186  0.00  0.00     0.037 H 
ATOM      9  H10 MOL d          -8.041 -24.997 -14.752  0.00  0.00     0.033 H 
ATOM     10  H11 MOL d          -6.311 -24.615 -15.050  0.00  0.00     0.033 H 
ATOM     11  H12 MOL d          -7.133 -23.767 -12.819  0.00  0.00     0.033 H 
ATOM     12  H13 MOL d          -5.786 -24.944 -12.664  0.00  0.00     0.033 H 
ATOM     13  H14 MOL d          -8.776 -25.426 -12.201  0.00  0.00     0.033 H 
ATOM     14  H15 MOL d          -7.438 -25.562 -11.011  0.00  0.00     0.033 H 
ATOM     15  H16 MOL d          -6.518 -27.492 -12.217  0.00  0.00     0.037 H 
ATOM     16  H17 MOL d          -8.235 -27.785 -11.779  0.00  0.00     0.037 H 
ENDROOT
BRANCH   1  17
ATOM     17  NM  MOL d          -7.586 -29.050 -14.084  0.00  0.00    -0.058 N 
ATOM     18  CN  MOL d          -8.825 -29.930 -14.426  0.00  0.00     0.085 C 
ATOM     19  CO  MOL d          -8.468 -31.421 -14.551  0.00  0.00    -0.042 C 
ATOM     20  H19 MOL d          -9.573 -29.810 -13.628  0.00  0.00     0.076 H 
ATOM     21  H20 MOL d          -9.249 -29.586 -15.382  0.00  0.00     0.076 H 
ATOM     22  CP  MOL d          -7.335 -31.685 -15.542  0.00  0.00    -0.062 C 
ATOM     23  H21 MOL d          -8.163 -31.792 -13.562  0.00  0.00     0.035 H 
ATOM     24  H22 MOL d          -9.362 -31.967 -14.887  0.00  0.00     0.035 H 
ATOM     25  CQ  MOL d          -6.113 -30.838 -15.129  0.00  0.00    -0.042 C 
ATOM     26  H1  MOL d          -7.068 -32.751 -15.526  0.00  0.00     0.033 H 
ATOM     27  H2  MOL d          -7.655 -31.402 -16.556  0.00  0.00     0.033 H 
ATOM     28  CR  MOL d          -6.425 -29.361 -15.042  0.00  0.00     0.085 C 
ATOM     29  H23 MOL d          -5.316 -30.986 -15.873  0.00  0.00     0.035 H 
ATOM     30  H24 MOL d          -5.765 -31.181 -14.144  0.00  0.00     0.035 H 
ATOM     31  H25 MOL d          -5.527 -28.833 -14.689  0.00  0.00     0.076 H 
ATOM     32  H26 MOL d          -6.691 -28.999 -16.046  0.00  0.00     0.076 H 
ATOM     33  H18 MOL d          -7.281 -29.350 -13.172  0.00  0.00     0.281 HD
ENDBRANCH   1  17
BRANCH   1  34
ATOM     34  CA  MOL d          -9.361 -27.124 -14.428  0.00  0.00    -0.022 A 
ATOM     35  CF  MOL d          -9.600 -26.712 -15.803  0.00  0.00    -0.074 A 
ATOM     36  CE  MOL d         -10.899 -26.379 -16.282  0.00  0.00    -0.082 A 
ATOM     37  H7  MOL d          -8.761 -26.658 -16.487  0.00  0.00     0.084 H 
ATOM     38  CD  MOL d         -12.005 -26.442 -15.455  0.00  0.00    -0.083 A 
ATOM     39  H6  MOL d         -11.023 -26.070 -17.313  0.00  0.00     0.083 H 
ATOM     40  CC  MOL d         -11.797 -26.843 -14.074  0.00  0.00    -0.082 A 
ATOM     41  H5  MOL d         -12.995 -26.199 -15.824  0.00  0.00     0.083 H 
ATOM     42  CB  MOL d         -10.491 -27.181 -13.571  0.00  0.00    -0.074 A 
ATOM     43  H4  MOL d         -12.649 -26.891 -13.405  0.00  0.00     0.083 H 
ATOM     44  H3  MOL d         -10.371 -27.478 -12.535  0.00  0.00     0.084 H 
ENDBRANCH   1  34
TORSDOF 2
ENDMDL
MODEL 2
REMARK VINA RESULT:      -9.9      0.864      3.915
REMARK  2 active torsions:
REMARK  status: ('A' for Active; 'I' for Inactive)
REMARK    1  A    between atoms: CG_8  and  CA_2 
REMARK    2  A    between atoms: NM_14  and  CG_8 
ROOT
ATOM      1  CG  MOL d          -9.376 -28.138 -14.852  0.00  0.00     0.154 C 
ATOM      2  CH  MOL d         -10.718 -28.486 -14.046  0.00  0.00    -0.029 C 
ATOM      3  CI  MOL d         -11.458 -27.181 -13.794  0.00  0.00    -0.062 C 
ATOM      4  CJ  MOL d         -12.005 -26.602 -15.117  0.00  0.00    -0.065 C 
ATOM      5  CK  MOL d         -10.864 -26.435 -16.139  0.00  0.00    -0.062 C 
ATOM      6  CL  MOL d         -10.005 -27.704 -16.236  0.00  0.00    -0.029 C 
ATOM      7  H8  MOL d         -10.467 -28.965 -13.088  0.00  0.00     0.037 H 
ATOM      8  H9  MOL d         -11.348 -29.164 -14.642  0.00  0.00     0.037 H 
ATOM      9  H10 MOL d         -10.767 -26.456 -13.340  0.00  0.00     0.033 H 
ATOM     10  H11 MOL d         -12.297 -27.368 -13.107  0.00  0.00     0.033 H 
ATOM     11  H12 MOL d         -12.464 -25.621 -14.921  0.00  0.00     0.033 H 
ATOM     12  H13 MOL d         -12.762 -27.285 -15.526  0.00  0.00     0.033 H 
ATOM     13  H14 MOL d         -10.226 -25.594 -15.829  0.00  0.00     0.033 H 
ATOM     14  H15 MOL d         -11.298 -26.221 -17.127  0.00  0.00     0.033 H 
ATOM     15  H16 MOL d         -10.636 -28.526 -16.606  0.00  0.00     0.037 H 
ATOM     16  H17 MOL d          -9.188 -27.519 -16.948  0.00  0.00     0.037 H 
ENDROOT
BRANCH   1  17
ATOM     17  NM  MOL d          -8.617 -29.476 -15.165  0.00  0.00    -0.058 N 
ATOM     18  CN  MOL d          -7.067 -29.393 -15.035  0.00  0.00     0.085 C 
ATOM     19  CO  MOL d          -6.379 -30.728 -15.368  0.00  0.00    -0.042 C 
ATOM     20  H19 MOL d          -6.696 -28.621 -15.726  0.00  0.00     0.076 H 
ATOM     21  H20 MOL d          -6.814 -29.112 -14.002  0.00  0.00     0.076 H 
ATOM     22  CP  MOL d          -6.922 -31.901 -14.553  0.00  0.00    -0.062 C 
ATOM     23  H21 MOL d          -6.529 -30.943 -16.436  0.00  0.00     0.035 H 
ATOM     24  H22 MOL d          -5.303 -30.627 -15.163  0.00  0.00     0.035 H 
ATOM     25  CQ  MOL d          -8.449 -31.979 -14.760  0.00  0.00    -0.042 C 
ATOM     26  H1  MOL d          -6.454 -32.837 -14.892  0.00  0.00     0.033 H 
ATOM     27  H2  MOL d          -6.700 -31.747 -13.486  0.00  0.00     0.033 H 
ATOM     28  CR  MOL d          -9.157 -30.693 -14.397  0.00  0.00     0.085 C 
ATOM     29  H23 MOL d          -8.848 -32.789 -14.131  0.00  0.00     0.035 H 
ATOM     30  H24 MOL d          -8.649 -32.203 -15.818  0.00  0.00     0.035 H 
ATOM     31  H25 MOL d         -10.227 -30.806 -14.624  0.00  0.00     0.076 H 
ATOM     32  H26 MOL d          -9.028 -30.513 -13.320  0.00  0.00     0.076 H 
ATOM     33  H18 MOL d          -8.800 -29.659 -16.139  0.00  0.00     0.281 HD
ENDBRANCH   1  17
BRANCH   1  34
ATOM     34  CA  MOL d          -8.445 -27.052 -14.129  0.00  0.00    -0.022 A 
ATOM     35  CF  MOL d          -8.121 -27.167 -12.715  0.00  0.00    -0.074 A 
ATOM     36  CE  MOL d          -7.279 -26.231 -12.050  0.00  0.00    -0.082 A 
ATOM     37  H7  MOL d          -8.535 -27.993 -12.148  0.00  0.00     0.084 H 
ATOM     38  CD  MOL d          -6.716 -25.165 -12.728  0.00  0.00    -0.083 A 
ATOM     39  H6  MOL d          -7.074 -26.357 -10.993  0.00  0.00     0.083 H 
ATOM     40  CC  MOL d          -7.027 -25.021 -14.140  0.00  0.00    -0.082 A 
ATOM     41  H5  MOL d          -6.066 -24.461 -12.223  0.00  0.00     0.083 H 
ATOM     42  CB  MOL d          -7.879 -25.954 -14.828  0.00  0.00    -0.074 A 
ATOM     43  H4  MOL d          -6.605 -24.187 -14.690  0.00  0.00     0.083 H 
ATOM     44  H3  MOL d          -8.090 -25.818 -15.883  0.00  0.00     0.084 H 
ENDBRANCH   1  34
TORSDOF 2
ENDMDL
MODEL 3
REMARK VINA RESULT:      -9.4      1.065      3.823
REMARK  2 active torsions:
REMARK  status: ('A' for Active; 'I' for Inactive)
REMARK    1  A    between atoms: CG_8  and  CA_2 
REMARK    2  A    between atoms: NM_14  and  CG_8 
ROOT
ATOM      1  CG  MOL d          -9.730 -28.150 -14.384  0.00  0.00     0.154 C 
ATOM      2  CH  MOL d         -11.144 -27.942 -13.656  0.00  0.00    -0.029 C 
ATOM      3  CI  MOL d         -11.627 -26.536 -13.977  0.00  0.00    -0.062 C 
ATOM      4  CJ  MOL d         -12.002 -26.417 -15.470  0.00  0.00    -0.065 C 
ATOM      5  CK  MOL d         -10.812 -26.838 -16.355  0.00  0.00    -0.062 C 
ATOM      6  CL  MOL d         -10.211 -28.173 -15.890  0.00  0.00    -0.029 C 
ATOM      7  H8  MOL d         -11.026 -28.059 -12.569  0.00  0.00     0.037 H 
ATOM      8  H9  MOL d         -11.869 -28.681 -14.028  0.00  0.00     0.037 H 
ATOM      9  H10 MOL d         -10.827 -25.817 -13.746  0.00  0.00     0.033 H 
ATOM     10  H11 MOL d         -12.512 -26.309 -13.363  0.00  0.00     0.033 H 
ATOM     11  H12 MOL d         -12.270 -25.373 -15.695  0.00  0.00     0.033 H 
ATOM     12  H13 MOL d         -12.861 -27.070 -15.681  0.00  0.00     0.033 H 
ATOM     13  H14 MOL d         -10.036 -26.060 -16.305  0.00  0.00     0.033 H 
ATOM     14  H15 MOL d         -11.159 -26.944 -17.393  0.00  0.00     0.033 H 
ATOM     15  H16 MOL d         -10.974 -28.958 -16.002  0.00  0.00     0.037 H 
ATOM     16  H17 MOL d          -9.347 -28.408 -16.529  0.00  0.00     0.037 H 
ENDROOT
BRANCH   1  17
ATOM     17  NM  MOL d          -9.232 -29.612 -14.107  0.00  0.00    -0.058 N 
ATOM     18  CN  MOL d         -10.295 -30.723 -14.356  0.00  0.00     0.085 C 
ATOM     19  CO  MOL d          -9.753 -32.131 -14.055  0.00  0.00    -0.042 C 
ATOM     20  H19 MOL d         -11.163 -30.532 -13.708  0.00  0.00     0.076 H 
ATOM     21  H20 MOL d         -10.607 -30.683 -15.411  0.00  0.00     0.076 H 
ATOM     22  CP  MOL d          -8.460 -32.449 -14.806  0.00  0.00    -0.062 C 
ATOM     23  H21 MOL d          -9.559 -32.208 -12.975  0.00  0.00     0.035 H 
ATOM     24  H22 MOL d         -10.516 -32.869 -14.343  0.00  0.00     0.035 H 
ATOM     25  CQ  MOL d          -7.422 -31.356 -14.482  0.00  0.00    -0.042 C 
ATOM     26  H1  MOL d          -8.078 -33.429 -14.488  0.00  0.00     0.033 H 
ATOM     27  H2  MOL d          -8.655 -32.466 -15.889  0.00  0.00     0.033 H 
ATOM     28  CR  MOL d          -7.911 -29.964 -14.812  0.00  0.00     0.085 C 
ATOM     29  H23 MOL d          -6.509 -31.554 -15.065  0.00  0.00     0.035 H 
ATOM     30  H24 MOL d          -7.188 -31.400 -13.408  0.00  0.00     0.035 H 
ATOM     31  H25 MOL d          -7.144 -29.239 -14.501  0.00  0.00     0.076 H 
ATOM     32  H26 MOL d          -8.064 -29.893 -15.898  0.00  0.00     0.076 H 
ATOM     33  H18 MOL d          -9.034 -29.639 -13.119  0.00  0.00     0.281 HD
ENDBRANCH   1  17
BRANCH   1  34
ATOM     34  CA  MOL d          -8.635 -27.041 -14.010  0.00  0.00    -0.022 A 
ATOM     35  CF  MOL d          -8.207 -26.846 -12.633  0.00  0.00    -0.074 A 
ATOM     36  CE  MOL d          -7.220 -25.885 -12.273  0.00  0.00    -0.082 A 
ATOM     37  H7  MOL d          -8.654 -27.453 -11.855  0.00  0.00     0.084 H 
ATOM     38  CD  MOL d          -6.610 -25.092 -13.227  0.00  0.00    -0.083 A 
ATOM     39  H6  MOL d          -6.942 -25.773 -11.232  0.00  0.00     0.083 H 
ATOM     40  CC  MOL d          -7.022 -25.259 -14.611  0.00  0.00    -0.082 A 
ATOM     41  H5  MOL d          -5.851 -24.370 -12.952  0.00  0.00     0.083 H 
ATOM     42  CB  MOL d          -8.020 -26.222 -14.994  0.00  0.00    -0.074 A 
ATOM     43  H4  MOL d          -6.564 -24.641 -15.375  0.00  0.00     0.083 H 
ATOM     44  H3  MOL d          -8.303 -26.322 -16.036  0.00  0.00     0.084 H 
ENDBRANCH   1  34
TORSDOF 2
ENDMDL
MODEL 4
REMARK VINA RESULT:      -8.5      1.124      4.666
REMARK  2 active torsions:
REMARK  status: ('A' for Active; 'I' for Inactive)
REMARK    1  A    between atoms: CG_8  and  CA_2 
REMARK    2  A    between atoms: NM_14  and  CG_8 
ROOT
ATOM      1  CG  MOL d          -9.235 -27.215 -14.562  0.00  0.00     0.154 C 
ATOM      2  CH  MOL d          -9.577 -26.530 -15.971  0.00  0.00    -0.029 C 
ATOM      3  CI  MOL d         -10.679 -27.348 -16.628  0.00  0.00    -0.062 C 
ATOM      4  CJ  MOL d         -12.005 -27.195 -15.853  0.00  0.00    -0.065 C 
ATOM      5  CK  MOL d         -11.806 -27.573 -14.372  0.00  0.00    -0.062 C 
ATOM      6  CL  MOL d         -10.568 -26.885 -13.778  0.00  0.00    -0.029 C 
ATOM      7  H8  MOL d          -8.683 -26.523 -16.611  0.00  0.00     0.037 H 
ATOM      8  H9  MOL d          -9.922 -25.498 -15.811  0.00  0.00     0.037 H 
ATOM      9  H10 MOL d         -10.385 -28.408 -16.638  0.00  0.00     0.033 H 
ATOM     10  H11 MOL d         -10.821 -26.998 -17.662  0.00  0.00     0.033 H 
ATOM     11  H12 MOL d         -12.764 -27.857 -16.298  0.00  0.00     0.033 H 
ATOM     12  H13 MOL d         -12.346 -26.152 -15.919  0.00  0.00     0.033 H 
ATOM     13  H14 MOL d         -11.681 -28.663 -14.295  0.00  0.00     0.033 H 
ATOM     14  H15 MOL d         -12.694 -27.264 -13.802  0.00  0.00     0.033 H 
ATOM     15  H16 MOL d         -10.727 -25.797 -13.802  0.00  0.00     0.037 H 
ATOM     16  H17 MOL d         -10.451 -27.216 -12.736  0.00  0.00     0.037 H 
ENDROOT
BRANCH   1  17
ATOM     17  NM  MOL d          -8.132 -26.362 -13.842  0.00  0.00    -0.058 N 
ATOM     18  CN  MOL d          -7.387 -27.097 -12.688  0.00  0.00     0.085 C 
ATOM     19  CO  MOL d          -6.330 -26.207 -12.013  0.00  0.00    -0.042 C 
ATOM     20  H19 MOL d          -8.125 -27.406 -11.933  0.00  0.00     0.076 H 
ATOM     21  H20 MOL d          -6.889 -27.987 -13.100  0.00  0.00     0.076 H 
ATOM     22  CP  MOL d          -5.328 -25.611 -13.002  0.00  0.00    -0.062 C 
ATOM     23  H21 MOL d          -6.843 -25.384 -11.495  0.00  0.00     0.035 H 
ATOM     24  H22 MOL d          -5.779 -26.814 -11.279  0.00  0.00     0.035 H 
ATOM     25  CQ  MOL d          -6.108 -24.845 -14.090  0.00  0.00    -0.042 C 
ATOM     26  H1  MOL d          -4.653 -24.921 -12.476  0.00  0.00     0.033 H 
ATOM     27  H2  MOL d          -4.740 -26.417 -13.465  0.00  0.00     0.033 H 
ATOM     28  CR  MOL d          -7.124 -25.709 -14.802  0.00  0.00     0.085 C 
ATOM     29  H23 MOL d          -5.391 -24.462 -14.832  0.00  0.00     0.035 H 
ATOM     30  H24 MOL d          -6.634 -24.002 -13.618  0.00  0.00     0.035 H 
ATOM     31  H25 MOL d          -7.677 -25.083 -15.519  0.00  0.00     0.076 H 
ATOM     32  H26 MOL d          -6.591 -26.504 -15.345  0.00  0.00     0.076 H 
ATOM     33  H18 MOL d          -8.631 -25.603 -13.406  0.00  0.00     0.281 HD
ENDBRANCH   1  17
BRANCH   1  34
ATOM     34  CA  MOL d          -8.846 -28.767 -14.669  0.00  0.00    -0.022 A 
ATOM     35  CF  MOL d          -7.504 -29.177 -15.056  0.00  0.00    -0.074 A 
ATOM     36  CE  MOL d          -7.122 -30.546 -15.138  0.00  0.00    -0.082 A 
ATOM     37  H7  MOL d          -6.770 -28.414 -15.289  0.00  0.00     0.084 H 
ATOM     38  CD  MOL d          -8.016 -31.558 -14.842  0.00  0.00    -0.083 A 
ATOM     39  H6  MOL d          -6.112 -30.799 -15.438  0.00  0.00     0.083 H 
ATOM     40  CC  MOL d          -9.365 -31.180 -14.459  0.00  0.00    -0.082 A 
ATOM     41  H5  MOL d          -7.719 -32.599 -14.893  0.00  0.00     0.083 H 
ATOM     42  CB  MOL d          -9.772 -29.802 -14.374  0.00  0.00    -0.074 A 
ATOM     43  H4  MOL d         -10.086 -31.957 -14.232  0.00  0.00     0.083 H 
ATOM     44  H3  MOL d         -10.786 -29.554 -14.084  0.00  0.00     0.084 H 
ENDBRANCH   1  34
TORSDOF 2
ENDMDL
MODEL 5
REMARK VINA RESULT:      -8.3      1.339      4.562
REMARK  2 active torsions:
REMARK  status: ('A' for Active; 'I' for Inactive)
REMARK    1  A    between atoms: CG_8  and  CA_2 
REMARK    2  A    between atoms: NM_14  and  CG_8 
ROOT
ATOM      1  CG  MOL d          -9.506 -27.753 -14.287  0.00  0.00     0.154 C 
ATOM      2  CH  MOL d          -9.516 -27.062 -15.734  0.00  0.00    -0.029 C 
ATOM      3  CI  MOL d         -10.848 -27.386 -16.393  0.00  0.00    -0.062 C 
ATOM      4  CJ  MOL d         -12.003 -26.660 -15.670  0.00  0.00    -0.065 C 
ATOM      5  CK  MOL d         -11.997 -27.008 -14.168  0.00  0.00    -0.062 C 
ATOM      6  CL  MOL d         -10.593 -26.862 -13.563  0.00  0.00    -0.029 C 
ATOM      7  H8  MOL d          -8.691 -27.458 -16.344  0.00  0.00     0.037 H 
ATOM      8  H9  MOL d          -9.405 -25.973 -15.630  0.00  0.00     0.037 H 
ATOM      9  H10 MOL d         -11.020 -28.472 -16.347  0.00  0.00     0.033 H 
ATOM     10  H11 MOL d         -10.820 -27.063 -17.444  0.00  0.00     0.033 H 
ATOM     11  H12 MOL d         -12.962 -26.972 -16.111  0.00  0.00     0.033 H 
ATOM     12  H13 MOL d         -11.881 -25.574 -15.791  0.00  0.00     0.033 H 
ATOM     13  H14 MOL d         -12.335 -28.047 -14.041  0.00  0.00     0.033 H 
ATOM     14  H15 MOL d         -12.686 -26.331 -13.641  0.00  0.00     0.033 H 
ATOM     15  H16 MOL d         -10.288 -25.808 -13.638  0.00  0.00     0.037 H 
ATOM     16  H17 MOL d         -10.637 -27.156 -12.504  0.00  0.00     0.037 H 
ENDROOT
BRANCH   1  17
ATOM     17  NM  MOL d          -8.158 -27.394 -13.567  0.00  0.00    -0.058 N 
ATOM     18  CN  MOL d          -6.933 -27.236 -14.516  0.00  0.00     0.085 C 
ATOM     19  CO  MOL d          -5.641 -26.899 -13.753  0.00  0.00    -0.042 C 
ATOM     20  H19 MOL d          -6.786 -28.180 -15.062  0.00  0.00     0.076 H 
ATOM     21  H20 MOL d          -7.143 -26.427 -15.232  0.00  0.00     0.076 H 
ATOM     22  CP  MOL d          -5.780 -25.672 -12.851  0.00  0.00    -0.062 C 
ATOM     23  H21 MOL d          -5.365 -27.762 -13.130  0.00  0.00     0.035 H 
ATOM     24  H22 MOL d          -4.843 -26.706 -14.485  0.00  0.00     0.035 H 
ATOM     25  CQ  MOL d          -6.967 -25.900 -11.892  0.00  0.00    -0.042 C 
ATOM     26  H1  MOL d          -4.857 -25.532 -12.270  0.00  0.00     0.033 H 
ATOM     27  H2  MOL d          -5.967 -24.779 -13.465  0.00  0.00     0.033 H 
ATOM     28  CR  MOL d          -8.261 -26.189 -12.618  0.00  0.00     0.085 C 
ATOM     29  H23 MOL d          -7.102 -24.996 -11.280  0.00  0.00     0.035 H 
ATOM     30  H24 MOL d          -6.733 -26.754 -11.239  0.00  0.00     0.035 H 
ATOM     31  H25 MOL d          -9.043 -26.396 -11.872  0.00  0.00     0.076 H 
ATOM     32  H26 MOL d          -8.541 -25.302 -13.205  0.00  0.00     0.076 H 
ATOM     33  H18 MOL d          -7.952 -28.190 -12.984  0.00  0.00     0.281 HD
ENDBRANCH   1  17
BRANCH   1  34
ATOM     34  CA  MOL d          -9.792 -29.330 -14.316  0.00  0.00    -0.022 A 
ATOM     35  CF  MOL d          -8.698 -30.289 -14.320  0.00  0.00    -0.074 A 
ATOM     36  CE  MOL d          -8.920 -31.695 -14.322  0.00  0.00    -0.082 A 
ATOM     37  H7  MOL d          -7.678 -29.921 -14.322  0.00  0.00     0.084 H 
ATOM     38  CD  MOL d         -10.199 -32.219 -14.311  0.00  0.00    -0.083 A 
ATOM     39  H6  MOL d          -8.070 -32.368 -14.334  0.00  0.00     0.083 H 
ATOM     40  CC  MOL d         -11.313 -31.286 -14.313  0.00  0.00    -0.082 A 
ATOM     41  H5  MOL d         -10.366 -33.289 -14.300  0.00  0.00     0.083 H 
ATOM     42  CB  MOL d         -11.109 -29.861 -14.314  0.00  0.00    -0.074 A 
ATOM     43  H4  MOL d         -12.325 -31.673 -14.313  0.00  0.00     0.083 H 
ATOM     44  H3  MOL d         -11.962 -29.193 -14.314  0.00  0.00     0.084 H 
ENDBRANCH   1  34
TORSDOF 2
ENDMDL
MODEL 6
REMARK VINA RESULT:      -7.9      1.155      4.582
REMARK  2 active torsions:
REMARK  status: ('A' for Active; 'I' for Inactive)
REMARK    1  A    between atoms: CG_8  and  CA_2 
REMARK    2  A    between atoms: NM_14  and  CG_8 
ROOT
ATOM      1  CG  MOL d          -7.925 -26.766 -13.910  0.00  0.00     0.154 C 
ATOM      2  CH  MOL d          -7.901 -26.349 -12.362  0.00  0.00    -0.029 C 
ATOM      3  CI  MOL d          -6.513 -26.657 -11.821  0.00  0.00    -0.062 C 
ATOM      4  CJ  MOL d          -5.465 -25.705 -12.438  0.00  0.00    -0.065 C 
ATOM      5  CK  MOL d          -5.518 -25.777 -13.976  0.00  0.00    -0.062 C 
ATOM      6  CL  MOL d          -6.959 -25.659 -14.495  0.00  0.00    -0.029 C 
ATOM      7  H8  MOL d          -8.655 -26.925 -11.807  0.00  0.00     0.037 H 
ATOM      8  H9  MOL d          -8.112 -25.274 -12.260  0.00  0.00     0.037 H 
ATOM      9  H10 MOL d          -6.250 -27.695 -12.070  0.00  0.00     0.033 H 
ATOM     10  H11 MOL d          -6.515 -26.532 -10.727  0.00  0.00     0.033 H 
ATOM     11  H12 MOL d          -4.461 -25.999 -12.095  0.00  0.00     0.033 H 
ATOM     12  H13 MOL d          -5.676 -24.675 -12.115  0.00  0.00     0.033 H 
ATOM     13  H14 MOL d          -5.097 -26.739 -14.304  0.00  0.00     0.033 H 
ATOM     14  H15 MOL d          -4.920 -24.954 -14.394  0.00  0.00     0.033 H 
ATOM     15  H16 MOL d          -7.351 -24.670 -14.217  0.00  0.00     0.037 H 
ATOM     16  H17 MOL d          -6.944 -25.753 -15.591  0.00  0.00     0.037 H 
ENDROOT
BRANCH   1  17
ATOM     17  NM  MOL d          -9.334 -26.414 -14.504  0.00  0.00    -0.058 N 
ATOM     18  CN  MOL d          -9.476 -26.655 -16.036  0.00  0.00     0.085 C 
ATOM     19  CO  MOL d         -10.872 -26.280 -16.562  0.00  0.00    -0.042 C 
ATOM     20  H19 MOL d          -8.724 -26.046 -16.560  0.00  0.00     0.076 H 
ATOM     21  H20 MOL d          -9.294 -27.720 -16.244  0.00  0.00     0.076 H 
ATOM     22  CP  MOL d         -12.004 -26.973 -15.804  0.00  0.00    -0.062 C 
ATOM     23  H21 MOL d         -11.001 -25.192 -16.467  0.00  0.00     0.035 H 
ATOM     24  H22 MOL d         -10.934 -26.564 -17.623  0.00  0.00     0.035 H 
ATOM     25  CQ  MOL d         -11.855 -26.658 -14.302  0.00  0.00    -0.042 C 
ATOM     26  H1  MOL d         -12.974 -26.603 -16.167  0.00  0.00     0.033 H 
ATOM     27  H2  MOL d         -11.944 -28.060 -15.962  0.00  0.00     0.033 H 
ATOM     28  CR  MOL d         -10.507 -27.058 -13.748  0.00  0.00     0.085 C 
ATOM     29  H23 MOL d         -12.638 -27.200 -13.750  0.00  0.00     0.035 H 
ATOM     30  H24 MOL d         -11.987 -25.575 -14.156  0.00  0.00     0.035 H 
ATOM     31  H25 MOL d         -10.456 -26.751 -12.693  0.00  0.00     0.076 H 
ATOM     32  H26 MOL d         -10.410 -28.152 -13.816  0.00  0.00     0.076 H 
ATOM     33  H18 MOL d          -9.433 -25.419 -14.373  0.00  0.00     0.281 HD
ENDBRANCH   1  17
BRANCH   1  34
ATOM     34  CA  MOL d          -7.501 -28.288 -14.181  0.00  0.00    -0.022 A 
ATOM     35  CF  MOL d          -8.432 -29.379 -13.940  0.00  0.00    -0.074 A 
ATOM     36  CE  MOL d          -8.093 -30.738 -14.193  0.00  0.00    -0.082 A 
ATOM     37  H7  MOL d          -9.419 -29.149 -13.554  0.00  0.00     0.084 H 
ATOM     38  CD  MOL d          -6.852 -31.086 -14.694  0.00  0.00    -0.083 A 
ATOM     39  H6  MOL d          -8.820 -31.515 -13.989  0.00  0.00     0.083 H 
ATOM     40  CC  MOL d          -5.898 -30.018 -14.939  0.00  0.00    -0.082 A 
ATOM     41  H5  MOL d          -6.600 -32.119 -14.898  0.00  0.00     0.083 H 
ATOM     42  CB  MOL d          -6.221 -28.639 -14.686  0.00  0.00    -0.074 A 
ATOM     43  H4  MOL d          -4.915 -30.267 -15.324  0.00  0.00     0.083 H 
ATOM     44  H3  MOL d          -5.486 -27.866 -14.882  0.00  0.00     0.084 H 
ENDBRANCH   1  34
TORSDOF 2
ENDMDL
MODEL 7
REMARK VINA RESULT:      -7.5      1.258      4.509
REMARK  2 active torsions:
REMARK  status: ('A' for Active; 'I' for Inactive)
REMARK    1  A    between atoms: CG_8  and  CA_2 
REMARK    2  A    between atoms: NM_14  and  CG_8 
ROOT
ATOM      1  CG  MOL d          -8.115 -29.067 -14.081  0.00  0.00     0.154 C 
ATOM      2  CH  MOL d          -8.305 -30.339 -13.123  0.00  0.00    -0.029 C 
ATOM      3  CI  MOL d          -8.979 -31.434 -13.935  0.00  0.00    -0.062 C 
ATOM      4  CJ  MOL d          -8.021 -31.975 -15.019  0.00  0.00    -0.065 C 
ATOM      5  CK  MOL d          -7.513 -30.822 -15.907  0.00  0.00    -0.062 C 
ATOM      6  CL  MOL d          -7.016 -29.639 -15.062  0.00  0.00    -0.029 C 
ATOM      7  H8  MOL d          -8.936 -30.069 -12.263  0.00  0.00     0.037 H 
ATOM      8  H9  MOL d          -7.325 -30.688 -12.765  0.00  0.00     0.037 H 
ATOM      9  H10 MOL d          -9.878 -31.025 -14.419  0.00  0.00     0.033 H 
ATOM     10  H11 MOL d          -9.266 -32.258 -13.264  0.00  0.00     0.033 H 
ATOM     11  H12 MOL d          -8.555 -32.706 -15.645  0.00  0.00     0.033 H 
ATOM     12  H13 MOL d          -7.164 -32.464 -14.534  0.00  0.00     0.033 H 
ATOM     13  H14 MOL d          -8.335 -30.479 -16.553  0.00  0.00     0.033 H 
ATOM     14  H15 MOL d          -6.685 -31.188 -16.531  0.00  0.00     0.033 H 
ATOM     15  H16 MOL d          -6.154 -29.974 -14.465  0.00  0.00     0.037 H 
ATOM     16  H17 MOL d          -6.700 -28.833 -15.742  0.00  0.00     0.037 H 
ENDROOT
BRANCH   1  17
ATOM     17  NM  MOL d          -7.379 -27.937 -13.278  0.00  0.00    -0.058 N 
ATOM     18  CN  MOL d          -6.068 -27.417 -13.937  0.00  0.00     0.085 C 
ATOM     19  CO  MOL d          -5.384 -26.322 -13.099  0.00  0.00    -0.042 C 
ATOM     20  H19 MOL d          -5.371 -28.261 -14.053  0.00  0.00     0.076 H 
ATOM     21  H20 MOL d          -6.310 -27.003 -14.928  0.00  0.00     0.076 H 
ATOM     22  CP  MOL d          -6.315 -25.157 -12.764  0.00  0.00    -0.062 C 
ATOM     23  H21 MOL d          -5.031 -26.771 -12.159  0.00  0.00     0.035 H 
ATOM     24  H22 MOL d          -4.525 -25.934 -13.664  0.00  0.00     0.035 H 
ATOM     25  CQ  MOL d          -7.569 -25.715 -12.061  0.00  0.00    -0.042 C 
ATOM     26  H1  MOL d          -5.799 -24.451 -12.096  0.00  0.00     0.033 H 
ATOM     27  H2  MOL d          -6.608 -24.638 -13.688  0.00  0.00     0.033 H 
ATOM     28  CR  MOL d          -8.287 -26.761 -12.884  0.00  0.00     0.085 C 
ATOM     29  H23 MOL d          -8.264 -24.883 -11.868  0.00  0.00     0.035 H 
ATOM     30  H24 MOL d          -7.265 -26.168 -11.106  0.00  0.00     0.035 H 
ATOM     31  H25 MOL d          -9.131 -27.151 -12.297  0.00  0.00     0.076 H 
ATOM     32  H26 MOL d          -8.665 -26.288 -13.801  0.00  0.00     0.076 H 
ATOM     33  H18 MOL d          -7.097 -28.372 -12.413  0.00  0.00     0.281 HD
ENDBRANCH   1  17
BRANCH   1  34
ATOM     34  CA  MOL d          -9.473 -28.557 -14.764  0.00  0.00    -0.022 A 
ATOM     35  CF  MOL d         -10.767 -29.045 -14.312  0.00  0.00    -0.074 A 
ATOM     36  CE  MOL d         -11.991 -28.594 -14.882  0.00  0.00    -0.082 A 
ATOM     37  H7  MOL d         -10.801 -29.777 -13.513  0.00  0.00     0.084 H 
ATOM     38  CD  MOL d         -12.005 -27.654 -15.897  0.00  0.00    -0.083 A 
ATOM     39  H6  MOL d         -12.928 -28.994 -14.516  0.00  0.00     0.083 H 
ATOM     40  CC  MOL d         -10.728 -27.153 -16.374  0.00  0.00    -0.082 A 
ATOM     41  H5  MOL d         -12.938 -27.303 -16.322  0.00  0.00     0.083 H 
ATOM     42  CB  MOL d          -9.480 -27.600 -15.812  0.00  0.00    -0.074 A 
ATOM     43  H4  MOL d         -10.714 -26.423 -17.175  0.00  0.00     0.083 H 
ATOM     44  H3  MOL d          -8.544 -27.204 -16.191  0.00  0.00     0.084 H 
ENDBRANCH   1  34
TORSDOF 2
ENDMDL
