MODEL 1
REMARK VINA RESULT:      -9.1      0.000      0.000
REMARK  8 active torsions:
REMARK  status: ('A' for Active; 'I' for Inactive)
REMARK    1  A    between atoms: CAQ_9  and  CAL_10 
REMARK    2  A    between atoms: CAL_10  and  CAP_11 
REMARK       I    between atoms: CAP_11  and  NAM_13 
REMARK    3  A    between atoms: NAM_13  and  CAK_14 
REMARK    4  A    between atoms: CAK_14  and  CAU_15 
REMARK    5  A    between atoms: CAT_17  and  CAA_18 
REMARK    6  A    between atoms: CAV_19  and  OAC_20 
REMARK    7  A    between atoms: CAX_21  and  OAE_22 
REMARK    8  A    between atoms: CAW_23  and  OAD_24 
ROOT
ATOM      1  CAK ZX6 d          -1.824  26.130  27.225  0.00  0.00     0.024 C 
ATOM      2  H10 ZX6 d          -2.798  25.638  27.089  0.00  0.00     0.067 H 
ATOM      3  H11 ZX6 d          -1.027  25.372  27.225  0.00  0.00     0.067 H 
ENDROOT
BRANCH   1   4
ATOM      4  NAM ZX6 d          -1.828  26.778  28.548  0.00  0.00    -0.359 N 
ATOM      5  CAP ZX6 d          -2.951  27.059  29.208  0.00  0.00     0.222 C 
ATOM      6  OAB ZX6 d          -4.064  26.951  28.694  0.00  0.00    -0.273 OA
ATOM      7  H9  ZX6 d          -0.953  27.016  28.969  0.00  0.00     0.162 HD
BRANCH   5   8
ATOM      8  CAL ZX6 d          -2.852  27.678  30.607  0.00  0.00     0.035 C 
ATOM      9  H7  ZX6 d          -2.855  28.773  30.495  0.00  0.00     0.054 H 
ATOM     10  H8  ZX6 d          -3.738  27.366  31.179  0.00  0.00     0.054 H 
BRANCH   8  11
ATOM     11  CAQ ZX6 d          -1.611  27.289  31.412  0.00  0.00    -0.022 A 
ATOM     12  CAS ZX6 d          -1.174  26.019  31.776  0.00  0.00    -0.001 A 
ATOM     13  CAI ZX6 d          -1.634  24.733  31.519  0.00  0.00    -0.070 A 
ATOM     14  CAR ZX6 d          -0.004  26.200  32.505  0.00  0.00     0.042 A 
ATOM     15  CAG ZX6 d          -0.920  23.633  31.990  0.00  0.00    -0.082 A 
ATOM     16  H1  ZX6 d          -2.547  24.586  30.954  0.00  0.00     0.084 H 
ATOM     17  CAF ZX6 d           0.248  23.815  32.722  0.00  0.00    -0.081 A 
ATOM     18  H2  ZX6 d          -1.278  22.631  31.785  0.00  0.00     0.083 H 
ATOM     19  CAH ZX6 d           0.707  25.104  32.982  0.00  0.00    -0.056 A 
ATOM     20  H3  ZX6 d           0.800  22.957  33.088  0.00  0.00     0.083 H 
ATOM     21  H4  ZX6 d           1.615  25.252  33.554  0.00  0.00     0.086 H 
ATOM     22  NAO ZX6 d           0.228  27.508  32.563  0.00  0.00    -0.365 N 
ATOM     23  CAJ ZX6 d          -0.734  28.158  31.909  0.00  0.00    -0.015 A 
ATOM     24  H5  ZX6 d           1.027  27.950  33.038  0.00  0.00     0.165 HD
ATOM     25  H6  ZX6 d          -0.794  29.239  31.799  0.00  0.00     0.112 H 
ENDBRANCH   8  11
ENDBRANCH   5   8
ENDBRANCH   1   4
BRANCH   1  26
ATOM     26  CAU ZX6 d          -1.593  27.049  26.020  0.00  0.00     0.144 C 
ATOM     27  NAN ZX6 d          -0.155  27.328  25.852  0.00  0.00    -0.060 N 
ATOM     28  CAT ZX6 d           0.100  28.268  24.744  0.00  0.00     0.126 C 
ATOM     29  H13 ZX6 d           0.325  26.462  25.661  0.00  0.00     0.278 HD
ATOM     30  H14 ZX6 d           0.201  27.729  26.707  0.00  0.00     0.278 HD
ATOM     31  CAV ZX6 d          -0.475  27.782  23.406  0.00  0.00     0.089 C 
ATOM     32  H15 ZX6 d          -0.380  29.226  24.992  0.00  0.00     0.087 H 
ATOM     33  CAX ZX6 d          -1.944  27.387  23.581  0.00  0.00     0.089 C 
ATOM     34  H19 ZX6 d          -0.406  28.598  22.671  0.00  0.00     0.090 H 
ATOM     35  CAW ZX6 d          -2.033  26.369  24.717  0.00  0.00     0.091 C 
ATOM     36  H21 ZX6 d          -2.532  28.281  23.836  0.00  0.00     0.091 H 
ATOM     37  H23 ZX6 d          -1.354  25.528  24.514  0.00  0.00     0.090 H 
ATOM     38  H12 ZX6 d          -2.150  27.986  26.167  0.00  0.00     0.091 H 
BRANCH  28  39
ATOM     39  CAA ZX6 d           1.606  28.496  24.610  0.00  0.00    -0.047 C 
ATOM     40  H16 ZX6 d           1.799  29.196  23.784  0.00  0.00     0.030 H 
ATOM     41  H17 ZX6 d           2.106  27.539  24.402  0.00  0.00     0.030 H 
ATOM     42  H18 ZX6 d           1.998  28.919  25.548  0.00  0.00     0.030 H 
ENDBRANCH  28  39
BRANCH  31  43
ATOM     43  OAC ZX6 d           0.264  26.656  22.923  0.00  0.00    -0.391 OA
ATOM     44  H20 ZX6 d          -0.104  26.368  22.096  0.00  0.00     0.210 HD
ENDBRANCH  31  43
BRANCH  33  45
ATOM     45  OAE ZX6 d          -2.477  26.802  22.391  0.00  0.00    -0.390 OA
ATOM     46  H22 ZX6 d          -3.387  26.569  22.534  0.00  0.00     0.210 HD
ENDBRANCH  33  45
BRANCH  35  47
ATOM     47  OAD ZX6 d          -3.373  25.875  24.767  0.00  0.00    -0.391 OA
ATOM     48  H24 ZX6 d          -3.586  25.461  23.939  0.00  0.00     0.210 HD
ENDBRANCH  35  47
ENDBRANCH   1  26
TORSDOF 8
ENDMDL
