MODEL 1
REMARK VINA RESULT:      -9.4      0.000      0.000
REMARK  8 active torsions:
REMARK  status: ('A' for Active; 'I' for Inactive)
REMARK    1  A    between atoms: CAQ_9  and  CAL_10 
REMARK    2  A    between atoms: CAL_10  and  CAP_11 
REMARK       I    between atoms: CAP_11  and  NAM_13 
REMARK    3  A    between atoms: NAM_13  and  CAK_14 
REMARK    4  A    between atoms: CAK_14  and  CAU_15 
REMARK    5  A    between atoms: CAT_17  and  CAA_18 
REMARK    6  A    between atoms: CAV_19  and  OAC_20 
REMARK    7  A    between atoms: CAX_21  and  OAE_22 
REMARK    8  A    between atoms: CAW_23  and  OAD_24 
ROOT
ATOM      1  CAK ZX6 d          -1.849  26.129  27.170  0.00  0.00     0.024 C 
ATOM      2  H10 ZX6 d          -2.870  25.731  27.071  0.00  0.00     0.067 H 
ATOM      3  H11 ZX6 d          -1.127  25.302  27.116  0.00  0.00     0.067 H 
ENDROOT
BRANCH   1   4
ATOM      4  NAM ZX6 d          -1.732  26.740  28.506  0.00  0.00    -0.359 N 
ATOM      5  CAP ZX6 d          -2.647  26.567  29.459  0.00  0.00     0.222 C 
ATOM      6  OAB ZX6 d          -3.731  26.025  29.244  0.00  0.00    -0.273 OA
ATOM      7  H9  ZX6 d          -0.934  27.308  28.705  0.00  0.00     0.162 HD
BRANCH   5   8
ATOM      8  CAL ZX6 d          -2.407  27.193  30.838  0.00  0.00     0.035 C 
ATOM      9  H7  ZX6 d          -2.222  28.268  30.695  0.00  0.00     0.054 H 
ATOM     10  H8  ZX6 d          -3.320  27.055  31.437  0.00  0.00     0.054 H 
BRANCH   8  11
ATOM     11  CAQ ZX6 d          -1.233  26.612  31.628  0.00  0.00    -0.022 A 
ATOM     12  CAS ZX6 d          -0.791  25.295  31.684  0.00  0.00    -0.001 A 
ATOM     13  CAI ZX6 d          -1.183  24.120  31.054  0.00  0.00    -0.070 A 
ATOM     14  CAR ZX6 d           0.301  25.283  32.545  0.00  0.00     0.042 A 
ATOM     15  CAG ZX6 d          -0.481  22.939  31.285  0.00  0.00    -0.082 A 
ATOM     16  H1  ZX6 d          -2.035  24.122  30.384  0.00  0.00     0.084 H 
ATOM     17  CAF ZX6 d           0.609  22.928  32.148  0.00  0.00    -0.081 A 
ATOM     18  H2  ZX6 d          -0.786  22.025  30.789  0.00  0.00     0.083 H 
ATOM     19  CAH ZX6 d           1.000  24.104  32.782  0.00  0.00    -0.056 A 
ATOM     20  H3  ZX6 d           1.152  22.007  32.327  0.00  0.00     0.083 H 
ATOM     21  H4  ZX6 d           1.847  24.102  33.459  0.00  0.00     0.086 H 
ATOM     22  NAO ZX6 d           0.485  26.530  32.968  0.00  0.00    -0.365 N 
ATOM     23  CAJ ZX6 d          -0.434  27.324  32.420  0.00  0.00    -0.015 A 
ATOM     24  H5  ZX6 d           1.222  26.835  33.618  0.00  0.00     0.165 HD
ATOM     25  H6  ZX6 d          -0.518  28.395  32.593  0.00  0.00     0.112 H 
ENDBRANCH   8  11
ENDBRANCH   5   8
ENDBRANCH   1   4
BRANCH   1  26
ATOM     26  CAU ZX6 d          -1.592  27.054  25.976  0.00  0.00     0.144 C 
ATOM     27  NAN ZX6 d          -0.149  27.324  25.834  0.00  0.00    -0.060 N 
ATOM     28  CAT ZX6 d           0.132  28.268  24.736  0.00  0.00     0.126 C 
ATOM     29  H13 ZX6 d           0.327  26.455  25.645  0.00  0.00     0.278 HD
ATOM     30  H14 ZX6 d           0.195  27.716  26.696  0.00  0.00     0.278 HD
ATOM     31  CAV ZX6 d          -0.424  27.795  23.385  0.00  0.00     0.089 C 
ATOM     32  H15 ZX6 d          -0.346  29.228  24.982  0.00  0.00     0.087 H 
ATOM     33  CAX ZX6 d          -1.899  27.410  23.533  0.00  0.00     0.089 C 
ATOM     34  H19 ZX6 d          -0.337  28.616  22.657  0.00  0.00     0.090 H 
ATOM     35  CAW ZX6 d          -2.015  26.386  24.661  0.00  0.00     0.091 C 
ATOM     36  H21 ZX6 d          -2.485  28.306  23.784  0.00  0.00     0.091 H 
ATOM     37  H23 ZX6 d          -1.339  25.541  24.464  0.00  0.00     0.090 H 
ATOM     38  H12 ZX6 d          -2.144  27.994  26.119  0.00  0.00     0.091 H 
BRANCH  28  39
ATOM     39  CAA ZX6 d           1.641  28.487  24.629  0.00  0.00    -0.047 C 
ATOM     40  H16 ZX6 d           1.860  29.563  24.676  0.00  0.00     0.030 H 
ATOM     41  H17 ZX6 d           2.003  28.081  23.673  0.00  0.00     0.030 H 
ATOM     42  H18 ZX6 d           2.146  27.974  25.461  0.00  0.00     0.030 H 
ENDBRANCH  28  39
BRANCH  31  43
ATOM     43  OAC ZX6 d           0.315  26.667  22.908  0.00  0.00    -0.391 OA
ATOM     44  H20 ZX6 d           0.701  26.209  23.645  0.00  0.00     0.210 HD
ENDBRANCH  31  43
BRANCH  33  45
ATOM     45  OAE ZX6 d          -2.416  26.837  22.330  0.00  0.00    -0.390 OA
ATOM     46  H22 ZX6 d          -2.144  27.363  21.588  0.00  0.00     0.210 HD
ENDBRANCH  33  45
BRANCH  35  47
ATOM     47  OAD ZX6 d          -3.358  25.901  24.685  0.00  0.00    -0.391 OA
ATOM     48  H24 ZX6 d          -3.870  26.419  25.294  0.00  0.00     0.210 HD
ENDBRANCH  35  47
ENDBRANCH   1  26
TORSDOF 8
ENDMDL
MODEL 2
REMARK VINA RESULT:      -6.7      0.977      2.254
REMARK  8 active torsions:
REMARK  status: ('A' for Active; 'I' for Inactive)
REMARK    1  A    between atoms: CAQ_9  and  CAL_10 
REMARK    2  A    between atoms: CAL_10  and  CAP_11 
REMARK       I    between atoms: CAP_11  and  NAM_13 
REMARK    3  A    between atoms: NAM_13  and  CAK_14 
REMARK    4  A    between atoms: CAK_14  and  CAU_15 
REMARK    5  A    between atoms: CAT_17  and  CAA_18 
REMARK    6  A    between atoms: CAV_19  and  OAC_20 
REMARK    7  A    between atoms: CAX_21  and  OAE_22 
REMARK    8  A    between atoms: CAW_23  and  OAD_24 
ROOT
ATOM      1  CAK ZX6 d          -2.586  26.620  27.187  0.00  0.00     0.024 C 
ATOM      2  H10 ZX6 d          -2.981  27.385  27.871  0.00  0.00     0.067 H 
ATOM      3  H11 ZX6 d          -3.417  26.015  26.794  0.00  0.00     0.067 H 
ENDROOT
BRANCH   1   4
ATOM      4  NAM ZX6 d          -1.712  25.727  27.968  0.00  0.00    -0.359 N 
ATOM      5  CAP ZX6 d          -2.143  25.047  29.030  0.00  0.00     0.222 C 
ATOM      6  OAB ZX6 d          -3.249  25.239  29.534  0.00  0.00    -0.273 OA
ATOM      7  H9  ZX6 d          -0.757  25.627  27.690  0.00  0.00     0.162 HD
BRANCH   5   8
ATOM      8  CAL ZX6 d          -1.175  24.095  29.743  0.00  0.00     0.035 C 
ATOM      9  H7  ZX6 d          -1.748  23.219  30.081  0.00  0.00     0.054 H 
ATOM     10  H8  ZX6 d          -0.415  23.776  29.014  0.00  0.00     0.054 H 
BRANCH   8  11
ATOM     11  CAQ ZX6 d          -0.449  24.682  30.955  0.00  0.00    -0.022 A 
ATOM     12  CAS ZX6 d          -0.416  26.002  31.393  0.00  0.00    -0.001 A 
ATOM     13  CAI ZX6 d          -1.025  27.174  30.962  0.00  0.00    -0.070 A 
ATOM     14  CAR ZX6 d           0.385  26.019  32.529  0.00  0.00     0.042 A 
ATOM     15  CAG ZX6 d          -0.833  28.358  31.670  0.00  0.00    -0.082 A 
ATOM     16  H1  ZX6 d          -1.649  27.168  30.076  0.00  0.00     0.084 H 
ATOM     17  CAF ZX6 d          -0.028  28.375  32.804  0.00  0.00    -0.081 A 
ATOM     18  H2  ZX6 d          -1.312  29.270  31.335  0.00  0.00     0.083 H 
ATOM     19  CAH ZX6 d           0.585  27.201  33.234  0.00  0.00    -0.056 A 
ATOM     20  H3  ZX6 d           0.121  29.298  33.352  0.00  0.00     0.083 H 
ATOM     21  H4  ZX6 d           1.215  27.208  34.116  0.00  0.00     0.086 H 
ATOM     22  NAO ZX6 d           0.799  24.773  32.741  0.00  0.00    -0.365 N 
ATOM     23  CAJ ZX6 d           0.300  23.975  31.798  0.00  0.00    -0.015 A 
ATOM     24  H5  ZX6 d           1.409  24.472  33.513  0.00  0.00     0.165 HD
ATOM     25  H6  ZX6 d           0.478  22.903  31.728  0.00  0.00     0.112 H 
ENDBRANCH   8  11
ENDBRANCH   5   8
ENDBRANCH   1   4
BRANCH   1  26
ATOM     26  CAU ZX6 d          -1.933  27.342  26.004  0.00  0.00     0.144 C 
ATOM     27  NAN ZX6 d          -0.467  27.188  26.049  0.00  0.00    -0.060 N 
ATOM     28  CAT ZX6 d           0.201  27.930  24.964  0.00  0.00     0.126 C 
ATOM     29  H13 ZX6 d          -0.240  26.209  25.962  0.00  0.00     0.278 HD
ATOM     30  H14 ZX6 d          -0.131  27.534  26.935  0.00  0.00     0.278 HD
ATOM     31  CAV ZX6 d          -0.301  27.529  23.570  0.00  0.00     0.089 C 
ATOM     32  H15 ZX6 d          -0.008  29.001  25.104  0.00  0.00     0.087 H 
ATOM     33  CAX ZX6 d          -1.831  27.582  23.529  0.00  0.00     0.089 C 
ATOM     34  H19 ZX6 d           0.104  28.235  22.829  0.00  0.00     0.090 H 
ATOM     35  CAW ZX6 d          -2.369  26.719  24.671  0.00  0.00     0.091 C 
ATOM     36  H21 ZX6 d          -2.161  28.622  23.663  0.00  0.00     0.091 H 
ATOM     37  H23 ZX6 d          -1.944  25.708  24.601  0.00  0.00     0.090 H 
ATOM     38  H12 ZX6 d          -2.207  28.407  26.033  0.00  0.00     0.091 H 
BRANCH  28  39
ATOM     39  CAA ZX6 d           1.712  27.711  25.056  0.00  0.00    -0.047 C 
ATOM     40  H16 ZX6 d           2.142  27.696  24.044  0.00  0.00     0.030 H 
ATOM     41  H17 ZX6 d           1.914  26.752  25.554  0.00  0.00     0.030 H 
ATOM     42  H18 ZX6 d           2.166  28.529  25.635  0.00  0.00     0.030 H 
ENDBRANCH  28  39
BRANCH  31  43
ATOM     43  OAC ZX6 d           0.137  26.206  23.242  0.00  0.00    -0.391 OA
ATOM     44  H20 ZX6 d          -0.613  25.623  23.220  0.00  0.00     0.210 HD
ENDBRANCH  31  43
BRANCH  33  45
ATOM     45  OAE ZX6 d          -2.342  27.085  22.291  0.00  0.00    -0.390 OA
ATOM     46  H22 ZX6 d          -2.765  27.792  21.818  0.00  0.00     0.210 HD
ENDBRANCH  33  45
BRANCH  35  47
ATOM     47  OAD ZX6 d          -3.787  26.631  24.530  0.00  0.00    -0.391 OA
ATOM     48  H24 ZX6 d          -4.083  27.280  23.903  0.00  0.00     0.210 HD
ENDBRANCH  35  47
ENDBRANCH   1  26
TORSDOF 8
ENDMDL
MODEL 3
REMARK VINA RESULT:      -6.6      2.372      7.859
REMARK  8 active torsions:
REMARK  status: ('A' for Active; 'I' for Inactive)
REMARK    1  A    between atoms: CAQ_9  and  CAL_10 
REMARK    2  A    between atoms: CAL_10  and  CAP_11 
REMARK       I    between atoms: CAP_11  and  NAM_13 
REMARK    3  A    between atoms: NAM_13  and  CAK_14 
REMARK    4  A    between atoms: CAK_14  and  CAU_15 
REMARK    5  A    between atoms: CAT_17  and  CAA_18 
REMARK    6  A    between atoms: CAV_19  and  OAC_20 
REMARK    7  A    between atoms: CAX_21  and  OAE_22 
REMARK    8  A    between atoms: CAW_23  and  OAD_24 
ROOT
ATOM      1  CAK ZX6 d          -2.711  27.201  29.936  0.00  0.00     0.024 C 
ATOM      2  H10 ZX6 d          -3.805  27.276  30.032  0.00  0.00     0.067 H 
ATOM      3  H11 ZX6 d          -2.286  28.205  29.793  0.00  0.00     0.067 H 
ENDROOT
BRANCH   1   4
ATOM      4  NAM ZX6 d          -2.419  26.413  28.726  0.00  0.00    -0.359 N 
ATOM      5  CAP ZX6 d          -2.969  26.682  27.543  0.00  0.00     0.222 C 
ATOM      6  OAB ZX6 d          -3.880  27.497  27.407  0.00  0.00    -0.273 OA
ATOM      7  H9  ZX6 d          -1.782  25.645  28.796  0.00  0.00     0.162 HD
BRANCH   5   8
ATOM      8  CAL ZX6 d          -2.555  25.843  26.327  0.00  0.00     0.035 C 
ATOM      9  H7  ZX6 d          -1.744  25.169  26.640  0.00  0.00     0.054 H 
ATOM     10  H8  ZX6 d          -3.425  25.248  26.013  0.00  0.00     0.054 H 
BRANCH   8  11
ATOM     11  CAQ ZX6 d          -2.067  26.639  25.115  0.00  0.00    -0.022 A 
ATOM     12  CAS ZX6 d          -0.850  27.289  24.935  0.00  0.00    -0.001 A 
ATOM     13  CAI ZX6 d           0.303  27.402  25.702  0.00  0.00    -0.070 A 
ATOM     14  CAR ZX6 d          -0.898  27.870  23.672  0.00  0.00     0.042 A 
ATOM     15  CAG ZX6 d           1.405  28.093  25.203  0.00  0.00    -0.082 A 
ATOM     16  H1  ZX6 d           0.346  26.953  26.688  0.00  0.00     0.084 H 
ATOM     17  CAF ZX6 d           1.355  28.676  23.941  0.00  0.00    -0.081 A 
ATOM     18  H2  ZX6 d           2.305  28.176  25.800  0.00  0.00     0.083 H 
ATOM     19  CAH ZX6 d           0.198  28.566  23.174  0.00  0.00    -0.056 A 
ATOM     20  H3  ZX6 d           2.213  29.215  23.556  0.00  0.00     0.083 H 
ATOM     21  H4  ZX6 d           0.152  29.021  22.192  0.00  0.00     0.086 H 
ATOM     22  NAO ZX6 d          -2.082  27.574  23.145  0.00  0.00    -0.365 N 
ATOM     23  CAJ ZX6 d          -2.781  26.839  24.009  0.00  0.00    -0.015 A 
ATOM     24  H5  ZX6 d          -2.409  27.868  22.214  0.00  0.00     0.165 HD
ATOM     25  H6  ZX6 d          -3.786  26.459  23.837  0.00  0.00     0.112 H 
ENDBRANCH   8  11
ENDBRANCH   5   8
ENDBRANCH   1   4
BRANCH   1  26
ATOM     26  CAU ZX6 d          -2.164  26.646  31.256  0.00  0.00     0.144 C 
ATOM     27  NAN ZX6 d          -2.171  25.172  31.238  0.00  0.00    -0.060 N 
ATOM     28  CAT ZX6 d          -1.717  24.601  32.520  0.00  0.00     0.126 C 
ATOM     29  H13 ZX6 d          -1.557  24.853  30.504  0.00  0.00     0.278 HD
ATOM     30  H14 ZX6 d          -3.109  24.852  31.054  0.00  0.00     0.278 HD
ATOM     31  CAV ZX6 d          -0.320  25.090  32.929  0.00  0.00     0.089 C 
ATOM     32  H15 ZX6 d          -2.426  24.910  33.301  0.00  0.00     0.087 H 
ATOM     33  CAX ZX6 d          -0.259  26.619  32.855  0.00  0.00     0.089 C 
ATOM     34  H19 ZX6 d          -0.119  24.771  33.963  0.00  0.00     0.090 H 
ATOM     35  CAW ZX6 d          -0.697  27.047  31.455  0.00  0.00     0.091 C 
ATOM     36  H21 ZX6 d          -0.942  27.045  33.604  0.00  0.00     0.091 H 
ATOM     37  H23 ZX6 d          -0.087  26.527  30.702  0.00  0.00     0.090 H 
ATOM     38  H12 ZX6 d          -2.777  27.021  32.089  0.00  0.00     0.091 H 
BRANCH  28  39
ATOM     39  CAA ZX6 d          -1.726  23.075  32.427  0.00  0.00    -0.047 C 
ATOM     40  H16 ZX6 d          -0.847  22.670  32.949  0.00  0.00     0.030 H 
ATOM     41  H17 ZX6 d          -1.696  22.772  31.370  0.00  0.00     0.030 H 
ATOM     42  H18 ZX6 d          -2.642  22.685  32.895  0.00  0.00     0.030 H 
ENDBRANCH  28  39
BRANCH  31  43
ATOM     43  OAC ZX6 d           0.678  24.534  32.067  0.00  0.00    -0.391 OA
ATOM     44  H20 ZX6 d           1.241  23.956  32.569  0.00  0.00     0.210 HD
ENDBRANCH  31  43
BRANCH  33  45
ATOM     45  OAE ZX6 d           1.063  27.105  33.097  0.00  0.00    -0.390 OA
ATOM     46  H22 ZX6 d           1.381  26.756  33.921  0.00  0.00     0.210 HD
ENDBRANCH  33  45
BRANCH  35  47
ATOM     47  OAD ZX6 d          -0.477  28.453  31.331  0.00  0.00    -0.391 OA
ATOM     48  H24 ZX6 d           0.445  28.640  31.457  0.00  0.00     0.210 HD
ENDBRANCH  35  47
ENDBRANCH   1  26
TORSDOF 8
ENDMDL
