MODEL 1
REMARK VINA RESULT:      -6.0      0.000      0.000
REMARK  6 active torsions:
REMARK  status: ('A' for Active; 'I' for Inactive)
REMARK    1  A    between atoms: C1_17  and  N1_1 
REMARK    2  A    between atoms: C5_10  and  O5_9 
REMARK    3  A    between atoms: C4_11  and  C5_10 
REMARK    4  A    between atoms: C3_13  and  O3_14 
REMARK    5  A    between atoms: O3_14  and  P_19 
REMARK    6  A    between atoms: C2_15  and  O2_16 
ROOT
ATOM      1  C4  UA3 d          39.141   0.015  12.250  0.00  0.00     0.089 C 
ATOM      2  O4  UA3 d          38.952  -1.269  11.664  0.00  0.00    -0.353 OA
ATOM      3  C3  UA3 d          38.230   0.853  12.852  0.00  0.00     0.107 C 
ATOM      4  C2  UA3 d          37.101  -0.462  13.053  0.00  0.00     0.106 C 
ATOM      5  C1  UA3 d          37.396  -1.197  11.564  0.00  0.00     0.141 C 
ATOM      6  H7  UA3 d          39.062   0.535  11.285  0.00  0.00     0.090 H 
ATOM      7  H8  UA3 d          38.674   1.158  13.810  0.00  0.00     0.092 H 
ATOM      8  H9  UA3 d          36.062  -0.101  13.044  0.00  0.00     0.093 H 
ATOM      9  H11 UA3 d          37.048  -0.641  10.680  0.00  0.00     0.123 H 
ENDROOT
BRANCH   5  10
ATOM     10  N1  UA3 d          36.739  -2.429  11.709  0.00  0.00    -0.280 N 
ATOM     11  C2  UA3 d          35.400  -2.490  11.224  0.00  0.00     0.331 A 
ATOM     12  O2  UA3 d          34.873  -1.568  10.712  0.00  0.00    -0.246 OA
ATOM     13  N3  UA3 d          34.799  -3.742  11.419  0.00  0.00    -0.275 N 
ATOM     14  C4  UA3 d          35.359  -4.891  12.023  0.00  0.00     0.250 A 
ATOM     15  H1  UA3 d          33.859  -3.833  11.090  0.00  0.00     0.173 HD
ATOM     16  O4  UA3 d          34.674  -5.886  12.100  0.00  0.00    -0.268 OA
ATOM     17  C5  UA3 d          36.725  -4.730  12.493  0.00  0.00    -0.002 A 
ATOM     18  C6  UA3 d          37.358  -3.555  12.332  0.00  0.00    -0.008 A 
ATOM     19  H2  UA3 d          37.236  -5.562  12.974  0.00  0.00     0.094 H 
ATOM     20  H3  UA3 d          38.382  -3.457  12.692  0.00  0.00     0.112 H 
ENDBRANCH   5  10
BRANCH   4  21
ATOM     21  O2  UA3 d          37.309  -1.143  14.534  0.00  0.00    -0.388 OA
ATOM     22  H10 UA3 d          36.693  -1.859  14.642  0.00  0.00     0.210 HD
ENDBRANCH   4  21
BRANCH   1  23
ATOM     23  C5  UA3 d          40.424   0.312  12.468  0.00  0.00     0.043 C 
ATOM     24  H5  UA3 d          41.023  -0.284  11.763  0.00  0.00     0.078 H 
ATOM     25  H6  UA3 d          40.556   1.381  12.248  0.00  0.00     0.078 H 
BRANCH  23  26
ATOM     26  O5  UA3 d          41.000   0.056  13.907  0.00  0.00    -0.398 OA
ATOM     27  H4  UA3 d          41.916   0.306  13.930  0.00  0.00     0.209 HD
ENDBRANCH  23  26
ENDBRANCH   1  23
BRANCH   3  28
ATOM     28  O3  UA3 d          37.485   2.119  12.391  0.00  0.00    -0.272 OA
BRANCH  28  29
ATOM     29  P   UA3 d          37.235   3.434  13.084  0.00  0.00     0.422 P 
ATOM     30  O3P UA3 d          35.715   3.371  13.588  0.00  0.00    -0.617 OA
ATOM     31  O1P UA3 d          37.495   4.553  12.118  0.00  0.00    -0.617 OA
ATOM     32  O2P UA3 d          38.137   3.539  14.285  0.00  0.00    -0.617 OA
ENDBRANCH  28  29
ENDBRANCH   3  28
TORSDOF 6
ENDMDL
