MODEL 1
REMARK VINA RESULT:      -5.9      0.000      0.000
REMARK  6 active torsions:
REMARK  status: ('A' for Active; 'I' for Inactive)
REMARK    1  A    between atoms: C1_17  and  N1_1 
REMARK    2  A    between atoms: C5_10  and  O5_9 
REMARK    3  A    between atoms: C4_11  and  C5_10 
REMARK    4  A    between atoms: C3_13  and  O3_14 
REMARK    5  A    between atoms: O3_14  and  P_19 
REMARK    6  A    between atoms: C2_15  and  O2_16 
ROOT
ATOM      1  C4  UA3 d          38.944   0.529  12.304  0.00  0.00     0.089 C 
ATOM      2  O4  UA3 d          38.844  -0.729  11.645  0.00  0.00    -0.353 OA
ATOM      3  C3  UA3 d          37.991   1.240  12.998  0.00  0.00     0.107 C 
ATOM      4  C2  UA3 d          36.999  -0.186  13.163  0.00  0.00     0.106 C 
ATOM      5  C1  UA3 d          37.285  -0.798  11.618  0.00  0.00     0.141 C 
ATOM      6  H7  UA3 d          38.771   1.097  11.379  0.00  0.00     0.090 H 
ATOM      7  H8  UA3 d          38.453   1.526  13.954  0.00  0.00     0.092 H 
ATOM      8  H9  UA3 d          35.932   0.076  13.223  0.00  0.00     0.093 H 
ATOM      9  H11 UA3 d          36.844  -0.225  10.788  0.00  0.00     0.123 H 
ENDROOT
BRANCH   5  10
ATOM     10  N1  UA3 d          36.751  -2.093  11.711  0.00  0.00    -0.280 N 
ATOM     11  C2  UA3 d          35.404  -2.253  11.273  0.00  0.00     0.331 A 
ATOM     12  O2  UA3 d          34.774  -1.357  10.837  0.00  0.00    -0.246 OA
ATOM     13  N3  UA3 d          34.930  -3.565  11.413  0.00  0.00    -0.275 N 
ATOM     14  C4  UA3 d          35.618  -4.688  11.925  0.00  0.00     0.250 A 
ATOM     15  H1  UA3 d          33.990  -3.726  11.113  0.00  0.00     0.173 HD
ATOM     16  O4  UA3 d          35.031  -5.747  11.966  0.00  0.00    -0.268 OA
ATOM     17  C5  UA3 d          36.982  -4.427  12.354  0.00  0.00    -0.002 A 
ATOM     18  C6  UA3 d          37.497  -3.189  12.242  0.00  0.00    -0.008 A 
ATOM     19  H2  UA3 d          37.588  -5.232  12.765  0.00  0.00     0.094 H 
ATOM     20  H3  UA3 d          38.521  -3.016  12.570  0.00  0.00     0.112 H 
ENDBRANCH   5  10
BRANCH   4  21
ATOM     21  O2  UA3 d          37.341  -0.933  14.586  0.00  0.00    -0.388 OA
ATOM     22  H10 UA3 d          38.051  -1.550  14.456  0.00  0.00     0.210 HD
ENDBRANCH   4  21
BRANCH   1  23
ATOM     23  C5  UA3 d          40.205   0.931  12.484  0.00  0.00     0.043 C 
ATOM     24  H5  UA3 d          40.758   0.089  12.925  0.00  0.00     0.078 H 
ATOM     25  H6  UA3 d          40.619   1.164  11.493  0.00  0.00     0.078 H 
BRANCH  23  26
ATOM     26  O5  UA3 d          40.448   2.184  13.400  0.00  0.00    -0.398 OA
ATOM     27  H4  UA3 d          41.195   2.673  13.075  0.00  0.00     0.209 HD
ENDBRANCH  23  26
ENDBRANCH   1  23
BRANCH   3  28
ATOM     28  O3  UA3 d          37.112   2.456  12.654  0.00  0.00    -0.272 OA
BRANCH  28  29
ATOM     29  P   UA3 d          37.209   3.902  13.066  0.00  0.00     0.422 P 
ATOM     30  O3P UA3 d          38.166   3.918  14.352  0.00  0.00    -0.617 OA
ATOM     31  O1P UA3 d          35.830   4.424  13.346  0.00  0.00    -0.617 OA
ATOM     32  O2P UA3 d          37.868   4.687  11.964  0.00  0.00    -0.617 OA
ENDBRANCH  28  29
ENDBRANCH   3  28
TORSDOF 6
ENDMDL
MODEL 2
REMARK VINA RESULT:      -4.9      3.026      6.355
REMARK  6 active torsions:
REMARK  status: ('A' for Active; 'I' for Inactive)
REMARK    1  A    between atoms: C1_17  and  N1_1 
REMARK    2  A    between atoms: C5_10  and  O5_9 
REMARK    3  A    between atoms: C4_11  and  C5_10 
REMARK    4  A    between atoms: C3_13  and  O3_14 
REMARK    5  A    between atoms: O3_14  and  P_19 
REMARK    6  A    between atoms: C2_15  and  O2_16 
ROOT
ATOM      1  C4  UA3 d          39.124  -2.708  13.856  0.00  0.00     0.089 C 
ATOM      2  O4  UA3 d          38.905  -1.438  14.462  0.00  0.00    -0.353 OA
ATOM      3  C3  UA3 d          38.655  -3.211  12.664  0.00  0.00     0.107 C 
ATOM      4  C2  UA3 d          38.266  -1.606  12.102  0.00  0.00     0.106 C 
ATOM      5  C1  UA3 d          37.690  -1.021  13.575  0.00  0.00     0.141 C 
ATOM      6  H7  UA3 d          38.324  -3.191  14.436  0.00  0.00     0.090 H 
ATOM      7  H8  UA3 d          39.526  -3.626  12.138  0.00  0.00     0.092 H 
ATOM      8  H9  UA3 d          37.420  -1.624  11.399  0.00  0.00     0.093 H 
ATOM      9  H11 UA3 d          36.738  -1.452  13.921  0.00  0.00     0.123 H 
ENDROOT
BRANCH   5  10
ATOM     10  N1  UA3 d          37.589   0.356  13.326  0.00  0.00    -0.280 N 
ATOM     11  C2  UA3 d          36.449   0.781  12.583  0.00  0.00     0.331 A 
ATOM     12  O2  UA3 d          35.623   0.026  12.212  0.00  0.00    -0.246 OA
ATOM     13  N3  UA3 d          36.423   2.164  12.354  0.00  0.00    -0.275 N 
ATOM     14  C4  UA3 d          37.370   3.131  12.760  0.00  0.00     0.250 A 
ATOM     15  H1  UA3 d          35.637   2.509  11.840  0.00  0.00     0.173 HD
ATOM     16  O4  UA3 d          37.169   4.287  12.463  0.00  0.00    -0.268 OA
ATOM     17  C5  UA3 d          38.501   2.603  13.505  0.00  0.00    -0.002 A 
ATOM     18  C6  UA3 d          38.583   1.285  13.761  0.00  0.00    -0.008 A 
ATOM     19  H2  UA3 d          39.283   3.275  13.856  0.00  0.00     0.094 H 
ATOM     20  H3  UA3 d          39.439   0.912  14.320  0.00  0.00     0.112 H 
ENDBRANCH   5  10
BRANCH   4  21
ATOM     21  O2  UA3 d          39.529  -1.003  11.241  0.00  0.00    -0.388 OA
ATOM     22  H10 UA3 d          40.321  -1.055  11.764  0.00  0.00     0.210 HD
ENDBRANCH   4  21
BRANCH   1  23
ATOM     23  C5  UA3 d          40.132  -3.389  14.409  0.00  0.00     0.043 C 
ATOM     24  H5  UA3 d          41.020  -3.229  13.780  0.00  0.00     0.078 H 
ATOM     25  H6  UA3 d          40.307  -2.963  15.407  0.00  0.00     0.078 H 
BRANCH  23  26
ATOM     26  O5  UA3 d          39.955  -4.940  14.586  0.00  0.00    -0.398 OA
ATOM     27  H4  UA3 d          40.732  -5.385  14.268  0.00  0.00     0.209 HD
ENDBRANCH  23  26
ENDBRANCH   1  23
BRANCH   3  28
ATOM     28  O3  UA3 d          37.523  -4.186  12.294  0.00  0.00    -0.272 OA
BRANCH  28  29
ATOM     29  P   UA3 d          36.404  -4.771  13.118  0.00  0.00     0.422 P 
ATOM     30  O3P UA3 d          35.402  -3.554  13.405  0.00  0.00    -0.617 OA
ATOM     31  O1P UA3 d          36.980  -5.374  14.365  0.00  0.00    -0.617 OA
ATOM     32  O2P UA3 d          35.681  -5.810  12.303  0.00  0.00    -0.617 OA
ENDBRANCH  28  29
ENDBRANCH   3  28
TORSDOF 6
ENDMDL
MODEL 3
REMARK VINA RESULT:      -4.7      2.898      6.409
REMARK  6 active torsions:
REMARK  status: ('A' for Active; 'I' for Inactive)
REMARK    1  A    between atoms: C1_17  and  N1_1 
REMARK    2  A    between atoms: C5_10  and  O5_9 
REMARK    3  A    between atoms: C4_11  and  C5_10 
REMARK    4  A    between atoms: C3_13  and  O3_14 
REMARK    5  A    between atoms: O3_14  and  P_19 
REMARK    6  A    between atoms: C2_15  and  O2_16 
ROOT
ATOM      1  C4  UA3 d          38.087  -2.497  13.784  0.00  0.00     0.089 C 
ATOM      2  O4  UA3 d          38.142  -1.323  14.586  0.00  0.00    -0.353 OA
ATOM      3  C3  UA3 d          38.035  -2.629  12.415  0.00  0.00     0.107 C 
ATOM      4  C2  UA3 d          38.599  -0.992  12.202  0.00  0.00     0.106 C 
ATOM      5  C1  UA3 d          37.715  -0.319  13.470  0.00  0.00     0.141 C 
ATOM      6  H7  UA3 d          36.996  -2.591  13.888  0.00  0.00     0.090 H 
ATOM      7  H8  UA3 d          38.807  -3.364  12.144  0.00  0.00     0.092 H 
ATOM      8  H9  UA3 d          38.217  -0.558  11.265  0.00  0.00     0.093 H 
ATOM      9  H11 UA3 d          36.625  -0.278  13.324  0.00  0.00     0.123 H 
ENDROOT
BRANCH   5  10
ATOM     10  N1  UA3 d          38.284   0.960  13.579  0.00  0.00    -0.280 N 
ATOM     11  C2  UA3 d          37.767   1.957  12.702  0.00  0.00     0.331 A 
ATOM     12  O2  UA3 d          36.896   1.734  11.939  0.00  0.00    -0.246 OA
ATOM     13  N3  UA3 d          38.394   3.202  12.851  0.00  0.00    -0.275 N 
ATOM     14  C4  UA3 d          39.439   3.549  13.736  0.00  0.00     0.250 A 
ATOM     15  H1  UA3 d          38.059   3.935  12.258  0.00  0.00     0.173 HD
ATOM     16  O4  UA3 d          39.851   4.688  13.714  0.00  0.00    -0.268 OA
ATOM     17  C5  UA3 d          39.906   2.466  14.585  0.00  0.00    -0.002 A 
ATOM     18  C6  UA3 d          39.343   1.248  14.493  0.00  0.00    -0.008 A 
ATOM     19  H2  UA3 d          40.712   2.640  15.296  0.00  0.00     0.094 H 
ATOM     20  H3  UA3 d          39.709   0.451  15.139  0.00  0.00     0.112 H 
ENDBRANCH   5  10
BRANCH   4  21
ATOM     21  O2  UA3 d          40.234  -0.990  12.044  0.00  0.00    -0.388 OA
ATOM     22  H10 UA3 d          40.633  -1.158  12.889  0.00  0.00     0.210 HD
ENDBRANCH   4  21
BRANCH   1  23
ATOM     23  C5  UA3 d          38.390  -3.611  14.457  0.00  0.00     0.043 C 
ATOM     24  H5  UA3 d          39.301  -4.030  14.004  0.00  0.00     0.078 H 
ATOM     25  H6  UA3 d          38.599  -3.319  15.496  0.00  0.00     0.078 H 
BRANCH  23  26
ATOM     26  O5  UA3 d          37.316  -4.756  14.497  0.00  0.00    -0.398 OA
ATOM     27  H4  UA3 d          37.496  -5.333  15.230  0.00  0.00     0.209 HD
ENDBRANCH  23  26
ENDBRANCH   1  23
BRANCH   3  28
ATOM     28  O3  UA3 d          36.900  -2.929  11.418  0.00  0.00    -0.272 OA
BRANCH  28  29
ATOM     29  P   UA3 d          35.435  -3.210  11.634  0.00  0.00     0.422 P 
ATOM     30  O3P UA3 d          35.191  -3.026  13.208  0.00  0.00    -0.617 OA
ATOM     31  O1P UA3 d          35.125  -4.593  11.142  0.00  0.00    -0.617 OA
ATOM     32  O2P UA3 d          34.621  -2.180  10.896  0.00  0.00    -0.617 OA
ENDBRANCH  28  29
ENDBRANCH   3  28
TORSDOF 6
ENDMDL
MODEL 4
REMARK VINA RESULT:      -4.7      3.207      6.806
REMARK  6 active torsions:
REMARK  status: ('A' for Active; 'I' for Inactive)
REMARK    1  A    between atoms: C1_17  and  N1_1 
REMARK    2  A    between atoms: C5_10  and  O5_9 
REMARK    3  A    between atoms: C4_11  and  C5_10 
REMARK    4  A    between atoms: C3_13  and  O3_14 
REMARK    5  A    between atoms: O3_14  and  P_19 
REMARK    6  A    between atoms: C2_15  and  O2_16 
ROOT
ATOM      1  C4  UA3 d          36.829  -2.173  11.478  0.00  0.00     0.089 C 
ATOM      2  O4  UA3 d          36.583  -0.797  11.204  0.00  0.00    -0.353 OA
ATOM      3  C3  UA3 d          37.757  -2.754  12.313  0.00  0.00     0.107 C 
ATOM      4  C2  UA3 d          37.989  -1.247  13.160  0.00  0.00     0.106 C 
ATOM      5  C1  UA3 d          37.917  -0.250  11.802  0.00  0.00     0.141 C 
ATOM      6  H7  UA3 d          37.469  -2.298  10.593  0.00  0.00     0.090 H 
ATOM      7  H8  UA3 d          37.208  -3.484  12.925  0.00  0.00     0.092 H 
ATOM      8  H9  UA3 d          39.007  -1.173  13.571  0.00  0.00     0.093 H 
ATOM      9  H11 UA3 d          38.764  -0.331  11.105  0.00  0.00     0.123 H 
ENDROOT
BRANCH   5  10
ATOM     10  N1  UA3 d          37.824   1.026  12.378  0.00  0.00    -0.280 N 
ATOM     11  C2  UA3 d          39.057   1.691  12.642  0.00  0.00     0.331 A 
ATOM     12  O2  UA3 d          40.100   1.210  12.376  0.00  0.00    -0.246 OA
ATOM     13  N3  UA3 d          38.890   2.950  13.234  0.00  0.00    -0.275 N 
ATOM     14  C4  UA3 d          37.682   3.593  13.585  0.00  0.00     0.250 A 
ATOM     15  H1  UA3 d          39.730   3.456  13.434  0.00  0.00     0.173 HD
ATOM     16  O4  UA3 d          37.745   4.690  14.094  0.00  0.00    -0.268 OA
ATOM     17  C5  UA3 d          36.477   2.836  13.285  0.00  0.00    -0.002 A 
ATOM     18  C6  UA3 d          36.570   1.622  12.713  0.00  0.00    -0.008 A 
ATOM     19  H2  UA3 d          35.500   3.251  13.524  0.00  0.00     0.094 H 
ATOM     20  H3  UA3 d          35.655   1.073  12.497  0.00  0.00     0.112 H 
ENDBRANCH   5  10
BRANCH   4  21
ATOM     21  O2  UA3 d          36.991  -1.190  14.465  0.00  0.00    -0.388 OA
ATOM     22  H10 UA3 d          36.115  -1.446  14.203  0.00  0.00     0.210 HD
ENDBRANCH   4  21
BRANCH   1  23
ATOM     23  C5  UA3 d          35.849  -2.978  11.060  0.00  0.00     0.043 C 
ATOM     24  H5  UA3 d          36.154  -3.387  10.086  0.00  0.00     0.078 H 
ATOM     25  H6  UA3 d          35.762  -3.795  11.791  0.00  0.00     0.078 H 
BRANCH  23  26
ATOM     26  O5  UA3 d          34.418  -2.355  10.881  0.00  0.00    -0.398 OA
ATOM     27  H4  UA3 d          34.495  -1.417  10.750  0.00  0.00     0.209 HD
ENDBRANCH  23  26
ENDBRANCH   1  23
BRANCH   3  28
ATOM     28  O3  UA3 d          39.115  -3.440  12.079  0.00  0.00    -0.272 OA
BRANCH  28  29
ATOM     29  P   UA3 d          39.710  -4.694  12.666  0.00  0.00     0.422 P 
ATOM     30  O3P UA3 d          39.966  -4.363  14.213  0.00  0.00    -0.617 OA
ATOM     31  O1P UA3 d          40.964  -5.037  11.917  0.00  0.00    -0.617 OA
ATOM     32  O2P UA3 d          38.704  -5.810  12.572  0.00  0.00    -0.617 OA
ENDBRANCH  28  29
ENDBRANCH   3  28
TORSDOF 6
ENDMDL
MODEL 5
REMARK VINA RESULT:      -4.7      1.895      3.282
REMARK  6 active torsions:
REMARK  status: ('A' for Active; 'I' for Inactive)
REMARK    1  A    between atoms: C1_17  and  N1_1 
REMARK    2  A    between atoms: C5_10  and  O5_9 
REMARK    3  A    between atoms: C4_11  and  C5_10 
REMARK    4  A    between atoms: C3_13  and  O3_14 
REMARK    5  A    between atoms: O3_14  and  P_19 
REMARK    6  A    between atoms: C2_15  and  O2_16 
ROOT
ATOM      1  C4  UA3 d          37.106   1.678  13.198  0.00  0.00     0.089 C 
ATOM      2  O4  UA3 d          36.548   0.489  13.748  0.00  0.00    -0.353 OA
ATOM      3  C3  UA3 d          38.176   1.839  12.347  0.00  0.00     0.107 C 
ATOM      4  C2  UA3 d          38.106   0.158  11.886  0.00  0.00     0.106 C 
ATOM      5  C1  UA3 d          37.753  -0.446  13.420  0.00  0.00     0.141 C 
ATOM      6  H7  UA3 d          37.716   1.878  14.090  0.00  0.00     0.090 H 
ATOM      7  H8  UA3 d          37.832   2.498  11.537  0.00  0.00     0.092 H 
ATOM      8  H9  UA3 d          39.100  -0.218  11.602  0.00  0.00     0.093 H 
ATOM      9  H11 UA3 d          38.565  -0.376  14.160  0.00  0.00     0.123 H 
ENDROOT
BRANCH   5  10
ATOM     10  N1  UA3 d          37.406  -1.777  13.139  0.00  0.00    -0.280 N 
ATOM     11  C2  UA3 d          38.459  -2.735  13.220  0.00  0.00     0.331 A 
ATOM     12  O2  UA3 d          39.558  -2.437  13.525  0.00  0.00    -0.246 OA
ATOM     13  N3  UA3 d          38.045  -4.037  12.908  0.00  0.00    -0.275 N 
ATOM     14  C4  UA3 d          36.755  -4.474  12.534  0.00  0.00     0.250 A 
ATOM     15  H1  UA3 d          38.751  -4.745  12.957  0.00  0.00     0.173 HD
ATOM     16  O4  UA3 d          36.596  -5.652  12.301  0.00  0.00    -0.268 OA
ATOM     17  C5  UA3 d          35.749  -3.426  12.471  0.00  0.00    -0.002 A 
ATOM     18  C6  UA3 d          36.081  -2.156  12.762  0.00  0.00    -0.008 A 
ATOM     19  H2  UA3 d          34.726  -3.670  12.187  0.00  0.00     0.094 H 
ATOM     20  H3  UA3 d          35.312  -1.387  12.708  0.00  0.00     0.112 H 
ENDBRANCH   5  10
BRANCH   4  21
ATOM     21  O2  UA3 d          37.182  -0.004  10.538  0.00  0.00    -0.388 OA
ATOM     22  H10 UA3 d          37.744  -0.148   9.785  0.00  0.00     0.210 HD
ENDBRANCH   4  21
BRANCH   1  23
ATOM     23  C5  UA3 d          36.311   2.743  13.328  0.00  0.00     0.043 C 
ATOM     24  H5  UA3 d          35.281   2.373  13.442  0.00  0.00     0.078 H 
ATOM     25  H6  UA3 d          36.615   3.270  14.244  0.00  0.00     0.078 H 
BRANCH  23  26
ATOM     26  O5  UA3 d          36.303   3.797  12.162  0.00  0.00    -0.398 OA
ATOM     27  H4  UA3 d          37.195   3.956  11.874  0.00  0.00     0.209 HD
ENDBRANCH  23  26
ENDBRANCH   1  23
BRANCH   3  28
ATOM     28  O3  UA3 d          39.641   2.269  12.551  0.00  0.00    -0.272 OA
BRANCH  28  29
ATOM     29  P   UA3 d          40.355   3.556  12.226  0.00  0.00     0.422 P 
ATOM     30  O3P UA3 d          39.213   4.566  11.731  0.00  0.00    -0.617 OA
ATOM     31  O1P UA3 d          41.400   3.284  11.185  0.00  0.00    -0.617 OA
ATOM     32  O2P UA3 d          40.975   4.107  13.482  0.00  0.00    -0.617 OA
ENDBRANCH  28  29
ENDBRANCH   3  28
TORSDOF 6
ENDMDL
MODEL 6
REMARK VINA RESULT:      -4.5      2.632      4.020
REMARK  6 active torsions:
REMARK  status: ('A' for Active; 'I' for Inactive)
REMARK    1  A    between atoms: C1_17  and  N1_1 
REMARK    2  A    between atoms: C5_10  and  O5_9 
REMARK    3  A    between atoms: C4_11  and  C5_10 
REMARK    4  A    between atoms: C3_13  and  O3_14 
REMARK    5  A    between atoms: O3_14  and  P_19 
REMARK    6  A    between atoms: C2_15  and  O2_16 
ROOT
ATOM      1  C4  UA3 d          37.413   0.550  12.925  0.00  0.00     0.089 C 
ATOM      2  O4  UA3 d          37.430  -0.800  13.377  0.00  0.00    -0.353 OA
ATOM      3  C3  UA3 d          38.452   1.360  12.528  0.00  0.00     0.107 C 
ATOM      4  C2  UA3 d          39.490  -0.024  12.301  0.00  0.00     0.106 C 
ATOM      5  C1  UA3 d          38.963  -0.881  13.654  0.00  0.00     0.141 C 
ATOM      6  H7  UA3 d          37.417   0.956  13.947  0.00  0.00     0.090 H 
ATOM      7  H8  UA3 d          38.150   1.804  11.568  0.00  0.00     0.092 H 
ATOM      8  H9  UA3 d          40.545   0.239  12.465  0.00  0.00     0.093 H 
ATOM      9  H11 UA3 d          39.246  -0.456  14.629  0.00  0.00     0.123 H 
ENDROOT
BRANCH   5  10
ATOM     10  N1  UA3 d          39.534  -2.146  13.441  0.00  0.00    -0.280 N 
ATOM     11  C2  UA3 d          40.839  -2.348  13.979  0.00  0.00     0.331 A 
ATOM     12  O2  UA3 d          41.405  -1.511  14.586  0.00  0.00    -0.246 OA
ATOM     13  N3  UA3 d          41.354  -3.624  13.712  0.00  0.00    -0.275 N 
ATOM     14  C4  UA3 d          40.743  -4.676  12.993  0.00  0.00     0.250 A 
ATOM     15  H1  UA3 d          42.267  -3.813  14.075  0.00  0.00     0.173 HD
ATOM     16  O4  UA3 d          41.356  -5.713  12.868  0.00  0.00    -0.268 OA
ATOM     17  C5  UA3 d          39.418  -4.375  12.477  0.00  0.00    -0.002 A 
ATOM     18  C6  UA3 d          38.866  -3.170  12.702  0.00  0.00    -0.008 A 
ATOM     19  H2  UA3 d          38.872  -5.125  11.907  0.00  0.00     0.094 H 
ATOM     20  H3  UA3 d          37.872  -2.966  12.306  0.00  0.00     0.112 H 
ENDBRANCH   5  10
BRANCH   4  21
ATOM     21  O2  UA3 d          39.407  -0.523  10.738  0.00  0.00    -0.388 OA
ATOM     22  H10 UA3 d          38.538  -0.347  10.396  0.00  0.00     0.210 HD
ENDBRANCH   4  21
BRANCH   1  23
ATOM     23  C5  UA3 d          36.191   0.984  12.604  0.00  0.00     0.043 C 
ATOM     24  H5  UA3 d          36.251   1.414  11.593  0.00  0.00     0.078 H 
ATOM     25  H6  UA3 d          35.525   0.109  12.592  0.00  0.00     0.078 H 
BRANCH  23  26
ATOM     26  O5  UA3 d          35.531   2.064  13.535  0.00  0.00    -0.398 OA
ATOM     27  H4  UA3 d          34.621   2.179  13.288  0.00  0.00     0.209 HD
ENDBRANCH  23  26
ENDBRANCH   1  23
BRANCH   3  28
ATOM     28  O3  UA3 d          39.234   2.498  13.210  0.00  0.00    -0.272 OA
BRANCH  28  29
ATOM     29  P   UA3 d          38.989   3.984  13.258  0.00  0.00     0.422 P 
ATOM     30  O3P UA3 d          37.643   4.170  14.108  0.00  0.00    -0.617 OA
ATOM     31  O1P UA3 d          38.883   4.507  11.855  0.00  0.00    -0.617 OA
ATOM     32  O2P UA3 d          40.121   4.648  13.995  0.00  0.00    -0.617 OA
ENDBRANCH  28  29
ENDBRANCH   3  28
TORSDOF 6
ENDMDL
MODEL 7
REMARK VINA RESULT:      -4.4      1.839      2.355
REMARK  6 active torsions:
REMARK  status: ('A' for Active; 'I' for Inactive)
REMARK    1  A    between atoms: C1_17  and  N1_1 
REMARK    2  A    between atoms: C5_10  and  O5_9 
REMARK    3  A    between atoms: C4_11  and  C5_10 
REMARK    4  A    between atoms: C3_13  and  O3_14 
REMARK    5  A    between atoms: O3_14  and  P_19 
REMARK    6  A    between atoms: C2_15  and  O2_16 
ROOT
ATOM      1  C4  UA3 d          40.148   1.898  12.230  0.00  0.00     0.089 C 
ATOM      2  O4  UA3 d          40.015   0.726  11.432  0.00  0.00    -0.353 OA
ATOM      3  C3  UA3 d          39.593   2.202  13.451  0.00  0.00     0.107 C 
ATOM      4  C2  UA3 d          39.238   0.519  13.747  0.00  0.00     0.106 C 
ATOM      5  C1  UA3 d          38.770   0.143  12.171  0.00  0.00     0.141 C 
ATOM      6  H7  UA3 d          39.364   2.436  11.679  0.00  0.00     0.090 H 
ATOM      7  H8  UA3 d          40.416   2.561  14.086  0.00  0.00     0.092 H 
ATOM      8  H9  UA3 d          38.353   0.406  14.391  0.00  0.00     0.093 H 
ATOM      9  H11 UA3 d          37.823   0.590  11.834  0.00  0.00     0.123 H 
ENDROOT
BRANCH   5  10
ATOM     10  N1  UA3 d          38.710  -1.259  12.209  0.00  0.00    -0.280 N 
ATOM     11  C2  UA3 d          37.416  -1.831  12.380  0.00  0.00     0.331 A 
ATOM     12  O2  UA3 d          36.443  -1.171  12.467  0.00  0.00    -0.246 OA
ATOM     13  N3  UA3 d          37.434  -3.232  12.429  0.00  0.00    -0.275 N 
ATOM     14  C4  UA3 d          38.552  -4.092  12.336  0.00  0.00     0.250 A 
ATOM     15  H1  UA3 d          36.546  -3.678  12.544  0.00  0.00     0.173 HD
ATOM     16  O4  UA3 d          38.361  -5.286  12.401  0.00  0.00    -0.268 OA
ATOM     17  C5  UA3 d          39.829  -3.418  12.170  0.00  0.00    -0.002 A 
ATOM     18  C6  UA3 d          39.879  -2.075  12.112  0.00  0.00    -0.008 A 
ATOM     19  H2  UA3 d          40.746  -4.000  12.092  0.00  0.00     0.094 H 
ATOM     20  H3  UA3 d          40.846  -1.591  11.987  0.00  0.00     0.112 H 
ENDBRANCH   5  10
BRANCH   4  21
ATOM     21  O2  UA3 d          40.474  -0.165  14.586  0.00  0.00    -0.388 OA
ATOM     22  H10 UA3 d          40.503  -1.096  14.402  0.00  0.00     0.210 HD
ENDBRANCH   4  21
BRANCH   1  23
ATOM     23  C5  UA3 d          41.157   2.685  11.846  0.00  0.00     0.043 C 
ATOM     24  H5  UA3 d          42.080   2.267  12.275  0.00  0.00     0.078 H 
ATOM     25  H6  UA3 d          41.209   2.639  10.749  0.00  0.00     0.078 H 
BRANCH  23  26
ATOM     26  O5  UA3 d          41.095   4.201  12.251  0.00  0.00    -0.398 OA
ATOM     27  H4  UA3 d          41.873   4.428  12.747  0.00  0.00     0.209 HD
ENDBRANCH  23  26
ENDBRANCH   1  23
BRANCH   3  28
ATOM     28  O3  UA3 d          38.403   3.075  13.890  0.00  0.00    -0.272 OA
BRANCH  28  29
ATOM     29  P   UA3 d          37.320   3.754  13.092  0.00  0.00     0.422 P 
ATOM     30  O3P UA3 d          38.086   4.689  12.039  0.00  0.00    -0.617 OA
ATOM     31  O1P UA3 d          36.430   4.519  14.028  0.00  0.00    -0.617 OA
ATOM     32  O2P UA3 d          36.538   2.714  12.335  0.00  0.00    -0.617 OA
ENDBRANCH  28  29
ENDBRANCH   3  28
TORSDOF 6
ENDMDL
MODEL 8
REMARK VINA RESULT:      -3.9      2.702      4.072
REMARK  6 active torsions:
REMARK  status: ('A' for Active; 'I' for Inactive)
REMARK    1  A    between atoms: C1_17  and  N1_1 
REMARK    2  A    between atoms: C5_10  and  O5_9 
REMARK    3  A    between atoms: C4_11  and  C5_10 
REMARK    4  A    between atoms: C3_13  and  O3_14 
REMARK    5  A    between atoms: O3_14  and  P_19 
REMARK    6  A    between atoms: C2_15  and  O2_16 
ROOT
ATOM      1  C4  UA3 d          36.445  -0.885  12.042  0.00  0.00     0.089 C 
ATOM      2  O4  UA3 d          36.663  -2.205  12.529  0.00  0.00    -0.353 OA
ATOM      3  C3  UA3 d          37.217   0.246  12.181  0.00  0.00     0.107 C 
ATOM      4  C2  UA3 d          38.607  -0.715  12.616  0.00  0.00     0.106 C 
ATOM      5  C1  UA3 d          37.775  -1.838  13.560  0.00  0.00     0.141 C 
ATOM      6  H7  UA3 d          35.799  -0.614  12.889  0.00  0.00     0.090 H 
ATOM      7  H8  UA3 d          37.319   0.677  11.175  0.00  0.00     0.092 H 
ATOM      8  H9  UA3 d          39.283  -0.159  13.282  0.00  0.00     0.093 H 
ATOM      9  H11 UA3 d          37.370  -1.457  14.510  0.00  0.00     0.123 H 
ENDROOT
BRANCH   5  10
ATOM     10  N1  UA3 d          38.746  -2.832  13.759  0.00  0.00    -0.280 N 
ATOM     11  C2  UA3 d          38.259  -4.147  14.018  0.00  0.00     0.331 A 
ATOM     12  O2  UA3 d          37.108  -4.397  14.046  0.00  0.00    -0.246 OA
ATOM     13  N3  UA3 d          39.282  -5.082  14.227  0.00  0.00    -0.275 N 
ATOM     14  C4  UA3 d          40.678  -4.863  14.212  0.00  0.00     0.250 A 
ATOM     15  H1  UA3 d          38.987  -6.021  14.408  0.00  0.00     0.173 HD
ATOM     16  O4  UA3 d          41.406  -5.809  14.417  0.00  0.00    -0.268 OA
ATOM     17  C5  UA3 d          41.079  -3.491  13.947  0.00  0.00    -0.002 A 
ATOM     18  C6  UA3 d          40.145  -2.546  13.735  0.00  0.00    -0.008 A 
ATOM     19  H2  UA3 d          42.135  -3.228  13.920  0.00  0.00     0.094 H 
ATOM     20  H3  UA3 d          40.468  -1.525  13.539  0.00  0.00     0.112 H 
ENDBRANCH   5  10
BRANCH   4  21
ATOM     21  O2  UA3 d          39.494  -1.039  11.271  0.00  0.00    -0.388 OA
ATOM     22  H10 UA3 d          38.935  -1.433  10.612  0.00  0.00     0.210 HD
ENDBRANCH   4  21
BRANCH   1  23
ATOM     23  C5  UA3 d          35.492  -0.818  11.109  0.00  0.00     0.043 C 
ATOM     24  H5  UA3 d          34.749  -0.082  11.451  0.00  0.00     0.078 H 
ATOM     25  H6  UA3 d          35.964  -0.460  10.182  0.00  0.00     0.078 H 
BRANCH  23  26
ATOM     26  O5  UA3 d          34.716  -2.139  10.759  0.00  0.00    -0.398 OA
ATOM     27  H4  UA3 d          34.461  -2.123   9.844  0.00  0.00     0.209 HD
ENDBRANCH  23  26
ENDBRANCH   1  23
BRANCH   3  28
ATOM     28  O3  UA3 d          37.130   1.486  13.089  0.00  0.00    -0.272 OA
BRANCH  28  29
ATOM     29  P   UA3 d          37.700   2.873  12.935  0.00  0.00     0.422 P 
ATOM     30  O3P UA3 d          36.594   3.703  12.123  0.00  0.00    -0.617 OA
ATOM     31  O1P UA3 d          39.017   2.784  12.223  0.00  0.00    -0.617 OA
ATOM     32  O2P UA3 d          37.865   3.493  14.297  0.00  0.00    -0.617 OA
ENDBRANCH  28  29
ENDBRANCH   3  28
TORSDOF 6
ENDMDL
MODEL 9
REMARK VINA RESULT:      -3.8      2.502      3.521
REMARK  6 active torsions:
REMARK  status: ('A' for Active; 'I' for Inactive)
REMARK    1  A    between atoms: C1_17  and  N1_1 
REMARK    2  A    between atoms: C5_10  and  O5_9 
REMARK    3  A    between atoms: C4_11  and  C5_10 
REMARK    4  A    between atoms: C3_13  and  O3_14 
REMARK    5  A    between atoms: O3_14  and  P_19 
REMARK    6  A    between atoms: C2_15  and  O2_16 
ROOT
ATOM      1  C4  UA3 d          37.313   0.529  12.948  0.00  0.00     0.089 C 
ATOM      2  O4  UA3 d          37.377  -0.830  13.367  0.00  0.00    -0.353 OA
ATOM      3  C3  UA3 d          38.325   1.392  12.594  0.00  0.00     0.107 C 
ATOM      4  C2  UA3 d          39.424   0.058  12.355  0.00  0.00     0.106 C 
ATOM      5  C1  UA3 d          38.906  -0.855  13.675  0.00  0.00     0.141 C 
ATOM      6  H7  UA3 d          37.278   0.909  13.980  0.00  0.00     0.090 H 
ATOM      7  H8  UA3 d          38.024   1.847  11.639  0.00  0.00     0.092 H 
ATOM      8  H9  UA3 d          40.464   0.359  12.549  0.00  0.00     0.093 H 
ATOM      9  H11 UA3 d          39.151  -0.444  14.666  0.00  0.00     0.123 H 
ENDROOT
BRANCH   5  10
ATOM     10  N1  UA3 d          39.534  -2.089  13.443  0.00  0.00    -0.280 N 
ATOM     11  C2  UA3 d          38.826  -3.012  12.618  0.00  0.00     0.331 A 
ATOM     12  O2  UA3 d          37.782  -2.753  12.137  0.00  0.00    -0.246 OA
ATOM     13  N3  UA3 d          39.502  -4.228  12.446  0.00  0.00    -0.275 N 
ATOM     14  C4  UA3 d          40.748  -4.616  12.988  0.00  0.00     0.250 A 
ATOM     15  H1  UA3 d          39.044  -4.906  11.869  0.00  0.00     0.173 HD
ATOM     16  O4  UA3 d          41.167  -5.720  12.722  0.00  0.00    -0.268 OA
ATOM     17  C5  UA3 d          41.390  -3.613  13.822  0.00  0.00    -0.002 A 
ATOM     18  C6  UA3 d          40.795  -2.424  14.023  0.00  0.00    -0.008 A 
ATOM     19  H2  UA3 d          42.352  -3.825  14.284  0.00  0.00     0.094 H 
ATOM     20  H3  UA3 d          41.294  -1.688  14.652  0.00  0.00     0.112 H 
ENDBRANCH   5  10
BRANCH   4  21
ATOM     21  O2  UA3 d          39.394  -0.404  10.778  0.00  0.00    -0.388 OA
ATOM     22  H10 UA3 d          40.099   0.028  10.310  0.00  0.00     0.210 HD
ENDBRANCH   4  21
BRANCH   1  23
ATOM     23  C5  UA3 d          36.081   0.921  12.612  0.00  0.00     0.043 C 
ATOM     24  H5  UA3 d          36.123   1.277  11.572  0.00  0.00     0.078 H 
ATOM     25  H6  UA3 d          35.429   0.037  12.670  0.00  0.00     0.078 H 
BRANCH  23  26
ATOM     26  O5  UA3 d          35.414   2.054  13.471  0.00  0.00    -0.398 OA
ATOM     27  H4  UA3 d          35.422   2.868  12.981  0.00  0.00     0.209 HD
ENDBRANCH  23  26
ENDBRANCH   1  23
BRANCH   3  28
ATOM     28  O3  UA3 d          39.044   2.542  13.321  0.00  0.00    -0.272 OA
BRANCH  28  29
ATOM     29  P   UA3 d          38.774   4.025  13.348  0.00  0.00     0.422 P 
ATOM     30  O3P UA3 d          39.986   4.666  14.180  0.00  0.00    -0.617 OA
ATOM     31  O1P UA3 d          37.432   4.266  13.974  0.00  0.00    -0.617 OA
ATOM     32  O2P UA3 d          38.818   4.561  11.942  0.00  0.00    -0.617 OA
ENDBRANCH  28  29
ENDBRANCH   3  28
TORSDOF 6
ENDMDL
