MODEL 1
REMARK VINA RESULT:      -9.4      0.000      0.000
REMARK  4 active torsions:
REMARK  status: ('A' for Active; 'I' for Inactive)
REMARK    1  A    between atoms: CAS_21  and  CAD_10 
REMARK    2  A    between atoms: NAQ_19  and  CAT_22 
REMARK    3  A    between atoms: CAV_24  and  NAQ_19 
REMARK    4  A    between atoms: CAR_20  and  CAU_23 
ROOT
ATOM      1  CAA E1B d          22.603 -34.108  12.527  0.00  0.00    -0.149 C 
ATOM      2  CAD E1B d          22.671 -32.931  12.290  0.00  0.00    -0.078 C 
ATOM      3  H3  E1B d          22.543 -35.142  12.735  0.00  0.00     0.166 H 
ENDROOT
BRANCH   2   4
ATOM      4  CAS E1B d          22.757 -31.480  12.000  0.00  0.00     0.019 A 
ATOM      5  CAG E1B d          23.105 -30.995  10.750  0.00  0.00    -0.065 A 
ATOM      6  CAE E1B d          23.167 -29.628  10.537  0.00  0.00    -0.079 A 
ATOM      7  H5  E1B d          23.327 -31.683   9.942  0.00  0.00     0.085 H 
ATOM      8  CAH E1B d          22.900 -28.738  11.567  0.00  0.00    -0.057 A 
ATOM      9  H4  E1B d          23.428 -29.250   9.555  0.00  0.00     0.083 H 
ATOM     10  CAT E1B d          22.565 -29.242  12.808  0.00  0.00     0.035 A 
ATOM     11  H6  E1B d          22.953 -27.668  11.399  0.00  0.00     0.086 H 
ATOM     12  CAL E1B d          22.495 -30.603  13.025  0.00  0.00    -0.039 A 
ATOM     13  H9  E1B d          22.232 -30.982  14.007  0.00  0.00     0.089 H 
BRANCH  10  14
ATOM     14  NAQ E1B d          22.279 -28.449  13.937  0.00  0.00    -0.339 N 
ATOM     15  H11 E1B d          21.872 -27.570  13.587  0.00  0.00     0.167 HD
BRANCH  14  16
ATOM     16  CAV E1B d          22.313 -28.348  15.345  0.00  0.00     0.158 A 
ATOM     17  C4  E1B d          22.338 -27.119  16.079  0.00  0.00     0.116 A 
ATOM     18  N3  E1B d          22.304 -25.882  15.458  0.00  0.00    -0.237 NA
ATOM     19  C5  E1B d          22.406 -27.188  17.458  0.00  0.00     0.027 A 
ATOM     20  C2  E1B d          22.334 -24.748  16.181  0.00  0.00     0.087 A 
ATOM     21  N1  E1B d          22.405 -24.779  17.534  0.00  0.00    -0.253 NA
ATOM     22  H1  E1B d          22.302 -23.792  15.672  0.00  0.00     0.146 H 
ATOM     23  C6  E1B d          22.437 -25.962  18.194  0.00  0.00     0.017 A 
ATOM     24  H2  E1B d          22.486 -25.980  19.277  0.00  0.00     0.116 H 
ATOM     25  CAY E1B d          22.447 -28.524  18.086  0.00  0.00     0.007 A 
ATOM     26  CAJ E1B d          22.506 -28.650  19.504  0.00  0.00    -0.069 A 
ATOM     27  CAW E1B d          22.400 -29.666  17.315  0.00  0.00     0.071 A 
ATOM     28  CAI E1B d          22.538 -29.930  20.069  0.00  0.00    -0.066 A 
ATOM     29  H8  E1B d          22.526 -27.768  20.135  0.00  0.00     0.085 H 
ATOM     30  CAU E1B d          22.490 -31.094  19.275  0.00  0.00     0.043 A 
ATOM     31  H7  E1B d          22.601 -30.029  21.146  0.00  0.00     0.085 H 
ATOM     32  CAM E1B d          22.430 -30.972  17.888  0.00  0.00    -0.038 A 
ATOM     33  H10 E1B d          22.406 -31.852  17.257  0.00  0.00     0.088 H 
ATOM     34  NAP E1B d          22.335 -29.539  15.949  0.00  0.00    -0.228 NA
BRANCH  30  35
ATOM     35  CAR E1B d          22.540 -32.450  19.907  0.00  0.00     0.209 C 
ATOM     36  OAB E1B d          21.526 -33.128  19.598  0.00  0.00    -0.644 OA
ATOM     37  OAC E1B d          23.631 -32.600  20.509  0.00  0.00    -0.644 OA
ENDBRANCH  30  35
ENDBRANCH  14  16
ENDBRANCH  10  14
ENDBRANCH   2   4
TORSDOF 4
ENDMDL
MODEL 2
REMARK VINA RESULT:      -9.0      3.530      8.037
REMARK  4 active torsions:
REMARK  status: ('A' for Active; 'I' for Inactive)
REMARK    1  A    between atoms: CAS_21  and  CAD_10 
REMARK    2  A    between atoms: NAQ_19  and  CAT_22 
REMARK    3  A    between atoms: CAV_24  and  NAQ_19 
REMARK    4  A    between atoms: CAR_20  and  CAU_23 
ROOT
ATOM      1  CAA E1B d          22.008 -25.381  18.258  0.00  0.00    -0.149 C 
ATOM      2  CAD E1B d          22.148 -26.535  18.565  0.00  0.00    -0.078 C 
ATOM      3  H3  E1B d          21.885 -24.367  17.989  0.00  0.00     0.166 H 
ENDROOT
BRANCH   2   4
ATOM      4  CAS E1B d          22.318 -27.958  18.944  0.00  0.00     0.019 A 
ATOM      5  CAG E1B d          22.546 -28.352  20.253  0.00  0.00    -0.065 A 
ATOM      6  CAE E1B d          22.694 -29.697  20.548  0.00  0.00    -0.079 A 
ATOM      7  H5  E1B d          22.608 -27.611  21.042  0.00  0.00     0.085 H 
ATOM      8  CAH E1B d          22.632 -30.654  19.546  0.00  0.00    -0.057 A 
ATOM      9  H4  E1B d          22.861 -30.005  21.574  0.00  0.00     0.083 H 
ATOM     10  CAT E1B d          22.414 -30.239  18.247  0.00  0.00     0.035 A 
ATOM     11  H6  E1B d          22.752 -31.706  19.779  0.00  0.00     0.086 H 
ATOM     12  CAL E1B d          22.258 -28.901  17.946  0.00  0.00    -0.039 A 
ATOM     13  H9  E1B d          22.089 -28.592  16.921  0.00  0.00     0.089 H 
BRANCH  10  14
ATOM     14  NAQ E1B d          22.337 -31.105  17.138  0.00  0.00    -0.339 N 
ATOM     15  H11 E1B d          22.097 -32.037  17.506  0.00  0.00     0.167 HD
BRANCH  14  16
ATOM     16  CAV E1B d          22.449 -31.238  15.737  0.00  0.00     0.158 A 
ATOM     17  C4  E1B d          22.450 -32.482  15.028  0.00  0.00     0.116 A 
ATOM     18  N3  E1B d          22.312 -33.701  15.669  0.00  0.00    -0.237 NA
ATOM     19  C5  E1B d          22.604 -32.446  13.654  0.00  0.00     0.027 A 
ATOM     20  C2  E1B d          22.323 -34.851  14.969  0.00  0.00     0.087 A 
ATOM     21  N1  E1B d          22.475 -34.853  13.623  0.00  0.00    -0.253 NA
ATOM     22  H1  E1B d          22.208 -35.793  15.492  0.00  0.00     0.146 H 
ATOM     23  C6  E1B d          22.611 -33.687  12.944  0.00  0.00     0.017 A 
ATOM     24  H2  E1B d          22.724 -33.695  11.866  0.00  0.00     0.116 H 
ATOM     25  CAY E1B d          22.754 -31.128  13.006  0.00  0.00     0.007 A 
ATOM     26  CAJ E1B d          22.903 -31.036  11.592  0.00  0.00    -0.069 A 
ATOM     27  CAW E1B d          22.724 -29.969  13.752  0.00  0.00     0.071 A 
ATOM     28  CAI E1B d          23.038 -29.771  11.007  0.00  0.00    -0.066 A 
ATOM     29  H8  E1B d          22.913 -31.930  10.980  0.00  0.00     0.085 H 
ATOM     30  CAU E1B d          23.007 -28.590  11.776  0.00  0.00     0.043 A 
ATOM     31  H7  E1B d          23.170 -29.698   9.934  0.00  0.00     0.085 H 
ATOM     32  CAM E1B d          22.859 -28.679  13.159  0.00  0.00    -0.038 A 
ATOM     33  H10 E1B d          22.846 -27.785  13.772  0.00  0.00     0.088 H 
ATOM     34  NAP E1B d          22.572 -30.063  15.114  0.00  0.00    -0.228 NA
BRANCH  30  35
ATOM     35  CAR E1B d          23.168 -27.252  11.124  0.00  0.00     0.209 C 
ATOM     36  OAB E1B d          23.837 -27.347  10.062  0.00  0.00    -0.644 OA
ATOM     37  OAC E1B d          22.512 -26.388  11.755  0.00  0.00    -0.644 OA
ENDBRANCH  30  35
ENDBRANCH  14  16
ENDBRANCH  10  14
ENDBRANCH   2   4
TORSDOF 4
ENDMDL
MODEL 3
REMARK VINA RESULT:      -8.8      3.358      5.281
REMARK  4 active torsions:
REMARK  status: ('A' for Active; 'I' for Inactive)
REMARK    1  A    between atoms: CAS_21  and  CAD_10 
REMARK    2  A    between atoms: NAQ_19  and  CAT_22 
REMARK    3  A    between atoms: CAV_24  and  NAQ_19 
REMARK    4  A    between atoms: CAR_20  and  CAU_23 
ROOT
ATOM      1  CAA E1B d          22.972 -31.071  10.171  0.00  0.00    -0.149 C 
ATOM      2  CAD E1B d          22.844 -31.719  11.176  0.00  0.00    -0.078 C 
ATOM      3  H3  E1B d          23.084 -30.502   9.288  0.00  0.00     0.166 H 
ENDROOT
BRANCH   2   4
ATOM      4  CAS E1B d          22.684 -32.519  12.414  0.00  0.00     0.019 A 
ATOM      5  CAG E1B d          22.630 -33.903  12.398  0.00  0.00    -0.065 A 
ATOM      6  CAE E1B d          22.481 -34.597  13.587  0.00  0.00    -0.079 A 
ATOM      7  H5  E1B d          22.704 -34.440  11.459  0.00  0.00     0.085 H 
ATOM      8  CAH E1B d          22.371 -33.922  14.793  0.00  0.00    -0.057 A 
ATOM      9  H4  E1B d          22.451 -35.681  13.575  0.00  0.00     0.083 H 
ATOM     10  CAT E1B d          22.416 -32.541  14.786  0.00  0.00     0.035 A 
ATOM     11  H6  E1B d          22.251 -34.466  15.723  0.00  0.00     0.086 H 
ATOM     12  CAL E1B d          22.571 -31.843  13.605  0.00  0.00    -0.039 A 
ATOM     13  H9  E1B d          22.604 -30.759  13.618  0.00  0.00     0.089 H 
BRANCH  10  14
ATOM     14  NAQ E1B d          22.309 -31.736  15.937  0.00  0.00    -0.339 N 
ATOM     15  H11 E1B d          22.041 -32.360  16.712  0.00  0.00     0.167 HD
BRANCH  14  16
ATOM     16  CAV E1B d          22.412 -30.437  16.480  0.00  0.00     0.158 A 
ATOM     17  C4  E1B d          22.434 -30.130  17.878  0.00  0.00     0.116 A 
ATOM     18  N3  E1B d          22.380 -31.112  18.854  0.00  0.00    -0.237 NA
ATOM     19  C5  E1B d          22.504 -28.801  18.251  0.00  0.00     0.027 A 
ATOM     20  C2  E1B d          22.398 -30.785  20.159  0.00  0.00     0.087 A 
ATOM     21  N1  E1B d          22.462 -29.493  20.560  0.00  0.00    -0.253 NA
ATOM     22  H1  E1B d          22.360 -31.571  20.904  0.00  0.00     0.146 H 
ATOM     23  C6  E1B d          22.521 -28.492  19.647  0.00  0.00     0.017 A 
ATOM     24  H2  E1B d          22.580 -27.460  19.974  0.00  0.00     0.116 H 
ATOM     25  CAY E1B d          22.554 -27.782  17.183  0.00  0.00     0.007 A 
ATOM     26  CAJ E1B d          22.638 -26.399  17.514  0.00  0.00    -0.069 A 
ATOM     27  CAW E1B d          22.548 -28.152  15.856  0.00  0.00     0.071 A 
ATOM     28  CAI E1B d          22.689 -25.458  16.479  0.00  0.00    -0.066 A 
ATOM     29  H8  E1B d          22.662 -26.081  18.551  0.00  0.00     0.085 H 
ATOM     30  CAU E1B d          22.683 -25.843  15.123  0.00  0.00     0.043 A 
ATOM     31  H7  E1B d          22.735 -24.404  16.727  0.00  0.00     0.085 H 
ATOM     32  CAM E1B d          22.602 -27.196  14.799  0.00  0.00    -0.038 A 
ATOM     33  H10 E1B d          22.582 -27.515  13.764  0.00  0.00     0.088 H 
ATOM     34  NAP E1B d          22.474 -29.488  15.542  0.00  0.00    -0.228 NA
BRANCH  30  35
ATOM     35  CAR E1B d          22.724 -24.813  14.038  0.00  0.00     0.209 C 
ATOM     36  OAB E1B d          23.880 -24.719  13.551  0.00  0.00    -0.644 OA
ATOM     37  OAC E1B d          21.568 -24.371  13.826  0.00  0.00    -0.644 OA
ENDBRANCH  30  35
ENDBRANCH  14  16
ENDBRANCH  10  14
ENDBRANCH   2   4
TORSDOF 4
ENDMDL
MODEL 4
REMARK VINA RESULT:      -7.5      1.909      2.826
REMARK  4 active torsions:
REMARK  status: ('A' for Active; 'I' for Inactive)
REMARK    1  A    between atoms: CAS_21  and  CAD_10 
REMARK    2  A    between atoms: NAQ_19  and  CAT_22 
REMARK    3  A    between atoms: CAV_24  and  NAQ_19 
REMARK    4  A    between atoms: CAR_20  and  CAU_23 
ROOT
ATOM      1  CAA E1B d          22.936 -29.619  10.062  0.00  0.00    -0.149 C 
ATOM      2  CAD E1B d          22.970 -28.725  10.865  0.00  0.00    -0.078 C 
ATOM      3  H3  E1B d          22.905 -30.405   9.357  0.00  0.00     0.166 H 
ENDROOT
BRANCH   2   4
ATOM      4  CAS E1B d          23.010 -27.620  11.853  0.00  0.00     0.019 A 
ATOM      5  CAG E1B d          23.620 -26.406  11.581  0.00  0.00    -0.065 A 
ATOM      6  CAE E1B d          23.625 -25.410  12.543  0.00  0.00    -0.079 A 
ATOM      7  H5  E1B d          24.093 -26.238  10.620  0.00  0.00     0.085 H 
ATOM      8  CAH E1B d          23.037 -25.619  13.782  0.00  0.00    -0.057 A 
ATOM      9  H4  E1B d          24.092 -24.457  12.325  0.00  0.00     0.083 H 
ATOM     10  CAT E1B d          22.443 -26.840  14.037  0.00  0.00     0.035 A 
ATOM     11  H6  E1B d          23.044 -24.839  14.536  0.00  0.00     0.086 H 
ATOM     12  CAL E1B d          22.429 -27.835  13.080  0.00  0.00    -0.039 A 
ATOM     13  H9  E1B d          21.960 -28.788  13.297  0.00  0.00     0.089 H 
BRANCH  10  14
ATOM     14  NAQ E1B d          21.819 -27.182  15.253  0.00  0.00    -0.339 N 
ATOM     15  H11 E1B d          20.880 -26.760  15.234  0.00  0.00     0.167 HD
BRANCH  14  16
ATOM     16  CAV E1B d          21.937 -27.858  16.487  0.00  0.00     0.158 A 
ATOM     17  C4  E1B d          21.948 -27.225  17.771  0.00  0.00     0.116 A 
ATOM     18  N3  E1B d          21.815 -25.855  17.925  0.00  0.00    -0.237 NA
ATOM     19  C5  E1B d          22.106 -28.024  18.888  0.00  0.00     0.027 A 
ATOM     20  C2  E1B d          21.836 -25.295  19.148  0.00  0.00     0.087 A 
ATOM     21  N1  E1B d          21.992 -26.048  20.264  0.00  0.00    -0.253 NA
ATOM     22  H1  E1B d          21.725 -24.221  19.243  0.00  0.00     0.146 H 
ATOM     23  C6  E1B d          22.123 -27.394  20.172  0.00  0.00     0.017 A 
ATOM     24  H2  E1B d          22.240 -27.992  21.068  0.00  0.00     0.116 H 
ATOM     25  CAY E1B d          22.250 -29.480  18.686  0.00  0.00     0.007 A 
ATOM     26  CAJ E1B d          22.404 -30.348  19.804  0.00  0.00    -0.069 A 
ATOM     27  CAW E1B d          22.211 -30.021  17.419  0.00  0.00     0.071 A 
ATOM     28  CAI E1B d          22.534 -31.724  19.579  0.00  0.00    -0.066 A 
ATOM     29  H8  E1B d          22.421 -29.951  20.813  0.00  0.00     0.085 H 
ATOM     30  CAU E1B d          22.493 -32.272  18.281  0.00  0.00     0.043 A 
ATOM     31  H7  E1B d          22.669 -32.386  20.427  0.00  0.00     0.085 H 
ATOM     32  CAM E1B d          22.340 -31.423  17.187  0.00  0.00    -0.038 A 
ATOM     33  H10 E1B d          22.319 -31.820  16.179  0.00  0.00     0.088 H 
ATOM     34  NAP E1B d          22.055 -29.180  16.344  0.00  0.00    -0.228 NA
BRANCH  30  35
ATOM     35  CAR E1B d          22.648 -33.746  18.071  0.00  0.00     0.209 C 
ATOM     36  OAB E1B d          22.457 -34.051  16.865  0.00  0.00    -0.644 OA
ATOM     37  OAC E1B d          23.025 -34.291  19.137  0.00  0.00    -0.644 OA
ENDBRANCH  30  35
ENDBRANCH  14  16
ENDBRANCH  10  14
ENDBRANCH   2   4
TORSDOF 4
ENDMDL
MODEL 5
REMARK VINA RESULT:      -6.8      3.587      5.404
REMARK  4 active torsions:
REMARK  status: ('A' for Active; 'I' for Inactive)
REMARK    1  A    between atoms: CAS_21  and  CAD_10 
REMARK    2  A    between atoms: NAQ_19  and  CAT_22 
REMARK    3  A    between atoms: CAV_24  and  NAQ_19 
REMARK    4  A    between atoms: CAR_20  and  CAU_23 
ROOT
ATOM      1  CAA E1B d          22.672 -31.852  10.190  0.00  0.00    -0.149 C 
ATOM      2  CAD E1B d          22.674 -32.279  11.314  0.00  0.00    -0.078 C 
ATOM      3  H3  E1B d          22.671 -31.478   9.203  0.00  0.00     0.166 H 
ENDROOT
BRANCH   2   4
ATOM      4  CAS E1B d          22.674 -32.808  12.700  0.00  0.00     0.019 A 
ATOM      5  CAG E1B d          22.763 -34.163  12.974  0.00  0.00    -0.065 A 
ATOM      6  CAE E1B d          22.760 -34.598  14.289  0.00  0.00    -0.079 A 
ATOM      7  H5  E1B d          22.835 -34.879  12.163  0.00  0.00     0.085 H 
ATOM      8  CAH E1B d          22.654 -33.693  15.335  0.00  0.00    -0.057 A 
ATOM      9  H4  E1B d          22.842 -35.657  14.503  0.00  0.00     0.083 H 
ATOM     10  CAT E1B d          22.556 -32.347  15.039  0.00  0.00     0.035 A 
ATOM     11  H6  E1B d          22.649 -34.035  16.363  0.00  0.00     0.086 H 
ATOM     12  CAL E1B d          22.565 -31.906  13.731  0.00  0.00    -0.039 A 
ATOM     13  H9  E1B d          22.486 -30.846  13.517  0.00  0.00     0.089 H 
BRANCH  10  14
ATOM     14  NAQ E1B d          22.436 -31.328  16.004  0.00  0.00    -0.339 N 
ATOM     15  H11 E1B d          22.198 -31.789  16.894  0.00  0.00     0.167 HD
BRANCH  14  16
ATOM     16  CAV E1B d          22.503 -29.943  16.269  0.00  0.00     0.158 A 
ATOM     17  C4  E1B d          22.465 -29.354  17.574  0.00  0.00     0.116 A 
ATOM     18  N3  E1B d          22.382 -30.113  18.729  0.00  0.00    -0.237 NA
ATOM     19  C5  E1B d          22.506 -27.975  17.665  0.00  0.00     0.027 A 
ATOM     20  C2  E1B d          22.342 -29.524  19.937  0.00  0.00     0.087 A 
ATOM     21  N1  E1B d          22.377 -28.175  20.064  0.00  0.00    -0.253 NA
ATOM     22  H1  E1B d          22.282 -30.139  20.827  0.00  0.00     0.146 H 
ATOM     23  C6  E1B d          22.463 -27.384  18.966  0.00  0.00     0.017 A 
ATOM     24  H2  E1B d          22.498 -26.305  19.074  0.00  0.00     0.116 H 
ATOM     25  CAY E1B d          22.590 -27.197  16.412  0.00  0.00     0.007 A 
ATOM     26  CAJ E1B d          22.646 -25.775  16.452  0.00  0.00    -0.069 A 
ATOM     27  CAW E1B d          22.642 -27.835  15.191  0.00  0.00     0.071 A 
ATOM     28  CAI E1B d          22.730 -25.067  15.247  0.00  0.00    -0.066 A 
ATOM     29  H8  E1B d          22.624 -25.249  17.400  0.00  0.00     0.085 H 
ATOM     30  CAU E1B d          22.783 -25.725  14.001  0.00  0.00     0.043 A 
ATOM     31  H7  E1B d          22.755 -23.984  15.273  0.00  0.00     0.085 H 
ATOM     32  CAM E1B d          22.730 -27.117  13.962  0.00  0.00    -0.038 A 
ATOM     33  H10 E1B d          22.755 -27.643  13.015  0.00  0.00     0.088 H 
ATOM     34  NAP E1B d          22.595 -29.208  15.158  0.00  0.00    -0.228 NA
BRANCH  30  35
ATOM     35  CAR E1B d          22.858 -24.940  12.729  0.00  0.00     0.209 C 
ATOM     36  OAB E1B d          21.710 -24.755  12.246  0.00  0.00    -0.644 OA
ATOM     37  OAC E1B d          24.043 -24.583  12.517  0.00  0.00    -0.644 OA
ENDBRANCH  30  35
ENDBRANCH  14  16
ENDBRANCH  10  14
ENDBRANCH   2   4
TORSDOF 4
ENDMDL
