REMARK  11 active torsions:
REMARK  status: ('A' for Active; 'I' for Inactive)
REMARK    1  A    between atoms: CAZ_1  and  CAN_2 
REMARK    2  A    between atoms: CAN_2  and  CBA_3 
REMARK    3  A    between atoms: CAN_2  and  CAL_4 
REMARK       I    between atoms: CAL_4  and  NAK_6 
REMARK    4  A    between atoms: NAK_6  and  CAC_7 
REMARK    5  A    between atoms: CAB_8  and  OAG_9 
REMARK    6  A    between atoms: CAA_10  and  OAH_11 
REMARK    7  A    between atoms: CAF_12  and  CAI_13 
REMARK    8  A    between atoms: CAI_13  and  OAJ_14 
REMARK    9  A    between atoms: CAP_19  and  CAR_20 
REMARK   10  A    between atoms: CAR_20  and  CAS_21 
REMARK   11  A    between atoms: CAS_21  and  CAT_22 
ROOT
ATOM      1  CAC GSZ d          32.933  43.014  21.201  0.00  0.00     0.097 C 
ATOM      2  CAB GSZ d          32.278  43.186  22.572  0.00  0.00     0.088 C 
ATOM      3  CAA GSZ d          30.833  42.651  22.656  0.00  0.00     0.084 C 
ATOM      4  CAF GSZ d          30.869  41.154  22.330  0.00  0.00     0.065 C 
ATOM      5  NAE GSZ d          31.290  41.020  20.907  0.00  0.00    -0.332 N 
ATOM      6  CAQ GSZ d          30.946  40.188  19.924  0.00  0.00     0.005 A 
ATOM      7  CAD GSZ d          32.277  41.885  20.367  0.00  0.00     0.132 A 
ATOM      8  NAO GSZ d          32.445  41.534  19.093  0.00  0.00    -0.236 NA
ATOM      9  CAP GSZ d          31.629  40.507  18.813  0.00  0.00     0.052 A 
ATOM     10  H9  GSZ d          32.767  43.952  20.650  0.00  0.00     0.089 H 
ATOM     11  H10 GSZ d          32.883  42.662  23.327  0.00  0.00     0.090 H 
ATOM     12  H12 GSZ d          30.203  43.170  21.919  0.00  0.00     0.090 H 
ATOM     13  H14 GSZ d          31.656  40.706  22.954  0.00  0.00     0.080 H 
ATOM     14  H18 GSZ d          30.224  39.377  20.009  0.00  0.00     0.114 H 
ENDROOT
BRANCH   9  15
ATOM     15  CAR GSZ d          31.543  39.758  17.463  0.00  0.00    -0.020 C 
ATOM     16  H19 GSZ d          30.682  39.073  17.485  0.00  0.00     0.042 H 
ATOM     17  H20 GSZ d          32.467  39.181  17.312  0.00  0.00     0.042 H 
BRANCH  15  18
ATOM     18  CAS GSZ d          31.372  40.737  16.307  0.00  0.00    -0.036 C 
ATOM     19  H21 GSZ d          31.565  40.206  15.364  0.00  0.00     0.040 H 
ATOM     20  H22 GSZ d          32.101  41.552  16.425  0.00  0.00     0.040 H 
BRANCH  18  21
ATOM     21  CAT GSZ d          29.954  41.346  16.250  0.00  0.00    -0.058 A 
ATOM     22  CAU GSZ d          28.890  40.629  15.669  0.00  0.00    -0.077 A 
ATOM     23  CAV GSZ d          27.606  41.184  15.593  0.00  0.00    -0.082 A 
ATOM     24  H23 GSZ d          29.067  39.635  15.275  0.00  0.00     0.084 H 
ATOM     25  CAW GSZ d          27.400  42.462  16.115  0.00  0.00    -0.083 A 
ATOM     26  H24 GSZ d          26.790  40.633  15.139  0.00  0.00     0.083 H 
ATOM     27  CAX GSZ d          28.461  43.183  16.696  0.00  0.00    -0.082 A 
ATOM     28  H25 GSZ d          26.412  42.905  16.073  0.00  0.00     0.083 H 
ATOM     29  CAY GSZ d          29.737  42.629  16.771  0.00  0.00    -0.077 A 
ATOM     30  H26 GSZ d          28.283  44.178  17.088  0.00  0.00     0.083 H 
ATOM     31  H27 GSZ d          30.551  43.182  17.226  0.00  0.00     0.084 H 
ENDBRANCH  18  21
ENDBRANCH  15  18
ENDBRANCH   9  15
BRANCH   4  32
ATOM     32  CAI GSZ d          29.568  40.370  22.651  0.00  0.00     0.038 C 
ATOM     33  H15 GSZ d          29.296  40.526  23.705  0.00  0.00     0.077 H 
ATOM     34  H16 GSZ d          29.731  39.297  22.469  0.00  0.00     0.077 H 
BRANCH  32  35
ATOM     35  OAJ GSZ d          28.532  40.831  21.828  0.00  0.00    -0.399 OA
ATOM     36  H17 GSZ d          28.768  40.696  20.918  0.00  0.00     0.209 HD
ENDBRANCH  32  35
ENDBRANCH   4  32
BRANCH   1  37
ATOM     37  NAK GSZ d          34.415  42.833  21.314  0.00  0.00    -0.347 N 
ATOM     38  CAL GSZ d          34.972  41.735  21.858  0.00  0.00     0.221 C 
ATOM     39  OAM GSZ d          34.325  40.781  22.320  0.00  0.00    -0.273 OA
ATOM     40  H8  GSZ d          35.015  43.556  20.972  0.00  0.00     0.163 HD
BRANCH  38  41
ATOM     41  CAN GSZ d          36.519  41.732  21.860  0.00  0.00     0.017 C 
ATOM     42  H4  GSZ d          36.860  41.755  20.814  0.00  0.00     0.053 H 
BRANCH  41  43
ATOM     43  CAZ GSZ d          37.109  40.474  22.524  0.00  0.00    -0.065 C 
ATOM     44  H1  GSZ d          38.207  40.526  22.497  0.00  0.00     0.028 H 
ATOM     45  H2  GSZ d          36.771  39.580  21.980  0.00  0.00     0.028 H 
ATOM     46  H3  GSZ d          36.770  40.418  23.569  0.00  0.00     0.028 H 
ENDBRANCH  41  43
BRANCH  41  47
ATOM     47  CBA GSZ d          37.033  42.979  22.565  0.00  0.00    -0.065 C 
ATOM     48  H5  GSZ d          36.608  43.873  22.085  0.00  0.00     0.028 H 
ATOM     49  H6  GSZ d          38.130  43.013  22.496  0.00  0.00     0.028 H 
ATOM     50  H7  GSZ d          36.733  42.952  23.623  0.00  0.00     0.028 H 
ENDBRANCH  41  47
ENDBRANCH  38  41
ENDBRANCH   1  37
BRANCH   3  51
ATOM     51  OAH GSZ d          30.300  42.881  23.969  0.00  0.00    -0.391 OA
ATOM     52  H13 GSZ d          30.300  43.813  24.151  0.00  0.00     0.210 HD
ENDBRANCH   3  51
BRANCH   2  53
ATOM     53  OAG GSZ d          32.291  44.560  22.821  0.00  0.00    -0.390 OA
ATOM     54  H11 GSZ d          31.893  44.731  23.667  0.00  0.00     0.210 HD
ENDBRANCH   2  53
TORSDOF 11
