MODEL 1
REMARK VINA RESULT:      -8.0      0.000      0.000
REMARK  3 active torsions:
REMARK  status: ('A' for Active; 'I' for Inactive)
REMARK    1  A    between atoms: C1'_19  and  C2_1 
REMARK    2  A    between atoms: C6_5  and  O5_12 
REMARK    3  A    between atoms: C8_7  and  O7_13 
ROOT
ATOM      1  C2  MOL d          21.455  -0.272  -5.876  0.00  0.00     0.090 A 
ATOM      2  C3  MOL d          21.836  -1.437  -6.532  0.00  0.00    -0.000 A 
ATOM      3  C4  MOL d          21.857  -1.471  -7.915  0.00  0.00     0.190 A 
ATOM      4  C5  MOL d          21.493  -0.332  -8.613  0.00  0.00     0.081 A 
ATOM      5  C6  MOL d          21.506  -0.339 -10.003  0.00  0.00     0.085 A 
ATOM      6  C7  MOL d          21.141   0.802 -10.708  0.00  0.00    -0.018 A 
ATOM      7  C8  MOL d          20.766   1.949 -10.019  0.00  0.00     0.071 A 
ATOM      8  C9  MOL d          20.754   1.952  -8.629  0.00  0.00    -0.017 A 
ATOM      9  C10 MOL d          21.117   0.814  -7.919  0.00  0.00     0.095 A 
ATOM     10  O1  MOL d          21.093   0.859  -6.553  0.00  0.00    -0.309 OA
ATOM     11  O4  MOL d          22.192  -2.493  -8.512  0.00  0.00    -0.287 OA
ATOM     12  H1  MOL d          22.118  -2.319  -5.959  0.00  0.00     0.094 H 
ATOM     13  H2  MOL d          21.149   0.797 -11.792  0.00  0.00     0.092 H 
ATOM     14  H3  MOL d          20.460   2.848  -8.096  0.00  0.00     0.092 H 
ENDROOT
BRANCH   1  15
ATOM     15  C1' MOL d          21.440  -0.257  -4.486  0.00  0.00    -0.002 A 
ATOM     16  C2' MOL d          22.311  -1.072  -3.773  0.00  0.00    -0.070 A 
ATOM     17  C3' MOL d          22.297  -1.056  -2.383  0.00  0.00    -0.082 A 
ATOM     18  H6  MOL d          23.002  -1.719  -4.301  0.00  0.00     0.084 H 
ATOM     19  C4' MOL d          21.410  -0.226  -1.706  0.00  0.00    -0.083 A 
ATOM     20  H7  MOL d          22.976  -1.691  -1.827  0.00  0.00     0.083 H 
ATOM     21  C5' MOL d          20.539   0.588  -2.420  0.00  0.00    -0.082 A 
ATOM     22  H8  MOL d          21.398  -0.215  -0.623  0.00  0.00     0.083 H 
ATOM     23  C6' MOL d          20.553   0.573  -3.810  0.00  0.00    -0.070 A 
ATOM     24  H9  MOL d          19.848   1.235  -1.893  0.00  0.00     0.083 H 
ATOM     25  H10 MOL d          19.874   1.208  -4.366  0.00  0.00     0.084 H 
ENDBRANCH   1  15
BRANCH   5  26
ATOM     26  O5  MOL d          21.873  -1.463 -10.674  0.00  0.00    -0.360 OA
ATOM     27  H4  MOL d          21.132  -2.055 -10.728  0.00  0.00     0.217 HD
ENDBRANCH   5  26
BRANCH   7  28
ATOM     28  O7  MOL d          20.408   3.068 -10.705  0.00  0.00    -0.361 OA
ATOM     29  H5  MOL d          20.510   2.912 -11.638  0.00  0.00     0.217 HD
ENDBRANCH   7  28
TORSDOF 3
ENDMDL
MODEL 2
REMARK VINA RESULT:      -7.8      1.128      2.735
REMARK  3 active torsions:
REMARK  status: ('A' for Active; 'I' for Inactive)
REMARK    1  A    between atoms: C1'_19  and  C2_1 
REMARK    2  A    between atoms: C6_5  and  O5_12 
REMARK    3  A    between atoms: C8_7  and  O7_13 
ROOT
ATOM      1  C2  MOL d          21.067   0.314  -5.879  0.00  0.00     0.090 A 
ATOM      2  C3  MOL d          20.674   1.487  -6.514  0.00  0.00    -0.000 A 
ATOM      3  C4  MOL d          20.651   1.545  -7.896  0.00  0.00     0.190 A 
ATOM      4  C5  MOL d          21.023   0.421  -8.615  0.00  0.00     0.081 A 
ATOM      5  C6  MOL d          21.007   0.452 -10.005  0.00  0.00     0.085 A 
ATOM      6  C7  MOL d          21.380  -0.673 -10.730  0.00  0.00    -0.018 A 
ATOM      7  C8  MOL d          21.766  -1.828 -10.062  0.00  0.00     0.071 A 
ATOM      8  C9  MOL d          21.781  -1.856  -8.672  0.00  0.00    -0.017 A 
ATOM      9  C10 MOL d          21.409  -0.733  -7.941  0.00  0.00     0.095 A 
ATOM     10  O1  MOL d          21.437  -0.802  -6.577  0.00  0.00    -0.309 OA
ATOM     11  O4  MOL d          20.306   2.574  -8.475  0.00  0.00    -0.287 OA
ATOM     12  H1  MOL d          20.387   2.356  -5.925  0.00  0.00     0.094 H 
ATOM     13  H2  MOL d          21.370  -0.649 -11.813  0.00  0.00     0.092 H 
ATOM     14  H3  MOL d          22.083  -2.758  -8.155  0.00  0.00     0.092 H 
ENDROOT
BRANCH   1  15
ATOM     15  C1' MOL d          21.085   0.274  -4.490  0.00  0.00    -0.002 A 
ATOM     16  C2' MOL d          21.885  -0.652  -3.832  0.00  0.00    -0.070 A 
ATOM     17  C3' MOL d          21.903  -0.692  -2.442  0.00  0.00    -0.082 A 
ATOM     18  H6  MOL d          22.496  -1.343  -4.402  0.00  0.00     0.084 H 
ATOM     19  C4' MOL d          21.119   0.194  -1.711  0.00  0.00    -0.083 A 
ATOM     20  H7  MOL d          22.527  -1.414  -1.929  0.00  0.00     0.083 H 
ATOM     21  C5' MOL d          20.319   1.120  -2.370  0.00  0.00    -0.082 A 
ATOM     22  H8  MOL d          21.132   0.162  -0.628  0.00  0.00     0.083 H 
ATOM     23  C6' MOL d          20.301   1.160  -3.759  0.00  0.00    -0.070 A 
ATOM     24  H9  MOL d          19.708   1.810  -1.801  0.00  0.00     0.083 H 
ATOM     25  H10 MOL d          19.677   1.881  -4.273  0.00  0.00     0.084 H 
ENDBRANCH   1  15
BRANCH   5  26
ATOM     26  O5  MOL d          20.629   1.586 -10.655  0.00  0.00    -0.360 OA
ATOM     27  H4  MOL d          20.914   2.344 -10.158  0.00  0.00     0.217 HD
ENDBRANCH   5  26
BRANCH   7  28
ATOM     28  O7  MOL d          22.132  -2.932 -10.768  0.00  0.00    -0.361 OA
ATOM     29  H5  MOL d          22.964  -3.255 -10.441  0.00  0.00     0.217 HD
ENDBRANCH   7  28
TORSDOF 3
ENDMDL
MODEL 3
REMARK VINA RESULT:      -7.7      2.512      6.973
REMARK  3 active torsions:
REMARK  status: ('A' for Active; 'I' for Inactive)
REMARK    1  A    between atoms: C1'_19  and  C2_1 
REMARK    2  A    between atoms: C6_5  and  O5_12 
REMARK    3  A    between atoms: C8_7  and  O7_13 
ROOT
ATOM      1  C2  MOL d          21.222   0.005  -5.702  0.00  0.00     0.090 A 
ATOM      2  C3  MOL d          20.378   0.914  -5.074  0.00  0.00    -0.000 A 
ATOM      3  C4  MOL d          20.319   0.954  -3.692  0.00  0.00     0.190 A 
ATOM      4  C5  MOL d          21.112   0.080  -2.967  0.00  0.00     0.081 A 
ATOM      5  C6  MOL d          21.072   0.100  -1.578  0.00  0.00     0.085 A 
ATOM      6  C7  MOL d          21.865  -0.776  -0.846  0.00  0.00    -0.018 A 
ATOM      7  C8  MOL d          22.698  -1.670  -1.508  0.00  0.00     0.071 A 
ATOM      8  C9  MOL d          22.734  -1.688  -2.897  0.00  0.00    -0.017 A 
ATOM      9  C10 MOL d          21.943  -0.814  -3.634  0.00  0.00     0.095 A 
ATOM     10  O1  MOL d          22.009  -0.864  -4.998  0.00  0.00    -0.309 OA
ATOM     11  O4  MOL d          19.578   1.751  -3.119  0.00  0.00    -0.287 OA
ATOM     12  H1  MOL d          19.766   1.590  -5.667  0.00  0.00     0.094 H 
ATOM     13  H2  MOL d          21.834  -0.762   0.237  0.00  0.00     0.092 H 
ATOM     14  H3  MOL d          23.385  -2.387  -3.410  0.00  0.00     0.092 H 
ENDROOT
BRANCH   1  15
ATOM     15  C1' MOL d          21.268  -0.021  -7.091  0.00  0.00    -0.002 A 
ATOM     16  C2' MOL d          20.285   0.626  -7.831  0.00  0.00    -0.070 A 
ATOM     17  C3' MOL d          20.331   0.599  -9.220  0.00  0.00    -0.082 A 
ATOM     18  H6  MOL d          19.483   1.151  -7.324  0.00  0.00     0.084 H 
ATOM     19  C4' MOL d          21.360  -0.075  -9.869  0.00  0.00    -0.083 A 
ATOM     20  H7  MOL d          19.565   1.104  -9.797  0.00  0.00     0.083 H 
ATOM     21  C5' MOL d          22.342  -0.722  -9.129  0.00  0.00    -0.082 A 
ATOM     22  H8  MOL d          21.395  -0.096 -10.952  0.00  0.00     0.083 H 
ATOM     23  C6' MOL d          22.296  -0.695  -7.740  0.00  0.00    -0.070 A 
ATOM     24  H9  MOL d          23.144  -1.247  -9.634  0.00  0.00     0.083 H 
ATOM     25  H10 MOL d          23.062  -1.200  -7.163  0.00  0.00     0.084 H 
ENDBRANCH   1  15
BRANCH   5  26
ATOM     26  O5  MOL d          20.256   0.977  -0.934  0.00  0.00    -0.360 OA
ATOM     27  H4  MOL d          20.742   1.412  -0.244  0.00  0.00     0.217 HD
ENDBRANCH   5  26
BRANCH   7  28
ATOM     28  O7  MOL d          23.476  -2.529  -0.796  0.00  0.00    -0.361 OA
ATOM     29  H5  MOL d          23.663  -2.152   0.057  0.00  0.00     0.217 HD
ENDBRANCH   7  28
TORSDOF 3
ENDMDL
MODEL 4
REMARK VINA RESULT:      -7.5      2.540      6.378
REMARK  3 active torsions:
REMARK  status: ('A' for Active; 'I' for Inactive)
REMARK    1  A    between atoms: C1'_19  and  C2_1 
REMARK    2  A    between atoms: C6_5  and  O5_12 
REMARK    3  A    between atoms: C8_7  and  O7_13 
ROOT
ATOM      1  C2  MOL d          21.311  -0.069  -5.678  0.00  0.00     0.090 A 
ATOM      2  C3  MOL d          21.992  -1.121  -5.077  0.00  0.00    -0.000 A 
ATOM      3  C4  MOL d          22.058  -1.199  -3.697  0.00  0.00     0.190 A 
ATOM      4  C5  MOL d          21.435  -0.216  -2.947  0.00  0.00     0.081 A 
ATOM      5  C6  MOL d          21.485  -0.271  -1.558  0.00  0.00     0.085 A 
ATOM      6  C7  MOL d          20.863   0.714  -0.800  0.00  0.00    -0.018 A 
ATOM      7  C8  MOL d          20.189   1.751  -1.435  0.00  0.00     0.071 A 
ATOM      8  C9  MOL d          20.142   1.802  -2.823  0.00  0.00    -0.017 A 
ATOM      9  C10 MOL d          20.763   0.820  -3.586  0.00  0.00     0.095 A 
ATOM     10  O1  MOL d          20.692   0.908  -4.948  0.00  0.00    -0.309 OA
ATOM     11  O4  MOL d          22.657  -2.123  -3.149  0.00  0.00    -0.287 OA
ATOM     12  H1  MOL d          22.473  -1.881  -5.691  0.00  0.00     0.094 H 
ATOM     13  H2  MOL d          20.902   0.673   0.282  0.00  0.00     0.092 H 
ATOM     14  H3  MOL d          19.616   2.613  -3.313  0.00  0.00     0.092 H 
ENDROOT
BRANCH   1  15
ATOM     15  C1' MOL d          21.256  -0.007  -7.065  0.00  0.00    -0.002 A 
ATOM     16  C2' MOL d          22.196  -0.689  -7.829  0.00  0.00    -0.070 A 
ATOM     17  C3' MOL d          22.141  -0.627  -9.216  0.00  0.00    -0.082 A 
ATOM     18  H6  MOL d          22.972  -1.269  -7.342  0.00  0.00     0.084 H 
ATOM     19  C4' MOL d          21.146   0.117  -9.841  0.00  0.00    -0.083 A 
ATOM     20  H7  MOL d          22.874  -1.159  -9.812  0.00  0.00     0.083 H 
ATOM     21  C5' MOL d          20.206   0.798  -9.076  0.00  0.00    -0.082 A 
ATOM     22  H8  MOL d          21.104   0.165 -10.922  0.00  0.00     0.083 H 
ATOM     23  C6' MOL d          20.261   0.737  -7.689  0.00  0.00    -0.070 A 
ATOM     24  H9  MOL d          19.430   1.378  -9.562  0.00  0.00     0.083 H 
ATOM     25  H10 MOL d          19.528   1.268  -7.093  0.00  0.00     0.084 H 
ENDBRANCH   1  15
BRANCH   5  26
ATOM     26  O5  MOL d          22.145  -1.287  -0.941  0.00  0.00    -0.360 OA
ATOM     27  H4  MOL d          22.949  -1.474  -1.413  0.00  0.00     0.217 HD
ENDBRANCH   5  26
BRANCH   7  28
ATOM     28  O7  MOL d          19.578   2.716  -0.696  0.00  0.00    -0.361 OA
ATOM     29  H5  MOL d          19.603   3.540  -1.171  0.00  0.00     0.217 HD
ENDBRANCH   7  28
TORSDOF 3
ENDMDL
MODEL 5
REMARK VINA RESULT:      -5.9      1.466      1.928
REMARK  3 active torsions:
REMARK  status: ('A' for Active; 'I' for Inactive)
REMARK    1  A    between atoms: C1'_19  and  C2_1 
REMARK    2  A    between atoms: C6_5  and  O5_12 
REMARK    3  A    between atoms: C8_7  and  O7_13 
ROOT
ATOM      1  C2  MOL d          20.597   0.042  -4.577  0.00  0.00     0.090 A 
ATOM      2  C3  MOL d          20.295  -1.289  -4.845  0.00  0.00    -0.000 A 
ATOM      3  C4  MOL d          20.319  -1.749  -6.149  0.00  0.00     0.190 A 
ATOM      4  C5  MOL d          20.646  -0.862  -7.161  0.00  0.00     0.081 A 
ATOM      5  C6  MOL d          20.677  -1.299  -8.481  0.00  0.00     0.085 A 
ATOM      6  C7  MOL d          21.004  -0.412  -9.500  0.00  0.00    -0.018 A 
ATOM      7  C8  MOL d          21.301   0.910  -9.195  0.00  0.00     0.071 A 
ATOM      8  C9  MOL d          21.268   1.344  -7.875  0.00  0.00    -0.017 A 
ATOM      9  C10 MOL d          20.941   0.461  -6.851  0.00  0.00     0.095 A 
ATOM     10  O1  MOL d          20.921   0.928  -5.567  0.00  0.00    -0.309 OA
ATOM     11  O4  MOL d          20.054  -2.923  -6.405  0.00  0.00    -0.287 OA
ATOM     12  H1  MOL d          20.041  -1.966  -4.031  0.00  0.00     0.094 H 
ATOM     13  H2  MOL d          21.027  -0.752 -10.529  0.00  0.00     0.092 H 
ATOM     14  H3  MOL d          21.499   2.376  -7.641  0.00  0.00     0.092 H 
ENDROOT
BRANCH   1  15
ATOM     15  C1' MOL d          20.568   0.486  -3.261  0.00  0.00    -0.002 A 
ATOM     16  C2' MOL d          21.244  -0.221  -2.274  0.00  0.00    -0.070 A 
ATOM     17  C3' MOL d          21.216   0.223  -0.957  0.00  0.00    -0.082 A 
ATOM     18  H6  MOL d          21.794  -1.120  -2.531  0.00  0.00     0.084 H 
ATOM     19  C4' MOL d          20.511   1.375  -0.627  0.00  0.00    -0.083 A 
ATOM     20  H7  MOL d          21.743  -0.328  -0.187  0.00  0.00     0.083 H 
ATOM     21  C5' MOL d          19.835   2.082  -1.614  0.00  0.00    -0.082 A 
ATOM     22  H8  MOL d          20.488   1.721   0.400  0.00  0.00     0.083 H 
ATOM     23  C6' MOL d          19.863   1.638  -2.931  0.00  0.00    -0.070 A 
ATOM     24  H9  MOL d          19.285   2.980  -1.358  0.00  0.00     0.083 H 
ATOM     25  H10 MOL d          19.336   2.189  -3.701  0.00  0.00     0.084 H 
ENDBRANCH   1  15
BRANCH   5  26
ATOM     26  O5  MOL d          20.386  -2.594  -8.775  0.00  0.00    -0.360 OA
ATOM     27  H4  MOL d          19.499  -2.790  -8.495  0.00  0.00     0.217 HD
ENDBRANCH   5  26
BRANCH   7  28
ATOM     28  O7  MOL d          21.622   1.782 -10.189  0.00  0.00    -0.361 OA
ATOM     29  H5  MOL d          22.197   2.456  -9.845  0.00  0.00     0.217 HD
ENDBRANCH   7  28
TORSDOF 3
ENDMDL
MODEL 6
REMARK VINA RESULT:      -5.8      2.291      6.649
REMARK  3 active torsions:
REMARK  status: ('A' for Active; 'I' for Inactive)
REMARK    1  A    between atoms: C1'_19  and  C2_1 
REMARK    2  A    between atoms: C6_5  and  O5_12 
REMARK    3  A    between atoms: C8_7  and  O7_13 
ROOT
ATOM      1  C2  MOL d          21.358  -0.610  -6.648  0.00  0.00     0.090 A 
ATOM      2  C3  MOL d          20.522   0.363  -6.113  0.00  0.00    -0.000 A 
ATOM      3  C4  MOL d          20.534   0.606  -4.751  0.00  0.00     0.190 A 
ATOM      4  C5  MOL d          21.389  -0.134  -3.952  0.00  0.00     0.081 A 
ATOM      5  C6  MOL d          21.422   0.091  -2.580  0.00  0.00     0.085 A 
ATOM      6  C7  MOL d          22.278  -0.649  -1.774  0.00  0.00    -0.018 A 
ATOM      7  C8  MOL d          23.101  -1.613  -2.343  0.00  0.00     0.071 A 
ATOM      8  C9  MOL d          23.065  -1.835  -3.715  0.00  0.00    -0.017 A 
ATOM      9  C10 MOL d          22.211  -1.098  -4.526  0.00  0.00     0.095 A 
ATOM     10  O1  MOL d          22.207  -1.347  -5.870  0.00  0.00    -0.309 OA
ATOM     11  O4  MOL d          19.800   1.463  -4.261  0.00  0.00    -0.287 OA
ATOM     12  H1  MOL d          19.859   0.931  -6.764  0.00  0.00     0.094 H 
ATOM     13  H2  MOL d          22.302  -0.475  -0.704  0.00  0.00     0.092 H 
ATOM     14  H3  MOL d          23.708  -2.588  -4.154  0.00  0.00     0.092 H 
ENDROOT
BRANCH   1  15
ATOM     15  C1' MOL d          21.332  -0.841  -8.018  0.00  0.00    -0.002 A 
ATOM     16  C2' MOL d          21.637  -2.103  -8.516  0.00  0.00    -0.070 A 
ATOM     17  C3' MOL d          21.611  -2.333  -9.887  0.00  0.00    -0.082 A 
ATOM     18  H6  MOL d          21.894  -2.906  -7.835  0.00  0.00     0.084 H 
ATOM     19  C4' MOL d          21.281  -1.303 -10.760  0.00  0.00    -0.083 A 
ATOM     20  H7  MOL d          21.847  -3.317 -10.275  0.00  0.00     0.083 H 
ATOM     21  C5' MOL d          20.977  -0.041 -10.261  0.00  0.00    -0.082 A 
ATOM     22  H8  MOL d          21.262  -1.482 -11.828  0.00  0.00     0.083 H 
ATOM     23  C6' MOL d          21.003   0.190  -8.891  0.00  0.00    -0.070 A 
ATOM     24  H9  MOL d          20.720   0.763 -10.941  0.00  0.00     0.083 H 
ATOM     25  H10 MOL d          20.767   1.174  -8.502  0.00  0.00     0.084 H 
ENDBRANCH   1  15
BRANCH   5  26
ATOM     26  O5  MOL d          20.614   1.035  -2.027  0.00  0.00    -0.360 OA
ATOM     27  H4  MOL d          19.806   0.629  -1.738  0.00  0.00     0.217 HD
ENDBRANCH   5  26
BRANCH   7  28
ATOM     28  O7  MOL d          23.941  -2.340  -1.557  0.00  0.00    -0.361 OA
ATOM     29  H5  MOL d          24.699  -1.812  -1.334  0.00  0.00     0.217 HD
ENDBRANCH   7  28
TORSDOF 3
ENDMDL
