MODEL 1
REMARK VINA RESULT:      -6.3      0.000      0.000
REMARK  4 active torsions:
REMARK  status: ('A' for Active; 'I' for Inactive)
REMARK    1  A    between atoms: S1_4  and  N1_2 
REMARK    2  A    between atoms: C3_7  and  O1_3 
REMARK    3  A    between atoms: O1_3  and  C6_11 
REMARK    4  A    between atoms: C5_10  and  S1_4 
ROOT
ATOM      1  C1  M4S d           4.938  -6.425   6.784  0.00  0.00    -0.058 A 
ATOM      2  C2  M4S d           6.080  -6.853   7.443  0.00  0.00    -0.049 A 
ATOM      3  C3  M4S d           6.096  -7.024   8.822  0.00  0.00     0.068 A 
ATOM      4  C4  M4S d           4.936  -6.795   9.566  0.00  0.00    -0.049 A 
ATOM      5  C5  M4S d           3.776  -6.166   7.510  0.00  0.00     0.079 A 
ATOM      6  C7  M4S d           3.780  -6.353   8.903  0.00  0.00    -0.058 A 
ATOM      7  H1  M4S d           4.949  -6.291   5.709  0.00  0.00     0.086 H 
ATOM      8  H4  M4S d           6.978  -7.058   6.871  0.00  0.00     0.087 H 
ATOM      9  H5  M4S d           4.928  -6.957  10.638  0.00  0.00     0.087 H 
ATOM     10  H9  M4S d           2.880  -6.153   9.472  0.00  0.00     0.086 H 
ENDROOT
BRANCH   5  11
ATOM     11  S1  M4S d           2.448  -5.658   6.745  0.00  0.00     0.256 S 
ATOM     12  O2  M4S d           2.928  -4.581   5.832  0.00  0.00    -0.201 OA
ATOM     13  O3  M4S d           1.716  -6.655   5.912  0.00  0.00    -0.201 OA
BRANCH  11  14
ATOM     14  N1  M4S d           1.570  -5.064   7.786  0.00  0.00    -0.324 N 
ATOM     15  H2  M4S d           0.812  -4.468   7.520  0.00  0.00     0.169 HD
ATOM     16  H3  M4S d           1.738  -5.260   8.753  0.00  0.00     0.169 HD
ENDBRANCH  11  14
ENDBRANCH   5  11
BRANCH   3  17
ATOM     17  O1  M4S d           7.270  -7.430   9.409  0.00  0.00    -0.356 OA
BRANCH  17  18
ATOM     18  C6  M4S d           7.268  -8.055  10.688  0.00  0.00     0.010 C 
ATOM     19  H6  M4S d           7.573  -7.326  11.453  0.00  0.00     0.066 H 
ATOM     20  H7  M4S d           7.972  -8.900  10.685  0.00  0.00     0.066 H 
ATOM     21  H8  M4S d           6.256  -8.423  10.916  0.00  0.00     0.066 H 
ENDBRANCH  17  18
ENDBRANCH   3  17
TORSDOF 4
ENDMDL
MODEL 2
REMARK VINA RESULT:      -6.2      0.838      1.624
REMARK  4 active torsions:
REMARK  status: ('A' for Active; 'I' for Inactive)
REMARK    1  A    between atoms: S1_4  and  N1_2 
REMARK    2  A    between atoms: C3_7  and  O1_3 
REMARK    3  A    between atoms: O1_3  and  C6_11 
REMARK    4  A    between atoms: C5_10  and  S1_4 
ROOT
ATOM      1  C1  M4S d           3.073  -6.298   8.508  0.00  0.00    -0.058 A 
ATOM      2  C2  M4S d           4.142  -6.745   9.267  0.00  0.00    -0.049 A 
ATOM      3  C3  M4S d           5.396  -6.942   8.702  0.00  0.00     0.068 A 
ATOM      4  C4  M4S d           5.604  -6.656   7.349  0.00  0.00    -0.049 A 
ATOM      5  C5  M4S d           3.250  -6.030   7.151  0.00  0.00     0.079 A 
ATOM      6  C7  M4S d           4.520  -6.211   6.576  0.00  0.00    -0.058 A 
ATOM      7  H1  M4S d           2.101  -6.157   8.968  0.00  0.00     0.086 H 
ATOM      8  H4  M4S d           3.998  -6.945  10.323  0.00  0.00     0.087 H 
ATOM      9  H5  M4S d           6.585  -6.775   6.905  0.00  0.00     0.087 H 
ATOM     10  H9  M4S d           4.664  -6.005   5.522  0.00  0.00     0.086 H 
ENDROOT
BRANCH   5  11
ATOM     11  S1  M4S d           2.003  -5.518   6.264  0.00  0.00     0.256 S 
ATOM     12  O2  M4S d           2.612  -4.622   5.238  0.00  0.00    -0.201 OA
ATOM     13  O3  M4S d           1.211  -6.552   5.537  0.00  0.00    -0.201 OA
BRANCH  11  14
ATOM     14  N1  M4S d           1.148  -4.712   7.173  0.00  0.00    -0.324 N 
ATOM     15  H2  M4S d           0.155  -4.837   7.167  0.00  0.00     0.169 HD
ATOM     16  H3  M4S d           1.565  -4.045   7.792  0.00  0.00     0.169 HD
ENDBRANCH  11  14
ENDBRANCH   5  11
BRANCH   3  17
ATOM     17  O1  M4S d           6.404  -7.407   9.510  0.00  0.00    -0.356 OA
BRANCH  17  18
ATOM     18  C6  M4S d           7.527  -8.087   8.959  0.00  0.00     0.010 C 
ATOM     19  H6  M4S d           7.185  -8.975   8.408  0.00  0.00     0.066 H 
ATOM     20  H7  M4S d           8.203  -8.396   9.770  0.00  0.00     0.066 H 
ATOM     21  H8  M4S d           8.063  -7.414   8.273  0.00  0.00     0.066 H 
ENDBRANCH  17  18
ENDBRANCH   3  17
TORSDOF 4
ENDMDL
MODEL 3
REMARK VINA RESULT:      -5.8      1.251      1.454
REMARK  4 active torsions:
REMARK  status: ('A' for Active; 'I' for Inactive)
REMARK    1  A    between atoms: S1_4  and  N1_2 
REMARK    2  A    between atoms: C3_7  and  O1_3 
REMARK    3  A    between atoms: O1_3  and  C6_11 
REMARK    4  A    between atoms: C5_10  and  S1_4 
ROOT
ATOM      1  C1  M4S d           4.364  -6.270   6.403  0.00  0.00    -0.058 A 
ATOM      2  C2  M4S d           5.499  -6.641   7.108  0.00  0.00    -0.049 A 
ATOM      3  C3  M4S d           5.502  -6.687   8.497  0.00  0.00     0.068 A 
ATOM      4  C4  M4S d           4.336  -6.388   9.207  0.00  0.00    -0.049 A 
ATOM      5  C5  M4S d           3.197  -5.943   7.092  0.00  0.00     0.079 A 
ATOM      6  C7  M4S d           3.188  -6.003   8.496  0.00  0.00    -0.058 A 
ATOM      7  H1  M4S d           4.385  -6.234   5.320  0.00  0.00     0.086 H 
ATOM      8  H4  M4S d           6.401  -6.900   6.566  0.00  0.00     0.087 H 
ATOM      9  H5  M4S d           4.318  -6.452  10.289  0.00  0.00     0.087 H 
ATOM     10  H9  M4S d           2.284  -5.750   9.037  0.00  0.00     0.086 H 
ENDROOT
BRANCH   5  11
ATOM     11  S1  M4S d           1.878  -5.501   6.272  0.00  0.00     0.256 S 
ATOM     12  O2  M4S d           0.888  -5.129   7.324  0.00  0.00    -0.201 OA
ATOM     13  O3  M4S d           2.006  -4.337   5.349  0.00  0.00    -0.201 OA
BRANCH  11  14
ATOM     14  N1  M4S d           1.404  -6.716   5.561  0.00  0.00    -0.324 N 
ATOM     15  H2  M4S d           0.675  -7.275   5.956  0.00  0.00     0.169 HD
ATOM     16  H3  M4S d           1.815  -6.975   4.686  0.00  0.00     0.169 HD
ENDBRANCH  11  14
ENDBRANCH   5  11
BRANCH   3  17
ATOM     17  O1  M4S d           6.668  -7.043   9.128  0.00  0.00    -0.356 OA
BRANCH  17  18
ATOM     18  C6  M4S d           6.643  -7.725  10.379  0.00  0.00     0.010 C 
ATOM     19  H6  M4S d           7.253  -7.174  11.109  0.00  0.00     0.066 H 
ATOM     20  H7  M4S d           7.049  -8.739  10.252  0.00  0.00     0.066 H 
ATOM     21  H8  M4S d           5.606  -7.789  10.740  0.00  0.00     0.066 H 
ENDBRANCH  17  18
ENDBRANCH   3  17
TORSDOF 4
ENDMDL
MODEL 4
REMARK VINA RESULT:      -5.1      2.760      4.920
REMARK  4 active torsions:
REMARK  status: ('A' for Active; 'I' for Inactive)
REMARK    1  A    between atoms: S1_4  and  N1_2 
REMARK    2  A    between atoms: C3_7  and  O1_3 
REMARK    3  A    between atoms: O1_3  and  C6_11 
REMARK    4  A    between atoms: C5_10  and  S1_4 
ROOT
ATOM      1  C1  M4S d           5.501  -6.533   7.201  0.00  0.00    -0.058 A 
ATOM      2  C2  M4S d           4.408  -6.018   6.521  0.00  0.00    -0.049 A 
ATOM      3  C3  M4S d           3.246  -5.656   7.191  0.00  0.00     0.068 A 
ATOM      4  C4  M4S d           3.177  -5.778   8.582  0.00  0.00    -0.049 A 
ATOM      5  C5  M4S d           5.445  -6.687   8.585  0.00  0.00     0.079 A 
ATOM      6  C7  M4S d           4.279  -6.308   9.272  0.00  0.00    -0.058 A 
ATOM      7  H1  M4S d           6.395  -6.816   6.657  0.00  0.00     0.086 H 
ATOM      8  H4  M4S d           4.461  -5.895   5.445  0.00  0.00     0.087 H 
ATOM      9  H5  M4S d           2.288  -5.468   9.119  0.00  0.00     0.087 H 
ATOM     10  H9  M4S d           4.230  -6.426  10.348  0.00  0.00     0.086 H 
ENDROOT
BRANCH   5  11
ATOM     11  S1  M4S d           6.713  -7.296   9.377  0.00  0.00     0.256 S 
ATOM     12  O2  M4S d           7.511  -6.104   9.784  0.00  0.00    -0.201 OA
ATOM     13  O3  M4S d           6.433  -8.087  10.611  0.00  0.00    -0.201 OA
BRANCH  11  14
ATOM     14  N1  M4S d           7.483  -8.087   8.383  0.00  0.00    -0.324 N 
ATOM     15  H2  M4S d           7.739  -9.032   8.586  0.00  0.00     0.169 HD
ATOM     16  H3  M4S d           7.747  -7.674   7.511  0.00  0.00     0.169 HD
ENDBRANCH  11  14
ENDBRANCH   5  11
BRANCH   3  17
ATOM     17  O1  M4S d           2.197  -5.172   6.450  0.00  0.00    -0.356 OA
BRANCH  17  18
ATOM     18  C6  M4S d           2.427  -4.393   5.280  0.00  0.00     0.010 C 
ATOM     19  H6  M4S d           3.411  -4.647   4.858  0.00  0.00     0.066 H 
ATOM     20  H7  M4S d           2.404  -3.325   5.540  0.00  0.00     0.066 H 
ATOM     21  H8  M4S d           1.644  -4.606   4.538  0.00  0.00     0.066 H 
ENDBRANCH  17  18
ENDBRANCH   3  17
TORSDOF 4
ENDMDL
MODEL 5
REMARK VINA RESULT:      -4.0      1.980      2.400
REMARK  4 active torsions:
REMARK  status: ('A' for Active; 'I' for Inactive)
REMARK    1  A    between atoms: S1_4  and  N1_2 
REMARK    2  A    between atoms: C3_7  and  O1_3 
REMARK    3  A    between atoms: O1_3  and  C6_11 
REMARK    4  A    between atoms: C5_10  and  S1_4 
ROOT
ATOM      1  C1  M4S d           3.709  -6.816   5.761  0.00  0.00    -0.058 A 
ATOM      2  C2  M4S d           4.693  -7.038   6.711  0.00  0.00    -0.049 A 
ATOM      3  C3  M4S d           4.583  -6.526   7.998  0.00  0.00     0.068 A 
ATOM      4  C4  M4S d           3.446  -5.799   8.364  0.00  0.00    -0.049 A 
ATOM      5  C5  M4S d           2.579  -6.071   6.096  0.00  0.00     0.079 A 
ATOM      6  C7  M4S d           2.452  -5.564   7.401  0.00  0.00    -0.058 A 
ATOM      7  H1  M4S d           3.818  -7.218   4.761  0.00  0.00     0.086 H 
ATOM      8  H4  M4S d           5.566  -7.623   6.446  0.00  0.00     0.087 H 
ATOM      9  H5  M4S d           3.334  -5.422   9.374  0.00  0.00     0.087 H 
ATOM     10  H9  M4S d           1.576  -4.984   7.667  0.00  0.00     0.086 H 
ENDROOT
BRANCH   5  11
ATOM     11  S1  M4S d           1.436  -5.803   4.988  0.00  0.00     0.256 S 
ATOM     12  O2  M4S d           0.715  -7.103   4.867  0.00  0.00    -0.201 OA
ATOM     13  O3  M4S d           0.419  -4.756   5.295  0.00  0.00    -0.201 OA
BRANCH  11  14
ATOM     14  N1  M4S d           2.150  -5.517   3.716  0.00  0.00    -0.324 N 
ATOM     15  H2  M4S d           3.148  -5.563   3.682  0.00  0.00     0.169 HD
ATOM     16  H3  M4S d           1.631  -5.278   2.894  0.00  0.00     0.169 HD
ENDBRANCH  11  14
ENDBRANCH   5  11
BRANCH   3  17
ATOM     17  O1  M4S d           5.606  -6.769   8.881  0.00  0.00    -0.356 OA
BRANCH  17  18
ATOM     18  C6  M4S d           5.373  -6.780  10.285  0.00  0.00     0.010 C 
ATOM     19  H6  M4S d           6.236  -6.338  10.804  0.00  0.00     0.066 H 
ATOM     20  H7  M4S d           5.232  -7.816  10.626  0.00  0.00     0.066 H 
ATOM     21  H8  M4S d           4.470  -6.194  10.511  0.00  0.00     0.066 H 
ENDBRANCH  17  18
ENDBRANCH   3  17
TORSDOF 4
ENDMDL
MODEL 6
REMARK VINA RESULT:      -3.3      2.616      4.970
REMARK  4 active torsions:
REMARK  status: ('A' for Active; 'I' for Inactive)
REMARK    1  A    between atoms: S1_4  and  N1_2 
REMARK    2  A    between atoms: C3_7  and  O1_3 
REMARK    3  A    between atoms: O1_3  and  C6_11 
REMARK    4  A    between atoms: C5_10  and  S1_4 
ROOT
ATOM      1  C1  M4S d           4.181  -6.538   6.583  0.00  0.00    -0.058 A 
ATOM      2  C2  M4S d           3.014  -6.256   5.891  0.00  0.00    -0.049 A 
ATOM      3  C3  M4S d           1.842  -5.920   6.559  0.00  0.00     0.068 A 
ATOM      4  C4  M4S d           1.836  -5.831   7.954  0.00  0.00    -0.049 A 
ATOM      5  C5  M4S d           4.191  -6.480   7.976  0.00  0.00     0.079 A 
ATOM      6  C7  M4S d           3.015  -6.126   8.658  0.00  0.00    -0.058 A 
ATOM      7  H1  M4S d           5.082  -6.805   6.043  0.00  0.00     0.086 H 
ATOM      8  H4  M4S d           3.015  -6.297   4.808  0.00  0.00     0.087 H 
ATOM      9  H5  M4S d           0.937  -5.538   8.484  0.00  0.00     0.087 H 
ATOM     10  H9  M4S d           3.017  -6.079   9.740  0.00  0.00     0.086 H 
ENDROOT
BRANCH   5  11
ATOM     11  S1  M4S d           5.548  -6.819   8.784  0.00  0.00     0.256 S 
ATOM     12  O2  M4S d           6.043  -8.087   8.174  0.00  0.00    -0.201 OA
ATOM     13  O3  M4S d           6.656  -5.824   8.705  0.00  0.00    -0.201 OA
BRANCH  11  14
ATOM     14  N1  M4S d           5.141  -7.077  10.189  0.00  0.00    -0.324 N 
ATOM     15  H2  M4S d           4.910  -6.312  10.791  0.00  0.00     0.169 HD
ATOM     16  H3  M4S d           5.099  -8.015  10.534  0.00  0.00     0.169 HD
ENDBRANCH  11  14
ENDBRANCH   5  11
BRANCH   3  17
ATOM     17  O1  M4S d           0.719  -5.673   5.809  0.00  0.00    -0.356 OA
BRANCH  17  18
ATOM     18  C6  M4S d           0.802  -5.537   4.393  0.00  0.00     0.010 C 
ATOM     19  H6  M4S d           0.453  -6.463   3.914  0.00  0.00     0.066 H 
ATOM     20  H7  M4S d           1.846  -5.345   4.104  0.00  0.00     0.066 H 
ATOM     21  H8  M4S d           0.172  -4.696   4.069  0.00  0.00     0.066 H 
ENDBRANCH  17  18
ENDBRANCH   3  17
TORSDOF 4
ENDMDL
