MODEL 1
REMARK VINA RESULT:      -8.4      0.000      0.000
REMARK  13 active torsions:
REMARK  status: ('A' for Active; 'I' for Inactive)
REMARK    1  A    between atoms: C6_6  and  O25_25 
REMARK    2  A    between atoms: C8_8  and  C27_27 
REMARK    3  A    between atoms: C10_10  and  O28_28 
REMARK    4  A    between atoms: C11_11  and  O30_30 
REMARK    5  A    between atoms: C12_12  and  C31_31 
REMARK    6  A    between atoms: C14_14  and  C32_32 
REMARK    7  A    between atoms: C15_15  and  O33_33 
REMARK    8  A    between atoms: C16_16  and  O37_37 
REMARK    9  A    between atoms: C20_20  and  C39_39 
REMARK   10  A    between atoms: O25_25  and  C26_26 
REMARK   11  A    between atoms: O28_28  and  C29_29 
REMARK   12  A    between atoms: O33_33  and  C34_34 
REMARK       I    between atoms: C34_34  and  N36_36 
REMARK   13  A    between atoms: O37_37  and  C38_38 
ROOT
ATOM      1  C1  GMY d          25.977 -34.303  -5.326  0.00  0.00     0.032 A 
ATOM      2  C2  GMY d          26.038 -34.005  -3.829  0.00  0.00     0.207 A 
ATOM      3  C3  GMY d          25.571 -32.643  -3.295  0.00  0.00     0.090 A 
ATOM      4  C4  GMY d          25.054 -31.632  -4.217  0.00  0.00    -0.002 A 
ATOM      5  C5  GMY d          25.005 -31.923  -5.722  0.00  0.00     0.208 A 
ATOM      6  C6  GMY d          25.462 -33.286  -6.246  0.00  0.00     0.128 A 
ATOM      7  C7  GMY d          25.880 -35.785  -5.729  0.00  0.00    -0.031 C 
ATOM      8  C8  GMY d          24.377 -36.062  -5.578  0.00  0.00    -0.051 C 
ATOM      9  C9  GMY d          23.767 -36.273  -6.972  0.00  0.00    -0.035 C 
ATOM     10  C10 GMY d          22.429 -37.017  -6.868  0.00  0.00     0.063 C 
ATOM     11  C11 GMY d          21.420 -36.429  -7.877  0.00  0.00     0.067 C 
ATOM     12  C12 GMY d          21.204 -34.928  -7.581  0.00  0.00    -0.014 C 
ATOM     13  C13 GMY d          20.312 -34.785  -6.342  0.00  0.00    -0.092 C 
ATOM     14  C14 GMY d          20.467 -33.650  -5.433  0.00  0.00    -0.055 C 
ATOM     15  C15 GMY d          19.533 -33.549  -4.232  0.00  0.00     0.099 C 
ATOM     16  C16 GMY d          20.370 -33.696  -2.953  0.00  0.00     0.083 C 
ATOM     17  C17 GMY d          20.833 -35.159  -2.831  0.00  0.00    -0.073 C 
ATOM     18  C18 GMY d          22.117 -35.419  -2.164  0.00  0.00    -0.083 C 
ATOM     19  C19 GMY d          23.129 -34.273  -2.030  0.00  0.00    -0.072 C 
ATOM     20  C20 GMY d          24.383 -34.534  -1.308  0.00  0.00     0.006 C 
ATOM     21  C21 GMY d          25.192 -33.315  -0.871  0.00  0.00     0.251 C 
ATOM     22  N22 GMY d          25.632 -32.353  -1.864  0.00  0.00    -0.320 N 
ATOM     23  O23 GMY d          26.453 -34.853  -3.086  0.00  0.00    -0.285 OA
ATOM     24  O24 GMY d          24.592 -31.108  -6.493  0.00  0.00    -0.285 OA
ATOM     25  O40 GMY d          25.459 -33.164   0.284  0.00  0.00    -0.268 OA
ATOM     26  H1  GMY d          24.705 -30.673  -3.836  0.00  0.00     0.093 H 
ATOM     27  H2  GMY d          26.473 -36.421  -5.055  0.00  0.00     0.041 H 
ATOM     28  H3  GMY d          26.213 -35.939  -6.766  0.00  0.00     0.041 H 
ATOM     29  H4  GMY d          23.900 -35.173  -5.139  0.00  0.00     0.040 H 
ATOM     30  H5  GMY d          24.464 -36.864  -7.585  0.00  0.00     0.037 H 
ATOM     31  H6  GMY d          23.601 -35.294  -7.446  0.00  0.00     0.037 H 
ATOM     32  H7  GMY d          22.026 -36.913  -5.850  0.00  0.00     0.087 H 
ATOM     33  H8  GMY d          20.463 -36.963  -7.788  0.00  0.00     0.087 H 
ATOM     34  H9  GMY d          22.171 -34.427  -7.427  0.00  0.00     0.049 H 
ATOM     35  H10 GMY d          19.553 -35.538  -6.136  0.00  0.00     0.078 H 
ATOM     36  H11 GMY d          18.739 -34.309  -4.274  0.00  0.00     0.096 H 
ATOM     37  H12 GMY d          21.247 -33.035  -3.008  0.00  0.00     0.094 H 
ATOM     38  H13 GMY d          20.230 -35.975  -3.227  0.00  0.00     0.081 H 
ATOM     39  H14 GMY d          22.346 -36.408  -1.771  0.00  0.00     0.083 H 
ATOM     40  H15 GMY d          22.924 -33.293  -2.458  0.00  0.00     0.084 H 
ATOM     41  H16 GMY d          25.986 -31.468  -1.561  0.00  0.00     0.169 HD
ENDROOT
BRANCH  15  42
ATOM     42  O33 GMY d          19.000 -32.237  -4.264  0.00  0.00    -0.291 OA
BRANCH  42  43
ATOM     43  C34 GMY d          17.577 -32.184  -4.411  0.00  0.00     0.359 C 
ATOM     44  O35 GMY d          16.961 -32.973  -5.081  0.00  0.00    -0.239 OA
ATOM     45  N36 GMY d          16.886 -31.091  -3.732  0.00  0.00    -0.346 N 
ATOM     46  H33 GMY d          15.892 -31.007  -3.802  0.00  0.00     0.161 HD
ATOM     47  H34 GMY d          17.407 -30.426  -3.197  0.00  0.00     0.161 HD
ENDBRANCH  42  43
ENDBRANCH  15  42
BRANCH  14  48
ATOM     48  C32 GMY d          21.529 -32.562  -5.673  0.00  0.00    -0.052 C 
ATOM     49  H30 GMY d          21.835 -32.574  -6.730  0.00  0.00     0.033 H 
ATOM     50  H31 GMY d          22.403 -32.756  -5.035  0.00  0.00     0.033 H 
ATOM     51  H32 GMY d          21.106 -31.577  -5.426  0.00  0.00     0.033 H 
ENDBRANCH  14  48
BRANCH  16  52
ATOM     52  O37 GMY d          19.578 -33.341  -1.815  0.00  0.00    -0.384 OA
BRANCH  52  53
ATOM     53  C38 GMY d          18.603 -34.349  -1.538  0.00  0.00     0.005 C 
ATOM     54  H35 GMY d          18.170 -34.176  -0.542  0.00  0.00     0.066 H 
ATOM     55  H36 GMY d          19.082 -35.339  -1.563  0.00  0.00     0.066 H 
ATOM     56  H37 GMY d          17.807 -34.307  -2.295  0.00  0.00     0.066 H 
ENDBRANCH  52  53
ENDBRANCH  16  52
BRANCH  12  57
ATOM     57  C31 GMY d          20.436 -34.284  -8.747  0.00  0.00    -0.067 C 
ATOM     58  H27 GMY d          21.092 -34.223  -9.628  0.00  0.00     0.028 H 
ATOM     59  H28 GMY d          20.112 -33.272  -8.459  0.00  0.00     0.028 H 
ATOM     60  H29 GMY d          19.554 -34.897  -8.988  0.00  0.00     0.028 H 
ENDBRANCH  12  57
BRANCH  11  61
ATOM     61  O30 GMY d          21.927 -36.576  -9.204  0.00  0.00    -0.392 OA
ATOM     62  H26 GMY d          21.223 -36.850  -9.782  0.00  0.00     0.210 HD
ENDBRANCH  11  61
BRANCH  10  63
ATOM     63  O28 GMY d          22.666 -38.399  -7.152  0.00  0.00    -0.388 OA
BRANCH  63  64
ATOM     64  C29 GMY d          21.533 -39.194  -6.767  0.00  0.00     0.005 C 
ATOM     65  H23 GMY d          21.132 -38.824  -5.812  0.00  0.00     0.066 H 
ATOM     66  H24 GMY d          21.844 -40.243  -6.651  0.00  0.00     0.066 H 
ATOM     67  H25 GMY d          20.756 -39.125  -7.542  0.00  0.00     0.066 H 
ENDBRANCH  63  64
ENDBRANCH  10  63
BRANCH  20  68
ATOM     68  C39 GMY d          24.530 -35.811  -0.466  0.00  0.00    -0.046 C 
ATOM     69  H38 GMY d          23.924 -36.615  -0.910  0.00  0.00     0.033 H 
ATOM     70  H39 GMY d          24.184 -35.616   0.560  0.00  0.00     0.033 H 
ATOM     71  H40 GMY d          25.586 -36.117  -0.445  0.00  0.00     0.033 H 
ENDBRANCH  20  68
BRANCH   8  72
ATOM     72  C27 GMY d          24.155 -37.231  -4.602  0.00  0.00    -0.073 C 
ATOM     73  H20 GMY d          23.191 -37.101  -4.087  0.00  0.00     0.028 H 
ATOM     74  H21 GMY d          24.967 -37.250  -3.862  0.00  0.00     0.028 H 
ATOM     75  H22 GMY d          24.146 -38.179  -5.161  0.00  0.00     0.028 H 
ENDBRANCH   8  72
BRANCH   6  76
ATOM     76  O25 GMY d          25.402 -33.538  -7.649  0.00  0.00    -0.351 OA
BRANCH  76  77
ATOM     77  C26 GMY d          26.690 -33.259  -8.215  0.00  0.00     0.011 C 
ATOM     78  H17 GMY d          26.798 -32.174  -8.363  0.00  0.00     0.067 H 
ATOM     79  H18 GMY d          26.784 -33.772  -9.184  0.00  0.00     0.067 H 
ATOM     80  H19 GMY d          27.476 -33.616  -7.533  0.00  0.00     0.067 H 
ENDBRANCH  76  77
ENDBRANCH   6  76
TORSDOF 13
ENDMDL
MODEL 2
REMARK VINA RESULT:      -5.8      2.326      6.137
REMARK  13 active torsions:
REMARK  status: ('A' for Active; 'I' for Inactive)
REMARK    1  A    between atoms: C6_6  and  O25_25 
REMARK    2  A    between atoms: C8_8  and  C27_27 
REMARK    3  A    between atoms: C10_10  and  O28_28 
REMARK    4  A    between atoms: C11_11  and  O30_30 
REMARK    5  A    between atoms: C12_12  and  C31_31 
REMARK    6  A    between atoms: C14_14  and  C32_32 
REMARK    7  A    between atoms: C15_15  and  O33_33 
REMARK    8  A    between atoms: C16_16  and  O37_37 
REMARK    9  A    between atoms: C20_20  and  C39_39 
REMARK   10  A    between atoms: O25_25  and  C26_26 
REMARK   11  A    between atoms: O28_28  and  C29_29 
REMARK   12  A    between atoms: O33_33  and  C34_34 
REMARK       I    between atoms: C34_34  and  N36_36 
REMARK   13  A    between atoms: O37_37  and  C38_38 
ROOT
ATOM      1  C1  GMY d          24.689 -37.098  -6.540  0.00  0.00     0.032 A 
ATOM      2  C2  GMY d          23.509 -37.616  -7.359  0.00  0.00     0.207 A 
ATOM      3  C3  GMY d          22.281 -38.209  -6.653  0.00  0.00     0.090 A 
ATOM      4  C4  GMY d          22.233 -38.267  -5.192  0.00  0.00    -0.002 A 
ATOM      5  C5  GMY d          23.421 -37.760  -4.366  0.00  0.00     0.208 A 
ATOM      6  C6  GMY d          24.637 -37.161  -5.077  0.00  0.00     0.128 A 
ATOM      7  C7  GMY d          25.571 -36.028  -7.205  0.00  0.00    -0.031 C 
ATOM      8  C8  GMY d          24.776 -34.741  -6.935  0.00  0.00    -0.051 C 
ATOM      9  C9  GMY d          25.549 -33.880  -5.926  0.00  0.00    -0.035 C 
ATOM     10  C10 GMY d          25.079 -32.421  -5.990  0.00  0.00     0.063 C 
ATOM     11  C11 GMY d          25.013 -31.826  -4.568  0.00  0.00     0.067 C 
ATOM     12  C12 GMY d          24.031 -32.649  -3.705  0.00  0.00    -0.014 C 
ATOM     13  C13 GMY d          22.594 -32.298  -4.106  0.00  0.00    -0.092 C 
ATOM     14  C14 GMY d          21.527 -33.294  -4.024  0.00  0.00    -0.055 C 
ATOM     15  C15 GMY d          20.113 -32.876  -4.412  0.00  0.00     0.099 C 
ATOM     16  C16 GMY d          19.699 -33.666  -5.662  0.00  0.00     0.083 C 
ATOM     17  C17 GMY d          20.495 -33.133  -6.868  0.00  0.00    -0.073 C 
ATOM     18  C18 GMY d          20.813 -34.077  -7.950  0.00  0.00    -0.083 C 
ATOM     19  C19 GMY d          20.762 -35.583  -7.662  0.00  0.00    -0.072 C 
ATOM     20  C20 GMY d          21.025 -36.512  -8.769  0.00  0.00     0.006 C 
ATOM     21  C21 GMY d          20.615 -37.967  -8.559  0.00  0.00     0.251 C 
ATOM     22  N22 GMY d          21.152 -38.709  -7.434  0.00  0.00    -0.320 N 
ATOM     23  O23 GMY d          23.561 -37.548  -8.558  0.00  0.00    -0.285 OA
ATOM     24  O24 GMY d          23.405 -37.805  -3.172  0.00  0.00    -0.285 OA
ATOM     25  O40 GMY d          19.856 -38.485  -9.324  0.00  0.00    -0.268 OA
ATOM     26  H1  GMY d          21.353 -38.670  -4.691  0.00  0.00     0.093 H 
ATOM     27  H2  GMY d          25.678 -36.212  -8.284  0.00  0.00     0.041 H 
ATOM     28  H3  GMY d          26.567 -35.986  -6.740  0.00  0.00     0.041 H 
ATOM     29  H4  GMY d          23.816 -35.015  -6.472  0.00  0.00     0.040 H 
ATOM     30  H5  GMY d          26.623 -33.925  -6.160  0.00  0.00     0.037 H 
ATOM     31  H6  GMY d          25.378 -34.271  -4.911  0.00  0.00     0.037 H 
ATOM     32  H7  GMY d          24.080 -32.373  -6.450  0.00  0.00     0.087 H 
ATOM     33  H8  GMY d          24.666 -30.783  -4.625  0.00  0.00     0.087 H 
ATOM     34  H9  GMY d          24.221 -33.725  -3.834  0.00  0.00     0.049 H 
ATOM     35  H10 GMY d          22.365 -31.292  -4.457  0.00  0.00     0.078 H 
ATOM     36  H11 GMY d          20.047 -31.793  -4.590  0.00  0.00     0.096 H 
ATOM     37  H12 GMY d          19.923 -34.733  -5.515  0.00  0.00     0.094 H 
ATOM     38  H13 GMY d          20.812 -32.093  -6.918  0.00  0.00     0.081 H 
ATOM     39  H14 GMY d          21.080 -33.712  -8.941  0.00  0.00     0.083 H 
ATOM     40  H15 GMY d          20.537 -35.953  -6.663  0.00  0.00     0.084 H 
ATOM     41  H16 GMY d          20.739 -39.585  -7.187  0.00  0.00     0.169 HD
ENDROOT
BRANCH  15  42
ATOM     42  O33 GMY d          19.281 -33.280  -3.338  0.00  0.00    -0.291 OA
BRANCH  42  43
ATOM     43  C34 GMY d          18.529 -32.215  -2.746  0.00  0.00     0.359 C 
ATOM     44  O35 GMY d          18.731 -31.816  -1.628  0.00  0.00    -0.239 OA
ATOM     45  N36 GMY d          17.457 -31.639  -3.554  0.00  0.00    -0.346 N 
ATOM     46  H33 GMY d          16.900 -30.892  -3.189  0.00  0.00     0.161 HD
ATOM     47  H34 GMY d          17.279 -31.991  -4.473  0.00  0.00     0.161 HD
ENDBRANCH  42  43
ENDBRANCH  15  42
BRANCH  14  48
ATOM     48  C32 GMY d          21.798 -34.730  -3.543  0.00  0.00    -0.052 C 
ATOM     49  H30 GMY d          22.778 -34.772  -3.045  0.00  0.00     0.033 H 
ATOM     50  H31 GMY d          21.796 -35.412  -4.406  0.00  0.00     0.033 H 
ATOM     51  H32 GMY d          21.014 -35.034  -2.834  0.00  0.00     0.033 H 
ENDBRANCH  14  48
BRANCH  16  52
ATOM     52  O37 GMY d          18.297 -33.502  -5.895  0.00  0.00    -0.384 OA
BRANCH  52  53
ATOM     53  C38 GMY d          17.648 -34.770  -6.011  0.00  0.00     0.005 C 
ATOM     54  H35 GMY d          16.612 -34.686  -5.652  0.00  0.00     0.066 H 
ATOM     55  H36 GMY d          18.187 -35.515  -5.407  0.00  0.00     0.066 H 
ATOM     56  H37 GMY d          17.645 -35.085  -7.065  0.00  0.00     0.066 H 
ENDBRANCH  52  53
ENDBRANCH  16  52
BRANCH  12  57
ATOM     57  C31 GMY d          24.184 -32.242  -2.230  0.00  0.00    -0.067 C 
ATOM     58  H27 GMY d          23.911 -31.182  -2.112  0.00  0.00     0.028 H 
ATOM     59  H28 GMY d          25.228 -32.388  -1.915  0.00  0.00     0.028 H 
ATOM     60  H29 GMY d          23.522 -32.862  -1.608  0.00  0.00     0.028 H 
ENDBRANCH  12  57
BRANCH  11  61
ATOM     61  O30 GMY d          26.310 -31.865  -3.970  0.00  0.00    -0.392 OA
ATOM     62  H26 GMY d          26.254 -31.547  -3.076  0.00  0.00     0.210 HD
ENDBRANCH  11  61
BRANCH  10  63
ATOM     63  O28 GMY d          26.011 -31.688  -6.791  0.00  0.00    -0.388 OA
BRANCH  63  64
ATOM     64  C29 GMY d          25.646 -30.300  -6.848  0.00  0.00     0.005 C 
ATOM     65  H23 GMY d          26.438 -29.693  -6.383  0.00  0.00     0.066 H 
ATOM     66  H24 GMY d          24.702 -30.147  -6.305  0.00  0.00     0.066 H 
ATOM     67  H25 GMY d          25.520 -29.996  -7.897  0.00  0.00     0.066 H 
ENDBRANCH  63  64
ENDBRANCH  10  63
BRANCH  20  68
ATOM     68  C39 GMY d          21.049 -35.992 -10.216  0.00  0.00    -0.046 C 
ATOM     69  H38 GMY d          20.054 -35.604 -10.482  0.00  0.00     0.033 H 
ATOM     70  H39 GMY d          21.315 -36.814 -10.896  0.00  0.00     0.033 H 
ATOM     71  H40 GMY d          21.792 -35.187 -10.304  0.00  0.00     0.033 H 
ENDBRANCH  20  68
BRANCH   8  72
ATOM     72  C27 GMY d          24.457 -34.034  -8.264  0.00  0.00    -0.073 C 
ATOM     73  H20 GMY d          24.286 -32.963  -8.078  0.00  0.00     0.028 H 
ATOM     74  H21 GMY d          23.555 -34.477  -8.709  0.00  0.00     0.028 H 
ATOM     75  H22 GMY d          25.304 -34.154  -8.956  0.00  0.00     0.028 H 
ENDBRANCH   8  72
BRANCH   6  76
ATOM     76  O25 GMY d          25.730 -36.691  -4.289  0.00  0.00    -0.351 OA
BRANCH  76  77
ATOM     77  C26 GMY d          26.766 -37.683  -4.313  0.00  0.00     0.011 C 
ATOM     78  H17 GMY d          27.748 -37.187  -4.308  0.00  0.00     0.067 H 
ATOM     79  H18 GMY d          26.668 -38.294  -5.223  0.00  0.00     0.067 H 
ATOM     80  H19 GMY d          26.676 -38.328  -3.426  0.00  0.00     0.067 H 
ENDBRANCH  76  77
ENDBRANCH   6  76
TORSDOF 13
ENDMDL
MODEL 3
REMARK VINA RESULT:      -5.7      2.257      7.512
REMARK  13 active torsions:
REMARK  status: ('A' for Active; 'I' for Inactive)
REMARK    1  A    between atoms: C6_6  and  O25_25 
REMARK    2  A    between atoms: C8_8  and  C27_27 
REMARK    3  A    between atoms: C10_10  and  O28_28 
REMARK    4  A    between atoms: C11_11  and  O30_30 
REMARK    5  A    between atoms: C12_12  and  C31_31 
REMARK    6  A    between atoms: C14_14  and  C32_32 
REMARK    7  A    between atoms: C15_15  and  O33_33 
REMARK    8  A    between atoms: C16_16  and  O37_37 
REMARK    9  A    between atoms: C20_20  and  C39_39 
REMARK   10  A    between atoms: O25_25  and  C26_26 
REMARK   11  A    between atoms: O28_28  and  C29_29 
REMARK   12  A    between atoms: O33_33  and  C34_34 
REMARK       I    between atoms: C34_34  and  N36_36 
REMARK   13  A    between atoms: O37_37  and  C38_38 
ROOT
ATOM      1  C1  GMY d          21.398 -35.486  -4.171  0.00  0.00     0.032 A 
ATOM      2  C2  GMY d          21.506 -36.225  -5.503  0.00  0.00     0.207 A 
ATOM      3  C3  GMY d          21.365 -35.456  -6.825  0.00  0.00     0.090 A 
ATOM      4  C4  GMY d          21.139 -34.011  -6.812  0.00  0.00    -0.002 A 
ATOM      5  C5  GMY d          21.016 -33.268  -5.476  0.00  0.00     0.208 A 
ATOM      6  C6  GMY d          21.168 -34.038  -4.163  0.00  0.00     0.128 A 
ATOM      7  C7  GMY d          22.104 -36.131  -2.967  0.00  0.00    -0.031 C 
ATOM      8  C8  GMY d          23.554 -35.655  -3.151  0.00  0.00    -0.051 C 
ATOM      9  C9  GMY d          23.894 -34.652  -2.039  0.00  0.00    -0.035 C 
ATOM     10  C10 GMY d          25.414 -34.524  -1.875  0.00  0.00     0.063 C 
ATOM     11  C11 GMY d          25.793 -33.052  -1.613  0.00  0.00     0.067 C 
ATOM     12  C12 GMY d          25.324 -32.176  -2.796  0.00  0.00    -0.014 C 
ATOM     13  C13 GMY d          26.269 -32.389  -3.984  0.00  0.00    -0.092 C 
ATOM     14  C14 GMY d          25.780 -32.294  -5.359  0.00  0.00    -0.055 C 
ATOM     15  C15 GMY d          26.774 -32.491  -6.498  0.00  0.00     0.099 C 
ATOM     16  C16 GMY d          26.387 -33.763  -7.267  0.00  0.00     0.083 C 
ATOM     17  C17 GMY d          26.712 -34.987  -6.391  0.00  0.00    -0.073 C 
ATOM     18  C18 GMY d          25.871 -36.183  -6.546  0.00  0.00    -0.083 C 
ATOM     19  C19 GMY d          24.487 -36.040  -7.192  0.00  0.00    -0.072 C 
ATOM     20  C20 GMY d          23.684 -37.255  -7.393  0.00  0.00     0.006 C 
ATOM     21  C21 GMY d          22.500 -37.147  -8.350  0.00  0.00     0.251 C 
ATOM     22  N22 GMY d          21.465 -36.161  -8.101  0.00  0.00    -0.320 N 
ATOM     23  O23 GMY d          21.705 -37.410  -5.493  0.00  0.00    -0.285 OA
ATOM     24  O24 GMY d          20.825 -32.089  -5.444  0.00  0.00    -0.285 OA
ATOM     25  O40 GMY d          22.433 -37.876  -9.294  0.00  0.00    -0.268 OA
ATOM     26  H1  GMY d          21.058 -33.463  -7.750  0.00  0.00     0.093 H 
ATOM     27  H2  GMY d          22.037 -37.228  -3.004  0.00  0.00     0.041 H 
ATOM     28  H3  GMY d          21.683 -35.770  -2.017  0.00  0.00     0.041 H 
ATOM     29  H4  GMY d          23.627 -35.124  -4.111  0.00  0.00     0.040 H 
ATOM     30  H5  GMY d          23.455 -35.000  -1.091  0.00  0.00     0.037 H 
ATOM     31  H6  GMY d          23.474 -33.669  -2.298  0.00  0.00     0.037 H 
ATOM     32  H7  GMY d          25.916 -34.871  -2.790  0.00  0.00     0.087 H 
ATOM     33  H8  GMY d          26.885 -32.970  -1.506  0.00  0.00     0.087 H 
ATOM     34  H9  GMY d          24.289 -32.429  -3.070  0.00  0.00     0.049 H 
ATOM     35  H10 GMY d          27.319 -32.614  -3.802  0.00  0.00     0.078 H 
ATOM     36  H11 GMY d          27.807 -32.554  -6.126  0.00  0.00     0.096 H 
ATOM     37  H12 GMY d          25.310 -33.745  -7.491  0.00  0.00     0.094 H 
ATOM     38  H13 GMY d          27.536 -34.967  -5.680  0.00  0.00     0.081 H 
ATOM     39  H14 GMY d          26.226 -37.155  -6.208  0.00  0.00     0.083 H 
ATOM     40  H15 GMY d          24.109 -35.064  -7.493  0.00  0.00     0.084 H 
ATOM     41  H16 GMY d          20.801 -35.959  -8.822  0.00  0.00     0.169 HD
ENDROOT
BRANCH  15  42
ATOM     42  O33 GMY d          26.599 -31.381  -7.362  0.00  0.00    -0.291 OA
BRANCH  42  43
ATOM     43  C34 GMY d          27.767 -30.569  -7.519  0.00  0.00     0.359 C 
ATOM     44  O35 GMY d          28.181 -30.222  -8.595  0.00  0.00    -0.239 OA
ATOM     45  N36 GMY d          28.477 -30.196  -6.297  0.00  0.00    -0.346 N 
ATOM     46  H33 GMY d          29.299 -29.629  -6.350  0.00  0.00     0.161 HD
ATOM     47  H34 GMY d          28.140 -30.508  -5.409  0.00  0.00     0.161 HD
ENDBRANCH  42  43
ENDBRANCH  15  42
BRANCH  14  48
ATOM     48  C32 GMY d          24.305 -31.987  -5.672  0.00  0.00    -0.052 C 
ATOM     49  H30 GMY d          24.192 -30.917  -5.899  0.00  0.00     0.033 H 
ATOM     50  H31 GMY d          23.683 -32.246  -4.802  0.00  0.00     0.033 H 
ATOM     51  H32 GMY d          23.983 -32.580  -6.541  0.00  0.00     0.033 H 
ENDBRANCH  14  48
BRANCH  16  52
ATOM     52  O37 GMY d          27.125 -33.831  -8.490  0.00  0.00    -0.384 OA
BRANCH  52  53
ATOM     53  C38 GMY d          28.509 -34.082  -8.237  0.00  0.00     0.005 C 
ATOM     54  H35 GMY d          28.679 -35.167  -8.168  0.00  0.00     0.066 H 
ATOM     55  H36 GMY d          28.801 -33.605  -7.290  0.00  0.00     0.066 H 
ATOM     56  H37 GMY d          29.114 -33.669  -9.057  0.00  0.00     0.066 H 
ENDBRANCH  52  53
ENDBRANCH  16  52
BRANCH  12  57
ATOM     57  C31 GMY d          25.438 -30.692  -2.409  0.00  0.00    -0.067 C 
ATOM     58  H27 GMY d          25.014 -30.542  -1.405  0.00  0.00     0.028 H 
ATOM     59  H28 GMY d          24.885 -30.079  -3.137  0.00  0.00     0.028 H 
ATOM     60  H29 GMY d          26.497 -30.394  -2.408  0.00  0.00     0.028 H 
ENDBRANCH  12  57
BRANCH  11  61
ATOM     61  O30 GMY d          25.162 -32.598  -0.415  0.00  0.00    -0.392 OA
ATOM     62  H26 GMY d          24.605 -33.288  -0.071  0.00  0.00     0.210 HD
ENDBRANCH  11  61
BRANCH  10  63
ATOM     63  O28 GMY d          25.812 -35.342  -0.771  0.00  0.00    -0.388 OA
BRANCH  63  64
ATOM     64  C29 GMY d          24.689 -35.627   0.078  0.00  0.00     0.005 C 
ATOM     65  H23 GMY d          23.843 -34.983  -0.205  0.00  0.00     0.066 H 
ATOM     66  H24 GMY d          24.962 -35.433   1.125  0.00  0.00     0.066 H 
ATOM     67  H25 GMY d          24.400 -36.682  -0.038  0.00  0.00     0.066 H 
ENDBRANCH  63  64
ENDBRANCH  10  63
BRANCH  20  68
ATOM     68  C39 GMY d          24.337 -38.638  -7.239  0.00  0.00    -0.046 C 
ATOM     69  H38 GMY d          24.319 -38.936  -6.180  0.00  0.00     0.033 H 
ATOM     70  H39 GMY d          25.379 -38.593  -7.589  0.00  0.00     0.033 H 
ATOM     71  H40 GMY d          23.781 -39.374  -7.837  0.00  0.00     0.033 H 
ENDBRANCH  20  68
BRANCH   8  72
ATOM     72  C27 GMY d          24.498 -36.868  -3.225  0.00  0.00    -0.073 C 
ATOM     73  H20 GMY d          25.542 -36.524  -3.177  0.00  0.00     0.028 H 
ATOM     74  H21 GMY d          24.332 -37.404  -4.171  0.00  0.00     0.028 H 
ATOM     75  H22 GMY d          24.295 -37.543  -2.381  0.00  0.00     0.028 H 
ENDBRANCH   8  72
BRANCH   6  76
ATOM     76  O25 GMY d          21.055 -33.327  -2.932  0.00  0.00    -0.351 OA
BRANCH  76  77
ATOM     77  C26 GMY d          19.680 -33.341  -2.524  0.00  0.00     0.011 C 
ATOM     78  H17 GMY d          19.545 -34.076  -1.717  0.00  0.00     0.067 H 
ATOM     79  H18 GMY d          19.046 -33.616  -3.380  0.00  0.00     0.067 H 
ATOM     80  H19 GMY d          19.395 -32.342  -2.162  0.00  0.00     0.067 H 
ENDBRANCH  76  77
ENDBRANCH   6  76
TORSDOF 13
ENDMDL
