MODEL 1
REMARK VINA RESULT:      -7.1      0.000      0.000
REMARK  6 active torsions:
REMARK  status: ('A' for Active; 'I' for Inactive)
REMARK    1  A    between atoms: CAA_1  and  CAH_2 
REMARK    2  A    between atoms: CAH_2  and  CAB_3 
REMARK    3  A    between atoms: CAH_2  and  CAL_4 
REMARK    4  A    between atoms: CAI_7  and  OAC_8 
REMARK    5  A    between atoms: CAJ_9  and  OAD_10 
REMARK    6  A    between atoms: CAK_11  and  OAE_12 
ROOT
ATOM      1  CAL ZXD d          -0.018  28.360  25.539  0.00  0.00     0.131 C 
ATOM      2  NAG ZXD d          -0.182  27.213  26.449  0.00  0.00    -0.066 N 
ATOM      3  CAF ZXD d          -1.602  26.841  26.569  0.00  0.00     0.108 C 
ATOM      4  CAI ZXD d          -2.118  26.413  25.189  0.00  0.00     0.086 C 
ATOM      5  CAJ ZXD d          -1.994  27.591  24.219  0.00  0.00     0.088 C 
ATOM      6  CAK ZXD d          -0.523  28.002  24.137  0.00  0.00     0.090 C 
ATOM      7  H8  ZXD d          -0.637  29.187  25.917  0.00  0.00     0.089 H 
ATOM      8  H9  ZXD d           0.174  27.460  27.359  0.00  0.00     0.277 HD
ATOM      9  H10 ZXD d           0.336  26.427  26.088  0.00  0.00     0.277 HD
ATOM     10  H11 ZXD d          -2.181  27.704  26.929  0.00  0.00     0.079 H 
ATOM     11  H12 ZXD d          -1.707  26.007  27.278  0.00  0.00     0.079 H 
ATOM     12  H13 ZXD d          -1.507  25.576  24.822  0.00  0.00     0.089 H 
ATOM     13  H15 ZXD d          -2.590  28.437  24.591  0.00  0.00     0.091 H 
ATOM     14  H17 ZXD d          -0.416  28.871  23.472  0.00  0.00     0.090 H 
ENDROOT
BRANCH   1  15
ATOM     15  CAH ZXD d           1.439  28.837  25.532  0.00  0.00    -0.031 C 
ATOM     16  H4  ZXD d           1.581  29.526  24.687  0.00  0.00     0.042 H 
BRANCH  15  17
ATOM     17  CAA ZXD d           1.750  29.572  26.840  0.00  0.00    -0.071 C 
ATOM     18  H1  ZXD d           1.177  29.117  27.661  0.00  0.00     0.028 H 
ATOM     19  H2  ZXD d           1.469  30.631  26.740  0.00  0.00     0.028 H 
ATOM     20  H3  ZXD d           2.825  29.497  27.056  0.00  0.00     0.028 H 
ENDBRANCH  15  17
BRANCH  15  21
ATOM     21  CAB ZXD d           2.407  27.660  25.381  0.00  0.00    -0.071 C 
ATOM     22  H5  ZXD d           2.509  27.143  26.346  0.00  0.00     0.028 H 
ATOM     23  H6  ZXD d           3.390  28.033  25.059  0.00  0.00     0.028 H 
ATOM     24  H7  ZXD d           2.017  26.957  24.629  0.00  0.00     0.028 H 
ENDBRANCH  15  21
ENDBRANCH   1  15
BRANCH   6  25
ATOM     25  OAE ZXD d           0.238  26.906  23.626  0.00  0.00    -0.391 OA
ATOM     26  H18 ZXD d           0.189  26.177  24.234  0.00  0.00     0.210 HD
ENDBRANCH   6  25
BRANCH   5  27
ATOM     27  OAD ZXD d          -2.473  27.211  22.928  0.00  0.00    -0.390 OA
ATOM     28  H16 ZXD d          -3.200  27.771  22.683  0.00  0.00     0.210 HD
ENDBRANCH   5  27
BRANCH   4  29
ATOM     29  OAC ZXD d          -3.482  25.993  25.267  0.00  0.00    -0.391 OA
ATOM     30  H14 ZXD d          -3.517  25.081  25.530  0.00  0.00     0.210 HD
ENDBRANCH   4  29
TORSDOF 6
ENDMDL
MODEL 2
REMARK VINA RESULT:      -5.8      2.468      4.561
REMARK  6 active torsions:
REMARK  status: ('A' for Active; 'I' for Inactive)
REMARK    1  A    between atoms: CAA_1  and  CAH_2 
REMARK    2  A    between atoms: CAH_2  and  CAB_3 
REMARK    3  A    between atoms: CAH_2  and  CAL_4 
REMARK    4  A    between atoms: CAI_7  and  OAC_8 
REMARK    5  A    between atoms: CAJ_9  and  OAD_10 
REMARK    6  A    between atoms: CAK_11  and  OAE_12 
ROOT
ATOM      1  CAL ZXD d          -1.737  28.225  26.403  0.00  0.00     0.131 C 
ATOM      2  NAG ZXD d          -1.375  27.747  25.058  0.00  0.00    -0.066 N 
ATOM      3  CAF ZXD d          -0.256  28.530  24.508  0.00  0.00     0.108 C 
ATOM      4  CAI ZXD d           0.970  28.339  25.411  0.00  0.00     0.086 C 
ATOM      5  CAJ ZXD d           0.645  28.855  26.816  0.00  0.00     0.088 C 
ATOM      6  CAK ZXD d          -0.549  28.068  27.359  0.00  0.00     0.090 C 
ATOM      7  H8  ZXD d          -1.971  29.297  26.332  0.00  0.00     0.089 H 
ATOM      8  H9  ZXD d          -2.172  27.838  24.449  0.00  0.00     0.277 HD
ATOM      9  H10 ZXD d          -1.104  26.777  25.112  0.00  0.00     0.277 HD
ATOM     10  H11 ZXD d          -0.529  29.595  24.478  0.00  0.00     0.079 H 
ATOM     11  H12 ZXD d          -0.023  28.182  23.491  0.00  0.00     0.079 H 
ATOM     12  H13 ZXD d           1.211  27.267  25.466  0.00  0.00     0.089 H 
ATOM     13  H15 ZXD d           0.387  29.923  26.763  0.00  0.00     0.091 H 
ATOM     14  H17 ZXD d          -0.823  28.448  28.354  0.00  0.00     0.090 H 
ENDROOT
BRANCH   1  15
ATOM     15  CAH ZXD d          -2.994  27.508  26.909  0.00  0.00    -0.031 C 
ATOM     16  H4  ZXD d          -2.687  26.659  27.538  0.00  0.00     0.042 H 
BRANCH  15  17
ATOM     17  CAA ZXD d          -3.840  28.474  27.744  0.00  0.00    -0.071 C 
ATOM     18  H1  ZXD d          -4.642  27.915  28.249  0.00  0.00     0.028 H 
ATOM     19  H2  ZXD d          -4.282  29.236  27.086  0.00  0.00     0.028 H 
ATOM     20  H3  ZXD d          -3.204  28.963  28.496  0.00  0.00     0.028 H 
ENDBRANCH  15  17
BRANCH  15  21
ATOM     21  CAB ZXD d          -3.839  26.984  25.745  0.00  0.00    -0.071 C 
ATOM     22  H5  ZXD d          -3.446  26.012  25.414  0.00  0.00     0.028 H 
ATOM     23  H6  ZXD d          -3.797  27.700  24.910  0.00  0.00     0.028 H 
ATOM     24  H7  ZXD d          -4.882  26.865  26.073  0.00  0.00     0.028 H 
ENDBRANCH  15  21
ENDBRANCH   1  15
BRANCH   6  25
ATOM     25  OAE ZXD d          -0.193  26.688  27.450  0.00  0.00    -0.391 OA
ATOM     26  H18 ZXD d          -0.061  26.337  26.576  0.00  0.00     0.210 HD
ENDBRANCH   6  25
BRANCH   5  27
ATOM     27  OAD ZXD d           1.777  28.687  27.670  0.00  0.00    -0.390 OA
ATOM     28  H16 ZXD d           2.352  28.024  27.306  0.00  0.00     0.210 HD
ENDBRANCH   5  27
BRANCH   4  29
ATOM     29  OAC ZXD d           2.099  29.043  24.888  0.00  0.00    -0.391 OA
ATOM     30  H14 ZXD d           2.622  29.379  25.607  0.00  0.00     0.210 HD
ENDBRANCH   4  29
TORSDOF 6
ENDMDL
MODEL 3
REMARK VINA RESULT:      -5.6      1.708      4.118
REMARK  6 active torsions:
REMARK  status: ('A' for Active; 'I' for Inactive)
REMARK    1  A    between atoms: CAA_1  and  CAH_2 
REMARK    2  A    between atoms: CAH_2  and  CAB_3 
REMARK    3  A    between atoms: CAH_2  and  CAL_4 
REMARK    4  A    between atoms: CAI_7  and  OAC_8 
REMARK    5  A    between atoms: CAJ_9  and  OAD_10 
REMARK    6  A    between atoms: CAK_11  and  OAE_12 
ROOT
ATOM      1  CAL ZXD d          -1.878  27.639  26.185  0.00  0.00     0.131 C 
ATOM      2  NAG ZXD d          -1.428  29.021  26.426  0.00  0.00    -0.066 N 
ATOM      3  CAF ZXD d           0.042  29.105  26.386  0.00  0.00     0.108 C 
ATOM      4  CAI ZXD d           0.522  28.700  24.986  0.00  0.00     0.086 C 
ATOM      5  CAJ ZXD d           0.100  27.255  24.709  0.00  0.00     0.088 C 
ATOM      6  CAK ZXD d          -1.424  27.166  24.800  0.00  0.00     0.090 C 
ATOM      7  H8  ZXD d          -1.401  26.989  26.934  0.00  0.00     0.089 H 
ATOM      8  H9  ZXD d          -1.752  29.321  27.331  0.00  0.00     0.277 HD
ATOM      9  H10 ZXD d          -1.812  29.623  25.715  0.00  0.00     0.277 HD
ATOM     10  H11 ZXD d           0.472  28.424  27.136  0.00  0.00     0.079 H 
ATOM     11  H12 ZXD d           0.359  30.136  26.602  0.00  0.00     0.079 H 
ATOM     12  H13 ZXD d           0.055  29.362  24.242  0.00  0.00     0.089 H 
ATOM     13  H15 ZXD d           0.551  26.591  25.461  0.00  0.00     0.091 H 
ATOM     14  H17 ZXD d          -1.746  26.127  24.639  0.00  0.00     0.090 H 
ENDROOT
BRANCH   1  15
ATOM     15  CAH ZXD d          -3.395  27.527  26.374  0.00  0.00    -0.031 C 
ATOM     16  H4  ZXD d          -3.892  28.179  25.640  0.00  0.00     0.042 H 
BRANCH  15  17
ATOM     17  CAA ZXD d          -3.840  26.079  26.143  0.00  0.00    -0.071 C 
ATOM     18  H1  ZXD d          -3.502  25.745  25.151  0.00  0.00     0.028 H 
ATOM     19  H2  ZXD d          -4.938  26.020  26.196  0.00  0.00     0.028 H 
ATOM     20  H3  ZXD d          -3.402  25.433  26.917  0.00  0.00     0.028 H 
ENDBRANCH  15  17
BRANCH  15  21
ATOM     21  CAB ZXD d          -3.812  27.958  27.783  0.00  0.00    -0.071 C 
ATOM     22  H5  ZXD d          -4.855  27.659  27.965  0.00  0.00     0.028 H 
ATOM     23  H6  ZXD d          -3.722  29.050  27.874  0.00  0.00     0.028 H 
ATOM     24  H7  ZXD d          -3.158  27.473  28.523  0.00  0.00     0.028 H 
ENDBRANCH  15  21
ENDBRANCH   1  15
BRANCH   6  25
ATOM     25  OAE ZXD d          -1.999  28.010  23.800  0.00  0.00    -0.391 OA
ATOM     26  H18 ZXD d          -2.640  27.517  23.302  0.00  0.00     0.210 HD
ENDBRANCH   6  25
BRANCH   5  27
ATOM     27  OAD ZXD d           0.541  26.860  23.410  0.00  0.00    -0.390 OA
ATOM     28  H16 ZXD d           0.356  25.937  23.281  0.00  0.00     0.210 HD
ENDBRANCH   5  27
BRANCH   4  29
ATOM     29  OAC ZXD d           1.943  28.816  24.885  0.00  0.00    -0.391 OA
ATOM     30  H14 ZXD d           2.216  29.656  25.236  0.00  0.00     0.210 HD
ENDBRANCH   4  29
TORSDOF 6
ENDMDL
MODEL 4
REMARK VINA RESULT:      -5.6      1.723      2.492
REMARK  6 active torsions:
REMARK  status: ('A' for Active; 'I' for Inactive)
REMARK    1  A    between atoms: CAA_1  and  CAH_2 
REMARK    2  A    between atoms: CAH_2  and  CAB_3 
REMARK    3  A    between atoms: CAH_2  and  CAL_4 
REMARK    4  A    between atoms: CAI_7  and  OAC_8 
REMARK    5  A    between atoms: CAJ_9  and  OAD_10 
REMARK    6  A    between atoms: CAK_11  and  OAE_12 
ROOT
ATOM      1  CAL ZXD d           0.192  28.030  25.912  0.00  0.00     0.131 C 
ATOM      2  NAG ZXD d          -0.486  28.265  24.625  0.00  0.00    -0.066 N 
ATOM      3  CAF ZXD d          -1.414  27.165  24.315  0.00  0.00     0.108 C 
ATOM      4  CAI ZXD d          -2.494  27.110  25.403  0.00  0.00     0.086 C 
ATOM      5  CAJ ZXD d          -1.832  26.834  26.755  0.00  0.00     0.088 C 
ATOM      6  CAK ZXD d          -0.835  27.957  27.047  0.00  0.00     0.090 C 
ATOM      7  H8  ZXD d           0.700  27.056  25.856  0.00  0.00     0.089 H 
ATOM      8  H9  ZXD d           0.205  28.331  23.895  0.00  0.00     0.277 HD
ATOM      9  H10 ZXD d          -1.003  29.129  24.676  0.00  0.00     0.277 HD
ATOM     10  H11 ZXD d          -0.864  26.212  24.292  0.00  0.00     0.079 H 
ATOM     11  H12 ZXD d          -1.884  27.341  23.336  0.00  0.00     0.079 H 
ATOM     12  H13 ZXD d          -3.011  28.080  25.444  0.00  0.00     0.089 H 
ATOM     13  H15 ZXD d          -1.300  25.873  26.714  0.00  0.00     0.091 H 
ATOM     14  H17 ZXD d          -0.321  27.760  27.999  0.00  0.00     0.090 H 
ENDROOT
BRANCH   1  15
ATOM     15  CAH ZXD d           1.263  29.099  26.159  0.00  0.00    -0.031 C 
ATOM     16  H4  ZXD d           0.780  30.087  26.172  0.00  0.00     0.042 H 
BRANCH  15  17
ATOM     17  CAA ZXD d           1.939  28.851  27.511  0.00  0.00    -0.071 C 
ATOM     18  H1  ZXD d           2.121  27.774  27.638  0.00  0.00     0.028 H 
ATOM     19  H2  ZXD d           1.285  29.211  28.319  0.00  0.00     0.028 H 
ATOM     20  H3  ZXD d           2.896  29.392  27.547  0.00  0.00     0.028 H 
ENDBRANCH  15  17
BRANCH  15  21
ATOM     21  CAB ZXD d           2.328  29.081  25.059  0.00  0.00    -0.071 C 
ATOM     22  H5  ZXD d           1.994  29.703  24.215  0.00  0.00     0.028 H 
ATOM     23  H6  ZXD d           2.482  28.048  24.715  0.00  0.00     0.028 H 
ATOM     24  H7  ZXD d           3.273  29.480  25.456  0.00  0.00     0.028 H 
ENDBRANCH  15  21
ENDBRANCH   1  15
BRANCH   6  25
ATOM     25  OAE ZXD d          -1.541  29.196  27.127  0.00  0.00    -0.391 OA
ATOM     26  H18 ZXD d          -2.269  29.185  26.517  0.00  0.00     0.210 HD
ENDBRANCH   6  25
BRANCH   5  27
ATOM     27  OAD ZXD d          -2.825  26.777  27.781  0.00  0.00    -0.390 OA
ATOM     28  H16 ZXD d          -2.590  26.106  28.411  0.00  0.00     0.210 HD
ENDBRANCH   5  27
BRANCH   4  29
ATOM     29  OAC ZXD d          -3.450  26.086  25.116  0.00  0.00    -0.391 OA
ATOM     30  H14 ZXD d          -3.706  26.141  24.203  0.00  0.00     0.210 HD
ENDBRANCH   4  29
TORSDOF 6
ENDMDL
MODEL 5
REMARK VINA RESULT:      -4.7      2.242      2.615
REMARK  6 active torsions:
REMARK  status: ('A' for Active; 'I' for Inactive)
REMARK    1  A    between atoms: CAA_1  and  CAH_2 
REMARK    2  A    between atoms: CAH_2  and  CAB_3 
REMARK    3  A    between atoms: CAH_2  and  CAL_4 
REMARK    4  A    between atoms: CAI_7  and  OAC_8 
REMARK    5  A    between atoms: CAJ_9  and  OAD_10 
REMARK    6  A    between atoms: CAK_11  and  OAE_12 
ROOT
ATOM      1  CAL ZXD d          -0.034  28.247  27.059  0.00  0.00     0.131 C 
ATOM      2  NAG ZXD d          -0.346  26.907  26.535  0.00  0.00    -0.066 N 
ATOM      3  CAF ZXD d          -1.412  26.271  27.327  0.00  0.00     0.108 C 
ATOM      4  CAI ZXD d          -2.685  27.120  27.210  0.00  0.00     0.086 C 
ATOM      5  CAJ ZXD d          -2.412  28.516  27.776  0.00  0.00     0.088 C 
ATOM      6  CAK ZXD d          -1.271  29.149  26.979  0.00  0.00     0.090 C 
ATOM      7  H8  ZXD d           0.236  28.144  28.120  0.00  0.00     0.089 H 
ATOM      8  H9  ZXD d           0.483  26.335  26.577  0.00  0.00     0.277 HD
ATOM      9  H10 ZXD d          -0.649  26.988  25.577  0.00  0.00     0.277 HD
ATOM     10  H11 ZXD d          -1.104  26.210  28.381  0.00  0.00     0.079 H 
ATOM     11  H12 ZXD d          -1.606  25.259  26.942  0.00  0.00     0.079 H 
ATOM     12  H13 ZXD d          -2.962  27.207  26.149  0.00  0.00     0.089 H 
ATOM     13  H15 ZXD d          -2.119  28.432  28.832  0.00  0.00     0.091 H 
ATOM     14  H17 ZXD d          -1.034  30.140  27.392  0.00  0.00     0.090 H 
ENDROOT
BRANCH   1  15
ATOM     15  CAH ZXD d           1.174  28.844  26.328  0.00  0.00    -0.031 C 
ATOM     16  H4  ZXD d           0.811  29.498  25.521  0.00  0.00     0.042 H 
BRANCH  15  17
ATOM     17  CAA ZXD d           2.015  29.670  27.306  0.00  0.00    -0.071 C 
ATOM     18  H1  ZXD d           1.640  29.521  28.329  0.00  0.00     0.028 H 
ATOM     19  H2  ZXD d           1.944  30.736  27.041  0.00  0.00     0.028 H 
ATOM     20  H3  ZXD d           3.065  29.348  27.250  0.00  0.00     0.028 H 
ENDBRANCH  15  17
BRANCH  15  21
ATOM     21  CAB ZXD d           2.052  27.746  25.721  0.00  0.00    -0.071 C 
ATOM     22  H5  ZXD d           1.445  27.119  25.051  0.00  0.00     0.028 H 
ATOM     23  H6  ZXD d           2.469  27.124  26.526  0.00  0.00     0.028 H 
ATOM     24  H7  ZXD d           2.872  28.205  25.150  0.00  0.00     0.028 H 
ENDBRANCH  15  21
ENDBRANCH   1  15
BRANCH   6  25
ATOM     25  OAE ZXD d          -1.674  29.279  25.614  0.00  0.00    -0.391 OA
ATOM     26  H18 ZXD d          -1.369  28.526  25.122  0.00  0.00     0.210 HD
ENDBRANCH   6  25
BRANCH   5  27
ATOM     27  OAD ZXD d          -3.589  29.319  27.677  0.00  0.00    -0.390 OA
ATOM     28  H16 ZXD d          -3.374  30.220  27.890  0.00  0.00     0.210 HD
ENDBRANCH   5  27
BRANCH   4  29
ATOM     29  OAC ZXD d          -3.766  26.512  27.923  0.00  0.00    -0.391 OA
ATOM     30  H14 ZXD d          -3.756  25.574  27.771  0.00  0.00     0.210 HD
ENDBRANCH   4  29
TORSDOF 6
ENDMDL
MODEL 6
REMARK VINA RESULT:      -4.5      2.000      4.280
REMARK  6 active torsions:
REMARK  status: ('A' for Active; 'I' for Inactive)
REMARK    1  A    between atoms: CAA_1  and  CAH_2 
REMARK    2  A    between atoms: CAH_2  and  CAB_3 
REMARK    3  A    between atoms: CAH_2  and  CAL_4 
REMARK    4  A    between atoms: CAI_7  and  OAC_8 
REMARK    5  A    between atoms: CAJ_9  and  OAD_10 
REMARK    6  A    between atoms: CAK_11  and  OAE_12 
ROOT
ATOM      1  CAL ZXD d          -0.973  27.811  25.673  0.00  0.00     0.131 C 
ATOM      2  NAG ZXD d          -0.873  29.107  26.367  0.00  0.00    -0.066 N 
ATOM      3  CAF ZXD d           0.389  29.199  27.120  0.00  0.00     0.108 C 
ATOM      4  CAI ZXD d           1.560  29.114  26.132  0.00  0.00     0.086 C 
ATOM      5  CAJ ZXD d           1.511  27.764  25.411  0.00  0.00     0.088 C 
ATOM      6  CAK ZXD d           0.176  27.656  24.671  0.00  0.00     0.090 C 
ATOM      7  H8  ZXD d          -0.873  27.014  26.424  0.00  0.00     0.089 H 
ATOM      8  H9  ZXD d          -1.647  29.200  27.006  0.00  0.00     0.277 HD
ATOM      9  H10 ZXD d          -0.908  29.850  25.688  0.00  0.00     0.277 HD
ATOM     10  H11 ZXD d           0.452  28.371  27.841  0.00  0.00     0.079 H 
ATOM     11  H12 ZXD d           0.429  30.158  27.659  0.00  0.00     0.079 H 
ATOM     12  H13 ZXD d           1.465  29.923  25.394  0.00  0.00     0.089 H 
ATOM     13  H15 ZXD d           1.588  26.952  26.148  0.00  0.00     0.091 H 
ATOM     14  H17 ZXD d           0.105  26.678  24.174  0.00  0.00     0.090 H 
ENDROOT
BRANCH   1  15
ATOM     15  CAH ZXD d          -2.349  27.659  25.014  0.00  0.00    -0.031 C 
ATOM     16  H4  ZXD d          -2.634  28.621  24.564  0.00  0.00     0.042 H 
BRANCH  15  17
ATOM     17  CAA ZXD d          -2.282  26.590  23.918  0.00  0.00    -0.071 C 
ATOM     18  H1  ZXD d          -1.474  25.880  24.147  0.00  0.00     0.028 H 
ATOM     19  H2  ZXD d          -2.084  27.072  22.949  0.00  0.00     0.028 H 
ATOM     20  H3  ZXD d          -3.241  26.053  23.870  0.00  0.00     0.028 H 
ENDBRANCH  15  17
BRANCH  15  21
ATOM     21  CAB ZXD d          -3.413  27.255  26.039  0.00  0.00    -0.071 C 
ATOM     22  H5  ZXD d          -3.127  27.631  27.032  0.00  0.00     0.028 H 
ATOM     23  H6  ZXD d          -3.493  26.159  26.071  0.00  0.00     0.028 H 
ATOM     24  H7  ZXD d          -4.383  27.685  25.750  0.00  0.00     0.028 H 
ENDBRANCH  15  21
ENDBRANCH   1  15
BRANCH   6  25
ATOM     25  OAE ZXD d           0.099  28.699  23.697  0.00  0.00    -0.391 OA
ATOM     26  H18 ZXD d          -0.712  28.616  23.210  0.00  0.00     0.210 HD
ENDBRANCH   6  25
BRANCH   5  27
ATOM     27  OAD ZXD d           2.596  27.666  24.488  0.00  0.00    -0.390 OA
ATOM     28  H16 ZXD d           2.265  27.748  23.601  0.00  0.00     0.210 HD
ENDBRANCH   5  27
BRANCH   4  29
ATOM     29  OAC ZXD d           2.809  29.251  26.815  0.00  0.00    -0.391 OA
ATOM     30  H14 ZXD d           2.981  30.172  26.974  0.00  0.00     0.210 HD
ENDBRANCH   4  29
TORSDOF 6
ENDMDL
