MODEL 1
REMARK VINA RESULT:      -5.5      0.000      0.000
REMARK  9 active torsions:
REMARK  status: ('A' for Active; 'I' for Inactive)
REMARK    1  A    between atoms: C1_1  and  C2_3 
REMARK    2  A    between atoms: C2_3  and  C3_4 
REMARK    3  A    between atoms: C3_4  and  C4_5 
REMARK    4  A    between atoms: C4_5  and  C5_6 
REMARK    5  A    between atoms: C5_6  and  C6_7 
REMARK    6  A    between atoms: C6_7  and  C7_8 
REMARK    7  A    between atoms: C7_8  and  C8_9 
REMARK    8  A    between atoms: C8_9  and  C9_10 
REMARK    9  A    between atoms: C9_10  and  C10_11 
ROOT
ATOM      1  C6  DKA d           1.287  -1.198  23.806  0.00  0.00    -0.065 C 
ATOM      2  H9  DKA d           0.314  -0.892  24.219  0.00  0.00     0.033 H 
ATOM      3  H10 DKA d           2.096  -0.748  24.401  0.00  0.00     0.033 H 
ENDROOT
BRANCH   1   4
ATOM      4  C5  DKA d           1.394  -0.702  22.364  0.00  0.00    -0.065 C 
ATOM      5  H7  DKA d           2.281  -1.156  21.898  0.00  0.00     0.033 H 
ATOM      6  H8  DKA d           0.492  -1.012  21.815  0.00  0.00     0.033 H 
BRANCH   4   7
ATOM      7  C4  DKA d           1.520   0.811  22.283  0.00  0.00    -0.065 C 
ATOM      8  H5  DKA d           1.603   1.106  21.227  0.00  0.00     0.033 H 
ATOM      9  H6  DKA d           0.622   1.268  22.722  0.00  0.00     0.033 H 
BRANCH   7  10
ATOM     10  C3  DKA d           2.750   1.311  23.036  0.00  0.00    -0.056 C 
ATOM     11  H3  DKA d           2.626   1.061  24.100  0.00  0.00     0.033 H 
ATOM     12  H4  DKA d           3.632   0.790  22.637  0.00  0.00     0.033 H 
BRANCH  10  13
ATOM     13  C2  DKA d           2.994   2.826  22.924  0.00  0.00     0.016 C 
ATOM     14  H1  DKA d           2.140   3.362  23.364  0.00  0.00     0.049 H 
ATOM     15  H2  DKA d           3.912   3.085  23.472  0.00  0.00     0.049 H 
BRANCH  13  16
ATOM     16  C1  DKA d           3.149   3.246  21.469  0.00  0.00     0.172 C 
ATOM     17  O1  DKA d           2.424   4.091  20.945  0.00  0.00    -0.648 OA
ATOM     18  O2  DKA d           4.077   2.708  20.672  0.00  0.00    -0.648 OA
ENDBRANCH  13  16
ENDBRANCH  10  13
ENDBRANCH   7  10
ENDBRANCH   4   7
ENDBRANCH   1   4
BRANCH   1  19
ATOM     19  C7  DKA d           1.401  -2.707  23.879  0.00  0.00    -0.065 C 
ATOM     20  H11 DKA d           2.377  -2.966  24.312  0.00  0.00     0.033 H 
ATOM     21  H12 DKA d           1.331  -3.115  22.859  0.00  0.00     0.033 H 
BRANCH  19  22
ATOM     22  C8  DKA d           0.304  -3.337  24.734  0.00  0.00    -0.065 C 
ATOM     23  H13 DKA d           0.732  -4.167  25.316  0.00  0.00     0.033 H 
ATOM     24  H14 DKA d          -0.490  -3.721  24.077  0.00  0.00     0.033 H 
BRANCH  22  25
ATOM     25  C9  DKA d          -0.290  -2.312  25.689  0.00  0.00    -0.069 C 
ATOM     26  H15 DKA d          -1.380  -2.281  25.544  0.00  0.00     0.032 H 
ATOM     27  H16 DKA d           0.137  -1.324  25.461  0.00  0.00     0.032 H 
BRANCH  25  28
ATOM     28  C10 DKA d           0.002  -2.649  27.132  0.00  0.00    -0.077 C 
ATOM     29  H17 DKA d          -0.535  -3.568  27.409  0.00  0.00     0.027 H 
ATOM     30  H18 DKA d          -0.328  -1.822  27.777  0.00  0.00     0.027 H 
ATOM     31  H19 DKA d           1.084  -2.804  27.260  0.00  0.00     0.027 H 
ENDBRANCH  25  28
ENDBRANCH  22  25
ENDBRANCH  19  22
ENDBRANCH   1  19
TORSDOF 9
ENDMDL
MODEL 2
REMARK VINA RESULT:      -5.3      3.957      6.857
REMARK  9 active torsions:
REMARK  status: ('A' for Active; 'I' for Inactive)
REMARK    1  A    between atoms: C1_1  and  C2_3 
REMARK    2  A    between atoms: C2_3  and  C3_4 
REMARK    3  A    between atoms: C3_4  and  C4_5 
REMARK    4  A    between atoms: C4_5  and  C5_6 
REMARK    5  A    between atoms: C5_6  and  C6_7 
REMARK    6  A    between atoms: C6_7  and  C7_8 
REMARK    7  A    between atoms: C7_8  and  C8_9 
REMARK    8  A    between atoms: C8_9  and  C9_10 
REMARK    9  A    between atoms: C9_10  and  C10_11 
ROOT
ATOM      1  C6  DKA d           1.729   1.424  22.269  0.00  0.00    -0.065 C 
ATOM      2  H9  DKA d           0.929   2.087  22.629  0.00  0.00     0.033 H 
ATOM      3  H10 DKA d           1.926   1.630  21.207  0.00  0.00     0.033 H 
ENDROOT
BRANCH   1   4
ATOM      4  C5  DKA d           1.279  -0.029  22.419  0.00  0.00    -0.065 C 
ATOM      5  H7  DKA d           0.182  -0.071  22.336  0.00  0.00     0.033 H 
ATOM      6  H8  DKA d           1.731  -0.625  21.613  0.00  0.00     0.033 H 
BRANCH   4   7
ATOM      7  C4  DKA d           1.690  -0.624  23.757  0.00  0.00    -0.065 C 
ATOM      8  H5  DKA d           2.772  -0.817  23.744  0.00  0.00     0.033 H 
ATOM      9  H6  DKA d           1.454   0.095  24.555  0.00  0.00     0.033 H 
BRANCH   7  10
ATOM     10  C3  DKA d           0.957  -1.933  24.037  0.00  0.00    -0.056 C 
ATOM     11  H3  DKA d           0.347  -2.180  23.155  0.00  0.00     0.033 H 
ATOM     12  H4  DKA d           1.708  -2.721  24.195  0.00  0.00     0.033 H 
BRANCH  10  13
ATOM     13  C2  DKA d           0.032  -1.897  25.266  0.00  0.00     0.016 C 
ATOM     14  H1  DKA d           0.118  -0.913  25.752  0.00  0.00     0.049 H 
ATOM     15  H2  DKA d          -1.006  -2.055  24.941  0.00  0.00     0.049 H 
BRANCH  13  16
ATOM     16  C1  DKA d           0.412  -2.980  26.265  0.00  0.00     0.172 C 
ATOM     17  O1  DKA d           0.629  -4.143  25.927  0.00  0.00    -0.648 OA
ATOM     18  O2  DKA d           0.518  -2.731  27.574  0.00  0.00    -0.648 OA
ENDBRANCH  13  16
ENDBRANCH  10  13
ENDBRANCH   7  10
ENDBRANCH   4   7
ENDBRANCH   1   4
BRANCH   1  19
ATOM     19  C7  DKA d           2.989   1.694  23.067  0.00  0.00    -0.065 C 
ATOM     20  H11 DKA d           3.697   0.870  22.898  0.00  0.00     0.033 H 
ATOM     21  H12 DKA d           2.727   1.741  24.134  0.00  0.00     0.033 H 
BRANCH  19  22
ATOM     22  C8  DKA d           3.663   3.006  22.671  0.00  0.00    -0.065 C 
ATOM     23  H13 DKA d           4.620   2.784  22.174  0.00  0.00     0.033 H 
ATOM     24  H14 DKA d           3.850   3.603  23.575  0.00  0.00     0.033 H 
BRANCH  22  25
ATOM     25  C9  DKA d           2.779   3.801  21.721  0.00  0.00    -0.069 C 
ATOM     26  H15 DKA d           2.488   4.742  22.210  0.00  0.00     0.032 H 
ATOM     27  H16 DKA d           1.878   3.211  21.496  0.00  0.00     0.032 H 
BRANCH  25  28
ATOM     28  C10 DKA d           3.488   4.122  20.427  0.00  0.00    -0.077 C 
ATOM     29  H17 DKA d           3.467   5.208  20.257  0.00  0.00     0.027 H 
ATOM     30  H18 DKA d           2.983   3.610  19.594  0.00  0.00     0.027 H 
ATOM     31  H19 DKA d           4.532   3.780  20.487  0.00  0.00     0.027 H 
ENDBRANCH  25  28
ENDBRANCH  22  25
ENDBRANCH  19  22
ENDBRANCH   1  19
TORSDOF 9
ENDMDL
MODEL 3
REMARK VINA RESULT:      -5.3      1.632      2.055
REMARK  9 active torsions:
REMARK  status: ('A' for Active; 'I' for Inactive)
REMARK    1  A    between atoms: C1_1  and  C2_3 
REMARK    2  A    between atoms: C2_3  and  C3_4 
REMARK    3  A    between atoms: C3_4  and  C4_5 
REMARK    4  A    between atoms: C4_5  and  C5_6 
REMARK    5  A    between atoms: C5_6  and  C6_7 
REMARK    6  A    between atoms: C6_7  and  C7_8 
REMARK    7  A    between atoms: C7_8  and  C8_9 
REMARK    8  A    between atoms: C8_9  and  C9_10 
REMARK    9  A    between atoms: C9_10  and  C10_11 
ROOT
ATOM      1  C6  DKA d           1.543  -1.177  24.161  0.00  0.00    -0.065 C 
ATOM      2  H9  DKA d           0.847  -0.797  24.924  0.00  0.00     0.033 H 
ATOM      3  H10 DKA d           2.576  -0.949  24.463  0.00  0.00     0.033 H 
ENDROOT
BRANCH   1   4
ATOM      4  C5  DKA d           1.249  -0.486  22.829  0.00  0.00    -0.065 C 
ATOM      5  H7  DKA d           0.164  -0.317  22.750  0.00  0.00     0.033 H 
ATOM      6  H8  DKA d           1.773   0.480  22.809  0.00  0.00     0.033 H 
BRANCH   4   7
ATOM      7  C4  DKA d           1.702  -1.315  21.639  0.00  0.00    -0.065 C 
ATOM      8  H5  DKA d           1.515  -2.378  21.851  0.00  0.00     0.033 H 
ATOM      9  H6  DKA d           1.128  -1.012  20.752  0.00  0.00     0.033 H 
BRANCH   7  10
ATOM     10  C3  DKA d           3.189  -1.122  21.356  0.00  0.00    -0.056 C 
ATOM     11  H3  DKA d           3.650  -0.655  22.239  0.00  0.00     0.033 H 
ATOM     12  H4  DKA d           3.639  -2.112  21.188  0.00  0.00     0.033 H 
BRANCH  10  13
ATOM     13  C2  DKA d           3.497  -0.240  20.132  0.00  0.00     0.016 C 
ATOM     14  H1  DKA d           4.292  -0.715  19.538  0.00  0.00     0.049 H 
ATOM     15  H2  DKA d           2.588  -0.145  19.519  0.00  0.00     0.049 H 
BRANCH  13  16
ATOM     16  C1  DKA d           3.955   1.146  20.561  0.00  0.00     0.172 C 
ATOM     17  O1  DKA d           4.357   1.385  21.699  0.00  0.00    -0.648 OA
ATOM     18  O2  DKA d           3.932   2.189  19.726  0.00  0.00    -0.648 OA
ENDBRANCH  13  16
ENDBRANCH  10  13
ENDBRANCH   7  10
ENDBRANCH   4   7
ENDBRANCH   1   4
BRANCH   1  19
ATOM     19  C7  DKA d           1.381  -2.679  24.050  0.00  0.00    -0.065 C 
ATOM     20  H11 DKA d           2.253  -3.163  24.513  0.00  0.00     0.033 H 
ATOM     21  H12 DKA d           1.332  -2.950  22.985  0.00  0.00     0.033 H 
BRANCH  19  22
ATOM     22  C8  DKA d           0.117  -3.185  24.742  0.00  0.00    -0.065 C 
ATOM     23  H13 DKA d           0.320  -4.171  25.187  0.00  0.00     0.033 H 
ATOM     24  H14 DKA d          -0.689  -3.277  23.999  0.00  0.00     0.033 H 
BRANCH  22  25
ATOM     25  C9  DKA d          -0.320  -2.223  25.837  0.00  0.00    -0.069 C 
ATOM     26  H15 DKA d          -1.407  -2.072  25.765  0.00  0.00     0.032 H 
ATOM     27  H16 DKA d           0.194  -1.260  25.690  0.00  0.00     0.032 H 
BRANCH  25  28
ATOM     28  C10 DKA d           0.011  -2.748  27.214  0.00  0.00    -0.077 C 
ATOM     29  H17 DKA d          -0.644  -3.600  27.448  0.00  0.00     0.027 H 
ATOM     30  H18 DKA d          -0.142  -1.952  27.957  0.00  0.00     0.027 H 
ATOM     31  H19 DKA d           1.061  -3.075  27.239  0.00  0.00     0.027 H 
ENDBRANCH  25  28
ENDBRANCH  22  25
ENDBRANCH  19  22
ENDBRANCH   1  19
TORSDOF 9
ENDMDL
MODEL 4
REMARK VINA RESULT:      -5.2      1.615      1.799
REMARK  9 active torsions:
REMARK  status: ('A' for Active; 'I' for Inactive)
REMARK    1  A    between atoms: C1_1  and  C2_3 
REMARK    2  A    between atoms: C2_3  and  C3_4 
REMARK    3  A    between atoms: C3_4  and  C4_5 
REMARK    4  A    between atoms: C4_5  and  C5_6 
REMARK    5  A    between atoms: C5_6  and  C6_7 
REMARK    6  A    between atoms: C6_7  and  C7_8 
REMARK    7  A    between atoms: C7_8  and  C8_9 
REMARK    8  A    between atoms: C8_9  and  C9_10 
REMARK    9  A    between atoms: C9_10  and  C10_11 
ROOT
ATOM      1  C6  DKA d           1.079  -0.558  23.073  0.00  0.00    -0.065 C 
ATOM      2  H9  DKA d          -0.016  -0.623  22.988  0.00  0.00     0.033 H 
ATOM      3  H10 DKA d           1.379   0.499  23.139  0.00  0.00     0.033 H 
ENDROOT
BRANCH   1   4
ATOM      4  C5  DKA d           1.714  -1.180  21.829  0.00  0.00    -0.065 C 
ATOM      5  H7  DKA d           1.673  -2.276  21.921  0.00  0.00     0.033 H 
ATOM      6  H8  DKA d           1.142  -0.864  20.944  0.00  0.00     0.033 H 
BRANCH   4   7
ATOM      7  C4  DKA d           3.164  -0.759  21.651  0.00  0.00    -0.065 C 
ATOM      8  H5  DKA d           3.681  -0.840  22.619  0.00  0.00     0.033 H 
ATOM      9  H6  DKA d           3.643  -1.427  20.922  0.00  0.00     0.033 H 
BRANCH   7  10
ATOM     10  C3  DKA d           3.272   0.679  21.152  0.00  0.00    -0.056 C 
ATOM     11  H3  DKA d           3.667   0.658  20.126  0.00  0.00     0.033 H 
ATOM     12  H4  DKA d           2.263   1.118  21.146  0.00  0.00     0.033 H 
BRANCH  10  13
ATOM     13  C2  DKA d           4.184   1.583  22.000  0.00  0.00     0.016 C 
ATOM     14  H1  DKA d           4.887   0.954  22.566  0.00  0.00     0.049 H 
ATOM     15  H2  DKA d           4.747   2.253  21.333  0.00  0.00     0.049 H 
BRANCH  13  16
ATOM     16  C1  DKA d           3.368   2.420  22.974  0.00  0.00     0.172 C 
ATOM     17  O1  DKA d           2.837   3.481  22.649  0.00  0.00    -0.648 OA
ATOM     18  O2  DKA d           3.193   2.054  24.248  0.00  0.00    -0.648 OA
ENDBRANCH  13  16
ENDBRANCH  10  13
ENDBRANCH   7  10
ENDBRANCH   4   7
ENDBRANCH   1   4
BRANCH   1  19
ATOM     19  C7  DKA d           1.519  -1.275  24.333  0.00  0.00    -0.065 C 
ATOM     20  H11 DKA d           1.486  -0.566  25.172  0.00  0.00     0.033 H 
ATOM     21  H12 DKA d           2.550  -1.632  24.193  0.00  0.00     0.033 H 
BRANCH  19  22
ATOM     22  C8  DKA d           0.630  -2.470  24.668  0.00  0.00    -0.065 C 
ATOM     23  H13 DKA d           1.260  -3.302  25.017  0.00  0.00     0.033 H 
ATOM     24  H14 DKA d           0.083  -2.778  23.766  0.00  0.00     0.033 H 
BRANCH  22  25
ATOM     25  C9  DKA d          -0.369  -2.109  25.758  0.00  0.00    -0.069 C 
ATOM     26  H15 DKA d          -1.364  -2.475  25.465  0.00  0.00     0.032 H 
ATOM     27  H16 DKA d          -0.399  -1.014  25.865  0.00  0.00     0.032 H 
BRANCH  25  28
ATOM     28  C10 DKA d           0.004  -2.719  27.089  0.00  0.00    -0.077 C 
ATOM     29  H17 DKA d          -0.911  -2.966  27.648  0.00  0.00     0.027 H 
ATOM     30  H18 DKA d           0.604  -2.000  27.667  0.00  0.00     0.027 H 
ATOM     31  H19 DKA d           0.589  -3.635  26.921  0.00  0.00     0.027 H 
ENDBRANCH  25  28
ENDBRANCH  22  25
ENDBRANCH  19  22
ENDBRANCH   1  19
TORSDOF 9
ENDMDL
MODEL 5
REMARK VINA RESULT:      -4.8      3.978      6.330
REMARK  9 active torsions:
REMARK  status: ('A' for Active; 'I' for Inactive)
REMARK    1  A    between atoms: C1_1  and  C2_3 
REMARK    2  A    between atoms: C2_3  and  C3_4 
REMARK    3  A    between atoms: C3_4  and  C4_5 
REMARK    4  A    between atoms: C4_5  and  C5_6 
REMARK    5  A    between atoms: C5_6  and  C6_7 
REMARK    6  A    between atoms: C6_7  and  C7_8 
REMARK    7  A    between atoms: C7_8  and  C8_9 
REMARK    8  A    between atoms: C8_9  and  C9_10 
REMARK    9  A    between atoms: C9_10  and  C10_11 
ROOT
ATOM      1  C6  DKA d           3.026  -0.482  20.865  0.00  0.00    -0.065 C 
ATOM      2  H9  DKA d           2.034  -0.102  20.582  0.00  0.00     0.033 H 
ATOM      3  H10 DKA d           3.459  -1.041  20.022  0.00  0.00     0.033 H 
ENDROOT
BRANCH   1   4
ATOM      4  C5  DKA d           2.878  -1.422  22.062  0.00  0.00    -0.065 C 
ATOM      5  H7  DKA d           2.837  -2.458  21.696  0.00  0.00     0.033 H 
ATOM      6  H8  DKA d           3.752  -1.298  22.719  0.00  0.00     0.033 H 
BRANCH   4   7
ATOM      7  C4  DKA d           1.618  -1.136  22.864  0.00  0.00    -0.065 C 
ATOM      8  H5  DKA d           1.773  -0.225  23.460  0.00  0.00     0.033 H 
ATOM      9  H6  DKA d           0.780  -0.983  22.170  0.00  0.00     0.033 H 
BRANCH   7  10
ATOM     10  C3  DKA d           1.279  -2.290  23.803  0.00  0.00    -0.056 C 
ATOM     11  H3  DKA d           0.719  -3.045  23.232  0.00  0.00     0.033 H 
ATOM     12  H4  DKA d           2.222  -2.729  24.164  0.00  0.00     0.033 H 
BRANCH  10  13
ATOM     13  C2  DKA d           0.436  -1.891  25.027  0.00  0.00     0.016 C 
ATOM     14  H1  DKA d           0.761  -0.902  25.381  0.00  0.00     0.049 H 
ATOM     15  H2  DKA d          -0.624  -1.846  24.735  0.00  0.00     0.049 H 
BRANCH  13  16
ATOM     16  C1  DKA d           0.599  -2.901  26.153  0.00  0.00     0.172 C 
ATOM     17  O1  DKA d           0.470  -2.596  27.338  0.00  0.00    -0.648 OA
ATOM     18  O2  DKA d           0.906  -4.181  25.918  0.00  0.00    -0.648 OA
ENDBRANCH  13  16
ENDBRANCH  10  13
ENDBRANCH   7  10
ENDBRANCH   4   7
ENDBRANCH   1   4
BRANCH   1  19
ATOM     19  C7  DKA d           3.928   0.690  21.195  0.00  0.00    -0.065 C 
ATOM     20  H11 DKA d           4.753   0.715  20.468  0.00  0.00     0.033 H 
ATOM     21  H12 DKA d           4.334   0.549  22.207  0.00  0.00     0.033 H 
BRANCH  19  22
ATOM     22  C8  DKA d           3.192   2.027  21.145  0.00  0.00    -0.065 C 
ATOM     23  H13 DKA d           2.108   1.842  21.102  0.00  0.00     0.033 H 
ATOM     24  H14 DKA d           3.506   2.579  20.248  0.00  0.00     0.033 H 
BRANCH  22  25
ATOM     25  C9  DKA d           3.507   2.861  22.379  0.00  0.00    -0.069 C 
ATOM     26  H15 DKA d           2.930   3.796  22.333  0.00  0.00     0.032 H 
ATOM     27  H16 DKA d           4.582   3.093  22.387  0.00  0.00     0.032 H 
BRANCH  25  28
ATOM     28  C10 DKA d           3.155   2.133  23.655  0.00  0.00    -0.077 C 
ATOM     29  H17 DKA d           2.419   1.346  23.437  0.00  0.00     0.027 H 
ATOM     30  H18 DKA d           2.728   2.844  24.378  0.00  0.00     0.027 H 
ATOM     31  H19 DKA d           4.062   1.679  24.080  0.00  0.00     0.027 H 
ENDBRANCH  25  28
ENDBRANCH  22  25
ENDBRANCH  19  22
ENDBRANCH   1  19
TORSDOF 9
ENDMDL
MODEL 6
REMARK VINA RESULT:      -2.9      1.407      1.919
REMARK  9 active torsions:
REMARK  status: ('A' for Active; 'I' for Inactive)
REMARK    1  A    between atoms: C1_1  and  C2_3 
REMARK    2  A    between atoms: C2_3  and  C3_4 
REMARK    3  A    between atoms: C3_4  and  C4_5 
REMARK    4  A    between atoms: C4_5  and  C5_6 
REMARK    5  A    between atoms: C5_6  and  C6_7 
REMARK    6  A    between atoms: C6_7  and  C7_8 
REMARK    7  A    between atoms: C7_8  and  C8_9 
REMARK    8  A    between atoms: C8_9  and  C9_10 
REMARK    9  A    between atoms: C9_10  and  C10_11 
ROOT
ATOM      1  C6  DKA d           2.144  -1.954  20.691  0.00  0.00    -0.065 C 
ATOM      2  H9  DKA d           2.843  -2.786  20.864  0.00  0.00     0.033 H 
ATOM      3  H10 DKA d           1.516  -2.179  19.816  0.00  0.00     0.033 H 
ENDROOT
BRANCH   1   4
ATOM      4  C5  DKA d           2.945  -0.680  20.415  0.00  0.00    -0.065 C 
ATOM      5  H7  DKA d           4.018  -0.917  20.474  0.00  0.00     0.033 H 
ATOM      6  H8  DKA d           2.702  -0.323  19.404  0.00  0.00     0.033 H 
BRANCH   4   7
ATOM      7  C4  DKA d           2.632   0.423  21.413  0.00  0.00    -0.065 C 
ATOM      8  H5  DKA d           2.105   1.236  20.893  0.00  0.00     0.033 H 
ATOM      9  H6  DKA d           1.988   0.016  22.205  0.00  0.00     0.033 H 
BRANCH   7  10
ATOM     10  C3  DKA d           3.903   0.982  22.046  0.00  0.00    -0.056 C 
ATOM     11  H3  DKA d           4.061   0.471  23.008  0.00  0.00     0.033 H 
ATOM     12  H4  DKA d           4.746   0.766  21.373  0.00  0.00     0.033 H 
BRANCH  10  13
ATOM     13  C2  DKA d           3.872   2.498  22.308  0.00  0.00     0.016 C 
ATOM     14  H1  DKA d           3.028   2.731  22.974  0.00  0.00     0.049 H 
ATOM     15  H2  DKA d           4.814   2.799  22.791  0.00  0.00     0.049 H 
BRANCH  13  16
ATOM     16  C1  DKA d           3.710   3.271  21.008  0.00  0.00     0.172 C 
ATOM     17  O1  DKA d           2.834   4.121  20.849  0.00  0.00    -0.648 OA
ATOM     18  O2  DKA d           4.505   3.060  19.954  0.00  0.00    -0.648 OA
ENDBRANCH  13  16
ENDBRANCH  10  13
ENDBRANCH   7  10
ENDBRANCH   4   7
ENDBRANCH   1   4
BRANCH   1  19
ATOM     19  C7  DKA d           1.257  -1.793  21.908  0.00  0.00    -0.065 C 
ATOM     20  H11 DKA d           0.404  -2.482  21.816  0.00  0.00     0.033 H 
ATOM     21  H12 DKA d           0.890  -0.756  21.943  0.00  0.00     0.033 H 
BRANCH  19  22
ATOM     22  C8  DKA d           1.991  -2.096  23.212  0.00  0.00    -0.065 C 
ATOM     23  H13 DKA d           2.465  -1.174  23.582  0.00  0.00     0.033 H 
ATOM     24  H14 DKA d           2.762  -2.856  23.024  0.00  0.00     0.033 H 
BRANCH  22  25
ATOM     25  C9  DKA d           1.023  -2.616  24.266  0.00  0.00    -0.069 C 
ATOM     26  H15 DKA d           1.197  -3.693  24.407  0.00  0.00     0.032 H 
ATOM     27  H16 DKA d          -0.007  -2.454  23.915  0.00  0.00     0.032 H 
BRANCH  25  28
ATOM     28  C10 DKA d           1.203  -1.914  25.591  0.00  0.00    -0.077 C 
ATOM     29  H17 DKA d           1.672  -0.933  25.426  0.00  0.00     0.027 H 
ATOM     30  H18 DKA d           1.846  -2.523  26.245  0.00  0.00     0.027 H 
ATOM     31  H19 DKA d           0.222  -1.776  26.069  0.00  0.00     0.027 H 
ENDBRANCH  25  28
ENDBRANCH  22  25
ENDBRANCH  19  22
ENDBRANCH   1  19
TORSDOF 9
ENDMDL
