REMARK  16 active torsions:
REMARK  status: ('A' for Active; 'I' for Inactive)
REMARK    1  A    between atoms: S8_1  and  C35_3 
REMARK    2  A    between atoms: N11_14  and  S8_1 
REMARK    3  A    between atoms: O9_5  and  C10_4 
REMARK    4  A    between atoms: C5_6  and  O9_5 
REMARK    5  A    between atoms: C45_25  and  C13_13 
REMARK       I    between atoms: C13_13  and  N15_30 
REMARK    6  A    between atoms: C45_25  and  N11_14 
REMARK    7  A    between atoms: C15_16  and  C31_17 
REMARK    8  A    between atoms: N14_29  and  C15_16 
REMARK    9  A    between atoms: C12_26  and  C45_25 
REMARK   10  A    between atoms: C46_27  and  C12_26 
REMARK       I    between atoms: C46_27  and  N14_29 
REMARK   11  A    between atoms: C16_31  and  C17_32 
REMARK       I    between atoms: C17_32  and  N19_37 
REMARK   12  A    between atoms: N19_37  and  C20_38 
REMARK   13  A    between atoms: C20_38  and  C21_39 
REMARK   14  A    between atoms: C24_42  and  C27_43 
REMARK   15  A    between atoms: C27_43  and  N29_44 
REMARK   16  A    between atoms: C27_43  and  N28_45 
ROOT
ATOM      1  C31 MOL d          14.228 -19.618  23.499  0.00  0.00    -0.040 A 
ATOM      2  C32 MOL d          13.022 -20.139  23.658  0.00  0.00    -0.074 A 
ATOM      3  C33 MOL d          12.597 -20.351  24.905  0.00  0.00    -0.062 A 
ATOM      4  C44 MOL d          13.322 -20.110  26.022  0.00  0.00     0.044 A 
ATOM      5  C8  MOL d          14.573 -19.571  25.872  0.00  0.00    -0.062 A 
ATOM      6  C9  MOL d          14.945 -19.430  24.623  0.00  0.00    -0.074 A 
ATOM      7  C40 MOL d          12.816 -20.311  27.102  0.00  0.00     0.099 C 
ATOM      8  N63 MOL d          12.334 -20.362  28.094  0.00  0.00    -0.191 NA
ATOM      9  H10 MOL d          12.401 -20.385  22.805  0.00  0.00     0.084 H 
ATOM     10  H11 MOL d          11.596 -20.746  25.033  0.00  0.00     0.085 H 
ATOM     11  H12 MOL d          15.198 -19.287  26.710  0.00  0.00     0.085 H 
ATOM     12  H13 MOL d          15.973 -19.119  24.474  0.00  0.00     0.084 H 
ENDROOT
BRANCH   1  13
ATOM     13  C15 MOL d          14.733 -19.366  22.186  0.00  0.00     0.019 C 
ATOM     14  H8  MOL d          13.904 -19.504  21.476  0.00  0.00     0.071 H 
ATOM     15  H9  MOL d          15.518 -20.108  21.981  0.00  0.00     0.071 H 
BRANCH  13  16
ATOM     16  N14 MOL d          15.317 -18.006  21.946  0.00  0.00    -0.357 N 
ATOM     17  C46 MOL d          16.525 -17.660  21.531  0.00  0.00     0.220 C 
ATOM     18  O22 MOL d          17.394 -18.381  21.374  0.00  0.00    -0.274 OA
ATOM     19  H17 MOL d          14.698 -17.242  22.128  0.00  0.00     0.162 HD
BRANCH  17  20
ATOM     20  C12 MOL d          16.872 -16.136  21.388  0.00  0.00     0.037 C 
ATOM     21  H15 MOL d          17.473 -16.006  20.476  0.00  0.00     0.051 H 
ATOM     22  H16 MOL d          15.929 -15.578  21.289  0.00  0.00     0.051 H 
BRANCH  20  23
ATOM     23  C45 MOL d          17.695 -15.513  22.623  0.00  0.00     0.105 C 
ATOM     24  H14 MOL d          18.729 -15.887  22.599  0.00  0.00     0.089 H 
BRANCH  23  25
ATOM     25  C13 MOL d          17.664 -13.957  22.368  0.00  0.00     0.244 C 
ATOM     26  O14 MOL d          16.787 -13.364  22.896  0.00  0.00    -0.271 OA
ATOM     27  N15 MOL d          18.577 -13.481  21.618  0.00  0.00    -0.337 N 
ATOM     28  C16 MOL d          18.448 -12.177  21.129  0.00  0.00     0.091 C 
ATOM     29  C2  MOL d          19.619 -14.222  20.912  0.00  0.00    -0.001 C 
ATOM     30  C34 MOL d          19.528 -12.016  20.073  0.00  0.00    -0.036 C 
ATOM     31  H18 MOL d          18.478 -11.411  21.917  0.00  0.00     0.087 H 
ATOM     32  C1  MOL d          20.356 -13.259  20.079  0.00  0.00    -0.048 C 
ATOM     33  H19 MOL d          20.157 -11.145  20.310  0.00  0.00     0.036 H 
ATOM     34  H20 MOL d          19.067 -11.877  19.084  0.00  0.00     0.036 H 
ATOM     35  H21 MOL d          21.347 -13.058  20.511  0.00  0.00     0.035 H 
ATOM     36  H22 MOL d          20.473 -13.647  19.056  0.00  0.00     0.035 H 
ATOM     37  H23 MOL d          19.165 -14.997  20.278  0.00  0.00     0.064 H 
ATOM     38  H24 MOL d          20.301 -14.693  21.635  0.00  0.00     0.064 H 
BRANCH  28  39
ATOM     39  C17 MOL d          17.120 -12.172  20.281  0.00  0.00     0.240 C 
ATOM     40  O18 MOL d          16.844 -12.988  19.477  0.00  0.00    -0.271 OA
ATOM     41  N19 MOL d          16.328 -11.069  20.454  0.00  0.00    -0.355 N 
ATOM     42  H25 MOL d          16.646 -10.358  21.081  0.00  0.00     0.162 HD
BRANCH  41  43
ATOM     43  C20 MOL d          15.079 -10.869  19.797  0.00  0.00     0.019 C 
ATOM     44  H26 MOL d          14.901 -11.677  19.072  0.00  0.00     0.071 H 
ATOM     45  H27 MOL d          15.079  -9.901  19.275  0.00  0.00     0.071 H 
BRANCH  43  46
ATOM     46  C21 MOL d          14.019 -10.883  20.849  0.00  0.00    -0.040 A 
ATOM     47  C26 MOL d          13.411  -9.761  21.326  0.00  0.00    -0.074 A 
ATOM     48  C25 MOL d          12.501  -9.755  22.248  0.00  0.00    -0.069 A 
ATOM     49  H28 MOL d          13.709  -8.808  20.905  0.00  0.00     0.084 H 
ATOM     50  C24 MOL d          12.073 -10.845  22.853  0.00  0.00     0.007 A 
ATOM     51  H29 MOL d          12.069  -8.804  22.537  0.00  0.00     0.085 H 
ATOM     52  C23 MOL d          12.673 -11.976  22.463  0.00  0.00    -0.069 A 
ATOM     53  C22 MOL d          13.599 -11.952  21.495  0.00  0.00    -0.074 A 
ATOM     54  H34 MOL d          12.408 -12.916  22.933  0.00  0.00     0.085 H 
ATOM     55  H35 MOL d          14.044 -12.900  21.217  0.00  0.00     0.084 H 
BRANCH  50  56
ATOM     56  C27 MOL d          11.067 -10.866  23.868  0.00  0.00     0.102 C 
BRANCH  56  57
ATOM     57  N29 MOL d          10.802  -9.893  24.472  0.00  0.00    -0.385 N 
ATOM     58  H30 MOL d          10.075  -9.921  25.201  0.00  0.00     0.157 HD
ATOM     59  H31 MOL d          11.297  -9.012  24.272  0.00  0.00     0.157 HD
ENDBRANCH  56  57
BRANCH  56  60
ATOM     60  N28 MOL d          10.398 -11.928  24.101  0.00  0.00    -0.385 N 
ATOM     61  H32 MOL d          10.610 -12.794  23.585  0.00  0.00     0.157 HD
ATOM     62  H33 MOL d           9.646 -11.919  24.805  0.00  0.00     0.157 HD
ENDBRANCH  56  60
ENDBRANCH  50  56
ENDBRANCH  43  46
ENDBRANCH  41  43
ENDBRANCH  28  39
ENDBRANCH  23  25
BRANCH  23  63
ATOM     63  N11 MOL d          17.175 -15.778  23.835  0.00  0.00    -0.301 N 
ATOM     64  H7  MOL d          16.210 -15.588  24.018  0.00  0.00     0.173 HD
BRANCH  63  65
ATOM     65  S8  MOL d          18.085 -16.387  24.964  0.00  0.00     0.259 S 
ATOM     66  O1  MOL d          18.423 -17.382  24.380  0.00  0.00    -0.201 OA
ATOM     67  O10 MOL d          17.644 -16.322  26.008  0.00  0.00    -0.201 OA
BRANCH  65  68
ATOM     68  C35 MOL d          19.551 -15.472  24.952  0.00  0.00     0.081 A 
ATOM     69  C7  MOL d          20.577 -15.713  24.078  0.00  0.00    -0.058 A 
ATOM     70  C6  MOL d          21.733 -14.928  24.061  0.00  0.00    -0.048 A 
ATOM     71  H4  MOL d          20.490 -16.537  23.379  0.00  0.00     0.086 H 
ATOM     72  C5  MOL d          21.813 -13.837  24.893  0.00  0.00     0.089 A 
ATOM     73  H6  MOL d          22.556 -15.176  23.400  0.00  0.00     0.087 H 
ATOM     74  C4  MOL d          20.755 -13.593  25.687  0.00  0.00     0.068 A 
ATOM     75 CL   MOL d          20.837 -12.146  26.685  0.00  0.00    -0.081 Cl
ATOM     76  C3  MOL d          19.680 -14.324  25.761  0.00  0.00    -0.037 A 
ATOM     77  H5  MOL d          18.884 -14.050  26.444  0.00  0.00     0.088 H 
BRANCH  72  78
ATOM     78  O9  MOL d          22.925 -13.092  24.979  0.00  0.00    -0.354 OA
BRANCH  78  79
ATOM     79  C10 MOL d          23.973 -13.358  24.164  0.00  0.00     0.010 C 
ATOM     80  H1  MOL d          24.790 -12.652  24.375  0.00  0.00     0.066 H 
ATOM     81  H2  MOL d          23.658 -13.252  23.115  0.00  0.00     0.066 H 
ATOM     82  H3  MOL d          24.323 -14.386  24.340  0.00  0.00     0.066 H 
ENDBRANCH  78  79
ENDBRANCH  72  78
ENDBRANCH  65  68
ENDBRANCH  63  65
ENDBRANCH  23  63
ENDBRANCH  20  23
ENDBRANCH  17  20
ENDBRANCH  13  16
ENDBRANCH   1  13
TORSDOF 16
