MODEL 1
REMARK VINA RESULT:      -6.5      0.000      0.000
REMARK  16 active torsions:
REMARK  status: ('A' for Active; 'I' for Inactive)
REMARK    1  A    between atoms: S8_1  and  C35_3 
REMARK    2  A    between atoms: N11_14  and  S8_1 
REMARK    3  A    between atoms: O9_5  and  C10_4 
REMARK    4  A    between atoms: C5_6  and  O9_5 
REMARK    5  A    between atoms: C45_25  and  C13_13 
REMARK       I    between atoms: C13_13  and  N15_30 
REMARK    6  A    between atoms: C45_25  and  N11_14 
REMARK    7  A    between atoms: C15_16  and  C31_17 
REMARK    8  A    between atoms: N14_29  and  C15_16 
REMARK    9  A    between atoms: C12_26  and  C45_25 
REMARK   10  A    between atoms: C46_27  and  C12_26 
REMARK       I    between atoms: C46_27  and  N14_29 
REMARK   11  A    between atoms: C16_31  and  C17_32 
REMARK       I    between atoms: C17_32  and  N19_37 
REMARK   12  A    between atoms: N19_37  and  C20_38 
REMARK   13  A    between atoms: C20_38  and  C21_39 
REMARK   14  A    between atoms: C24_42  and  C27_43 
REMARK   15  A    between atoms: C27_43  and  N29_44 
REMARK   16  A    between atoms: C27_43  and  N28_45 
ROOT
ATOM      1  C31 MOL d          20.859 -14.777  25.715  0.00  0.00    -0.040 A 
ATOM      2  C32 MOL d          22.161 -14.553  25.637  0.00  0.00    -0.074 A 
ATOM      3  C33 MOL d          22.980 -15.596  25.780  0.00  0.00    -0.062 A 
ATOM      4  C44 MOL d          22.583 -16.864  26.037  0.00  0.00     0.044 A 
ATOM      5  C8  MOL d          21.237 -17.111  26.121  0.00  0.00    -0.062 A 
ATOM      6  C9  MOL d          20.492 -16.037  26.016  0.00  0.00    -0.074 A 
ATOM      7  C40 MOL d          23.418 -17.735  26.112  0.00  0.00     0.099 C 
ATOM      8  N63 MOL d          24.146 -18.564  26.055  0.00  0.00    -0.191 NA
ATOM      9  H10 MOL d          22.548 -13.556  25.464  0.00  0.00     0.084 H 
ATOM     10  H11 MOL d          24.044 -15.415  25.682  0.00  0.00     0.085 H 
ATOM     11  H12 MOL d          20.826 -18.103  26.260  0.00  0.00     0.085 H 
ATOM     12  H13 MOL d          19.433 -16.184  26.198  0.00  0.00     0.084 H 
ENDROOT
BRANCH   1  13
ATOM     13  C15 MOL d          19.935 -13.697  25.566  0.00  0.00     0.019 C 
ATOM     14  H8  MOL d          20.518 -12.771  25.454  0.00  0.00     0.071 H 
ATOM     15  H9  MOL d          19.333 -13.643  26.485  0.00  0.00     0.071 H 
BRANCH  13  16
ATOM     16  N14 MOL d          18.989 -13.784  24.406  0.00  0.00    -0.357 N 
ATOM     17  C46 MOL d          17.872 -14.480  24.269  0.00  0.00     0.220 C 
ATOM     18  O22 MOL d          17.481 -15.244  25.020  0.00  0.00    -0.274 OA
ATOM     19  H17 MOL d          19.242 -13.230  23.613  0.00  0.00     0.162 HD
BRANCH  17  20
ATOM     20  C12 MOL d          17.084 -14.394  22.914  0.00  0.00     0.037 C 
ATOM     21  H15 MOL d          16.425 -15.272  22.846  0.00  0.00     0.051 H 
ATOM     22  H16 MOL d          16.475 -13.478  22.930  0.00  0.00     0.051 H 
BRANCH  20  23
ATOM     23  C45 MOL d          18.009 -14.358  21.598  0.00  0.00     0.105 C 
ATOM     24  H14 MOL d          18.949 -13.834  21.825  0.00  0.00     0.089 H 
BRANCH  23  25
ATOM     25  C13 MOL d          18.288 -15.876  21.274  0.00  0.00     0.244 C 
ATOM     26  O14 MOL d          17.394 -16.471  20.776  0.00  0.00    -0.271 OA
ATOM     27  N15 MOL d          19.440 -16.325  21.578  0.00  0.00    -0.337 N 
ATOM     28  C16 MOL d          19.656 -17.707  21.579  0.00  0.00     0.091 C 
ATOM     29  C2  MOL d          20.519 -15.609  22.254  0.00  0.00    -0.001 C 
ATOM     30  C34 MOL d          21.009 -17.920  22.237  0.00  0.00    -0.036 C 
ATOM     31  H18 MOL d          19.570 -18.162  20.582  0.00  0.00     0.087 H 
ATOM     32  C1  MOL d          21.603 -16.574  22.497  0.00  0.00    -0.048 C 
ATOM     33  H19 MOL d          21.664 -18.497  21.568  0.00  0.00     0.036 H 
ATOM     34  H20 MOL d          20.882 -18.463  23.185  0.00  0.00     0.036 H 
ATOM     35  H21 MOL d          22.443 -16.387  21.813  0.00  0.00     0.035 H 
ATOM     36  H22 MOL d          21.953 -16.504  23.538  0.00  0.00     0.035 H 
ATOM     37  H23 MOL d          20.159 -15.200  23.209  0.00  0.00     0.064 H 
ATOM     38  H24 MOL d          20.882 -14.789  21.618  0.00  0.00     0.064 H 
BRANCH  28  39
ATOM     39  C17 MOL d          18.650 -18.293  22.640  0.00  0.00     0.240 C 
ATOM     40  O18 MOL d          18.583 -17.932  23.760  0.00  0.00    -0.271 OA
ATOM     41  N19 MOL d          17.908 -19.358  22.206  0.00  0.00    -0.355 N 
ATOM     42  H25 MOL d          18.062 -19.688  21.275  0.00  0.00     0.162 HD
BRANCH  41  43
ATOM     43  C20 MOL d          16.930 -20.028  22.998  0.00  0.00     0.019 C 
ATOM     44  H26 MOL d          16.940 -19.632  24.024  0.00  0.00     0.071 H 
ATOM     45  H27 MOL d          17.138 -21.108  23.019  0.00  0.00     0.071 H 
BRANCH  43  46
ATOM     46  C21 MOL d          15.601 -19.776  22.365  0.00  0.00    -0.040 A 
ATOM     47  C26 MOL d          15.443 -19.218  21.132  0.00  0.00    -0.074 A 
ATOM     48  C25 MOL d          14.298 -18.980  20.575  0.00  0.00    -0.069 A 
ATOM     49  H28 MOL d          16.337 -18.956  20.579  0.00  0.00     0.084 H 
ATOM     50  C24 MOL d          13.142 -19.231  21.157  0.00  0.00     0.007 A 
ATOM     51  H29 MOL d          14.290 -18.551  19.580  0.00  0.00     0.085 H 
ATOM     52  C23 MOL d          13.233 -19.732  22.394  0.00  0.00    -0.069 A 
ATOM     53  C22 MOL d          14.432 -19.983  22.936  0.00  0.00    -0.074 A 
ATOM     54  H34 MOL d          12.331 -19.935  22.961  0.00  0.00     0.085 H 
ATOM     55  H35 MOL d          14.441 -20.395  23.938  0.00  0.00     0.084 H 
BRANCH  50  56
ATOM     56  C27 MOL d          11.866 -18.982  20.562  0.00  0.00     0.102 C 
BRANCH  56  57
ATOM     57  N29 MOL d          11.459 -17.886  20.449  0.00  0.00    -0.385 N 
ATOM     58  H30 MOL d          11.292 -17.492  19.512  0.00  0.00     0.157 HD
ATOM     59  H31 MOL d          11.269 -17.318  21.287  0.00  0.00     0.157 HD
ENDBRANCH  56  57
BRANCH  56  60
ATOM     60  N28 MOL d          11.167 -19.942  20.093  0.00  0.00    -0.385 N 
ATOM     61  H32 MOL d          11.614 -20.843  19.870  0.00  0.00     0.157 HD
ATOM     62  H33 MOL d          10.157 -19.816  19.938  0.00  0.00     0.157 HD
ENDBRANCH  56  60
ENDBRANCH  50  56
ENDBRANCH  43  46
ENDBRANCH  41  43
ENDBRANCH  28  39
ENDBRANCH  23  25
BRANCH  23  63
ATOM     63  N11 MOL d          17.442 -13.769  20.529  0.00  0.00    -0.301 N 
ATOM     64  H7  MOL d          16.993 -14.327  19.830  0.00  0.00     0.173 HD
BRANCH  63  65
ATOM     65  S8  MOL d          17.485 -12.204  20.380  0.00  0.00     0.259 S 
ATOM     66  O1  MOL d          17.448 -12.156  19.179  0.00  0.00    -0.201 OA
ATOM     67  O10 MOL d          18.230 -11.688  21.063  0.00  0.00    -0.201 OA
BRANCH  65  68
ATOM     68  C35 MOL d          15.906 -11.634  20.791  0.00  0.00     0.081 A 
ATOM     69  C7  MOL d          15.453 -10.384  20.465  0.00  0.00    -0.058 A 
ATOM     70  C6  MOL d          14.156  -9.965  20.771  0.00  0.00    -0.048 A 
ATOM     71  H4  MOL d          16.120  -9.699  19.954  0.00  0.00     0.086 H 
ATOM     72  C5  MOL d          13.284 -10.856  21.349  0.00  0.00     0.089 A 
ATOM     73  H6  MOL d          13.840  -8.950  20.555  0.00  0.00     0.087 H 
ATOM     74  C4  MOL d          13.746 -12.096  21.591  0.00  0.00     0.068 A 
ATOM     75 CL   MOL d          12.595 -13.250  22.254  0.00  0.00    -0.081 Cl
ATOM     76  C3  MOL d          14.958 -12.511  21.358  0.00  0.00    -0.037 A 
ATOM     77  H5  MOL d          15.239 -13.529  21.600  0.00  0.00     0.088 H 
BRANCH  72  78
ATOM     78  O9  MOL d          12.053 -10.492  21.737  0.00  0.00    -0.354 OA
BRANCH  78  79
ATOM     79  C10 MOL d          11.879  -9.901  22.943  0.00  0.00     0.010 C 
ATOM     80  H1  MOL d          12.802  -9.997  23.535  0.00  0.00     0.066 H 
ATOM     81  H2  MOL d          11.049 -10.389  23.475  0.00  0.00     0.066 H 
ATOM     82  H3  MOL d          11.646  -8.835  22.798  0.00  0.00     0.066 H 
ENDBRANCH  78  79
ENDBRANCH  72  78
ENDBRANCH  65  68
ENDBRANCH  63  65
ENDBRANCH  23  63
ENDBRANCH  20  23
ENDBRANCH  17  20
ENDBRANCH  13  16
ENDBRANCH   1  13
TORSDOF 16
ENDMDL
MODEL 2
REMARK VINA RESULT:      -5.4      2.979      8.263
REMARK  16 active torsions:
REMARK  status: ('A' for Active; 'I' for Inactive)
REMARK    1  A    between atoms: S8_1  and  C35_3 
REMARK    2  A    between atoms: N11_14  and  S8_1 
REMARK    3  A    between atoms: O9_5  and  C10_4 
REMARK    4  A    between atoms: C5_6  and  O9_5 
REMARK    5  A    between atoms: C45_25  and  C13_13 
REMARK       I    between atoms: C13_13  and  N15_30 
REMARK    6  A    between atoms: C45_25  and  N11_14 
REMARK    7  A    between atoms: C15_16  and  C31_17 
REMARK    8  A    between atoms: N14_29  and  C15_16 
REMARK    9  A    between atoms: C12_26  and  C45_25 
REMARK   10  A    between atoms: C46_27  and  C12_26 
REMARK       I    between atoms: C46_27  and  N14_29 
REMARK   11  A    between atoms: C16_31  and  C17_32 
REMARK       I    between atoms: C17_32  and  N19_37 
REMARK   12  A    between atoms: N19_37  and  C20_38 
REMARK   13  A    between atoms: C20_38  and  C21_39 
REMARK   14  A    between atoms: C24_42  and  C27_43 
REMARK   15  A    between atoms: C27_43  and  N29_44 
REMARK   16  A    between atoms: C27_43  and  N28_45 
ROOT
ATOM      1  C31 MOL d          14.838 -12.404  20.773  0.00  0.00    -0.040 A 
ATOM      2  C32 MOL d          13.837 -12.740  21.570  0.00  0.00    -0.074 A 
ATOM      3  C33 MOL d          13.012 -11.772  21.973  0.00  0.00    -0.062 A 
ATOM      4  C44 MOL d          13.144 -10.462  21.660  0.00  0.00     0.044 A 
ATOM      5  C8  MOL d          14.177 -10.099  20.836  0.00  0.00    -0.062 A 
ATOM      6  C9  MOL d          14.973 -11.089  20.514  0.00  0.00    -0.074 A 
ATOM      7  C40 MOL d          12.312  -9.679  22.058  0.00  0.00     0.099 C 
ATOM      8  N63 MOL d          11.500  -8.970  22.298  0.00  0.00    -0.191 NA
ATOM      9  H10 MOL d          13.692 -13.767  21.885  0.00  0.00     0.084 H 
ATOM     10  H11 MOL d          12.174 -12.055  22.599  0.00  0.00     0.085 H 
ATOM     11  H12 MOL d          14.322  -9.086  20.482  0.00  0.00     0.085 H 
ATOM     12  H13 MOL d          15.864 -10.812  19.962  0.00  0.00     0.084 H 
ENDROOT
BRANCH   1  13
ATOM     13  C15 MOL d          15.750 -13.401  20.307  0.00  0.00     0.019 C 
ATOM     14  H8  MOL d          16.579 -12.885  19.799  0.00  0.00     0.071 H 
ATOM     15  H9  MOL d          15.214 -14.033  19.585  0.00  0.00     0.071 H 
BRANCH  13  16
ATOM     16  N14 MOL d          16.343 -14.300  21.350  0.00  0.00    -0.357 N 
ATOM     17  C46 MOL d          15.956 -15.497  21.761  0.00  0.00     0.220 C 
ATOM     18  O22 MOL d          14.998 -16.022  21.436  0.00  0.00    -0.274 OA
ATOM     19  H17 MOL d          17.158 -13.940  21.805  0.00  0.00     0.162 HD
BRANCH  17  20
ATOM     20  C12 MOL d          16.768 -16.209  22.900  0.00  0.00     0.037 C 
ATOM     21  H15 MOL d          16.778 -15.546  23.778  0.00  0.00     0.051 H 
ATOM     22  H16 MOL d          16.251 -17.146  23.154  0.00  0.00     0.051 H 
BRANCH  20  23
ATOM     23  C45 MOL d          18.292 -16.563  22.523  0.00  0.00     0.105 C 
ATOM     24  H14 MOL d          18.358 -16.796  21.450  0.00  0.00     0.089 H 
BRANCH  23  25
ATOM     25  C13 MOL d          19.093 -15.245  22.853  0.00  0.00     0.244 C 
ATOM     26  O14 MOL d          19.561 -14.679  21.925  0.00  0.00    -0.271 OA
ATOM     27  N15 MOL d          19.168 -14.912  24.080  0.00  0.00    -0.337 N 
ATOM     28  C16 MOL d          20.084 -13.929  24.466  0.00  0.00     0.091 C 
ATOM     29  C2  MOL d          18.647 -15.647  25.230  0.00  0.00    -0.001 C 
ATOM     30  C34 MOL d          20.121 -13.963  25.984  0.00  0.00    -0.036 C 
ATOM     31  H18 MOL d          19.860 -12.937  24.048  0.00  0.00     0.087 H 
ATOM     32  C1  MOL d          19.083 -14.935  26.441  0.00  0.00    -0.048 C 
ATOM     33  H19 MOL d          19.902 -12.963  26.387  0.00  0.00     0.036 H 
ATOM     34  H20 MOL d          21.115 -14.286  26.327  0.00  0.00     0.036 H 
ATOM     35  H21 MOL d          18.237 -14.404  26.900  0.00  0.00     0.035 H 
ATOM     36  H22 MOL d          19.512 -15.640  27.168  0.00  0.00     0.035 H 
ATOM     37  H23 MOL d          19.046 -16.672  25.233  0.00  0.00     0.064 H 
ATOM     38  H24 MOL d          17.549 -15.681  25.189  0.00  0.00     0.064 H 
BRANCH  28  39
ATOM     39  C17 MOL d          21.501 -14.488  24.064  0.00  0.00     0.240 C 
ATOM     40  O18 MOL d          22.278 -13.906  23.396  0.00  0.00    -0.271 OA
ATOM     41  N19 MOL d          21.744 -15.778  24.452  0.00  0.00    -0.355 N 
ATOM     42  H25 MOL d          21.020 -16.265  24.940  0.00  0.00     0.162 HD
BRANCH  41  43
ATOM     43  C20 MOL d          22.964 -16.472  24.204  0.00  0.00     0.019 C 
ATOM     44  H26 MOL d          23.276 -17.020  25.106  0.00  0.00     0.071 H 
ATOM     45  H27 MOL d          23.751 -15.759  23.918  0.00  0.00     0.071 H 
BRANCH  43  46
ATOM     46  C21 MOL d          22.709 -17.429  23.086  0.00  0.00    -0.040 A 
ATOM     47  C26 MOL d          23.343 -18.628  22.957  0.00  0.00    -0.074 A 
ATOM     48  C25 MOL d          23.144 -19.462  21.986  0.00  0.00    -0.069 A 
ATOM     49  H28 MOL d          24.063 -18.903  23.718  0.00  0.00     0.084 H 
ATOM     50  C24 MOL d          22.313 -19.231  20.989  0.00  0.00     0.007 A 
ATOM     51  H29 MOL d          23.689 -20.399  21.994  0.00  0.00     0.085 H 
ATOM     52  C23 MOL d          21.699 -18.043  21.033  0.00  0.00    -0.069 A 
ATOM     53  C22 MOL d          21.913 -17.209  22.059  0.00  0.00    -0.074 A 
ATOM     54  H34 MOL d          21.025 -17.755  20.235  0.00  0.00     0.085 H 
ATOM     55  H35 MOL d          21.382 -16.264  22.044  0.00  0.00     0.084 H 
BRANCH  50  56
ATOM     56  C27 MOL d          22.072 -20.137  19.910  0.00  0.00     0.102 C 
BRANCH  56  57
ATOM     57  N29 MOL d          20.983 -20.513  19.672  0.00  0.00    -0.385 N 
ATOM     58  H30 MOL d          20.174 -20.067  20.128  0.00  0.00     0.157 HD
ATOM     59  H31 MOL d          20.839 -21.287  19.009  0.00  0.00     0.157 HD
ENDBRANCH  56  57
BRANCH  56  60
ATOM     60  N28 MOL d          23.025 -20.513  19.148  0.00  0.00    -0.385 N 
ATOM     61  H32 MOL d          22.985 -21.435  18.690  0.00  0.00     0.157 HD
ATOM     62  H33 MOL d          23.834 -19.895  18.992  0.00  0.00     0.157 HD
ENDBRANCH  56  60
ENDBRANCH  50  56
ENDBRANCH  43  46
ENDBRANCH  41  43
ENDBRANCH  28  39
ENDBRANCH  23  25
BRANCH  23  63
ATOM     63  N11 MOL d          18.817 -17.591  23.214  0.00  0.00    -0.301 N 
ATOM     64  H7  MOL d          19.446 -17.415  23.971  0.00  0.00     0.173 HD
BRANCH  63  65
ATOM     65  S8  MOL d          18.441 -19.069  22.830  0.00  0.00     0.259 S 
ATOM     66  O1  MOL d          19.173 -19.628  23.603  0.00  0.00    -0.201 OA
ATOM     67  O10 MOL d          18.353 -19.256  21.714  0.00  0.00    -0.201 OA
BRANCH  65  68
ATOM     68  C35 MOL d          16.897 -19.377  23.541  0.00  0.00     0.081 A 
ATOM     69  C7  MOL d          16.665 -19.305  24.889  0.00  0.00    -0.058 A 
ATOM     70  C6  MOL d          15.395 -19.515  25.432  0.00  0.00    -0.048 A 
ATOM     71  H4  MOL d          17.491 -19.078  25.553  0.00  0.00     0.086 H 
ATOM     72  C5  MOL d          14.332 -19.727  24.587  0.00  0.00     0.089 A 
ATOM     73  H6  MOL d          15.249 -19.511  26.507  0.00  0.00     0.087 H 
ATOM     74  C4  MOL d          14.589 -19.721  23.267  0.00  0.00     0.068 A 
ATOM     75 CL   MOL d          13.206 -19.910  22.195  0.00  0.00    -0.081 Cl
ATOM     76  C3  MOL d          15.763 -19.571  22.725  0.00  0.00    -0.037 A 
ATOM     77  H5  MOL d          15.869 -19.594  21.646  0.00  0.00     0.088 H 
BRANCH  72  78
ATOM     78  O9  MOL d          13.105 -20.012  25.049  0.00  0.00    -0.354 OA
BRANCH  78  79
ATOM     79  C10 MOL d          12.917 -20.195  26.377  0.00  0.00     0.010 C 
ATOM     80  H1  MOL d          13.406 -21.129  26.692  0.00  0.00     0.066 H 
ATOM     81  H2  MOL d          11.839 -20.255  26.590  0.00  0.00     0.066 H 
ATOM     82  H3  MOL d          13.353 -19.349  26.930  0.00  0.00     0.066 H 
ENDBRANCH  78  79
ENDBRANCH  72  78
ENDBRANCH  65  68
ENDBRANCH  63  65
ENDBRANCH  23  63
ENDBRANCH  20  23
ENDBRANCH  17  20
ENDBRANCH  13  16
ENDBRANCH   1  13
TORSDOF 16
ENDMDL
MODEL 3
REMARK VINA RESULT:      -5.0      3.456      8.062
REMARK  16 active torsions:
REMARK  status: ('A' for Active; 'I' for Inactive)
REMARK    1  A    between atoms: S8_1  and  C35_3 
REMARK    2  A    between atoms: N11_14  and  S8_1 
REMARK    3  A    between atoms: O9_5  and  C10_4 
REMARK    4  A    between atoms: C5_6  and  O9_5 
REMARK    5  A    between atoms: C45_25  and  C13_13 
REMARK       I    between atoms: C13_13  and  N15_30 
REMARK    6  A    between atoms: C45_25  and  N11_14 
REMARK    7  A    between atoms: C15_16  and  C31_17 
REMARK    8  A    between atoms: N14_29  and  C15_16 
REMARK    9  A    between atoms: C12_26  and  C45_25 
REMARK   10  A    between atoms: C46_27  and  C12_26 
REMARK       I    between atoms: C46_27  and  N14_29 
REMARK   11  A    between atoms: C16_31  and  C17_32 
REMARK       I    between atoms: C17_32  and  N19_37 
REMARK   12  A    between atoms: N19_37  and  C20_38 
REMARK   13  A    between atoms: C20_38  and  C21_39 
REMARK   14  A    between atoms: C24_42  and  C27_43 
REMARK   15  A    between atoms: C27_43  and  N29_44 
REMARK   16  A    between atoms: C27_43  and  N28_45 
ROOT
ATOM      1  C31 MOL d          19.020 -13.262  22.486  0.00  0.00    -0.040 A 
ATOM      2  C32 MOL d          20.301 -13.463  22.224  0.00  0.00    -0.074 A 
ATOM      3  C33 MOL d          20.770 -13.032  21.052  0.00  0.00    -0.062 A 
ATOM      4  C44 MOL d          20.025 -12.437  20.091  0.00  0.00     0.044 A 
ATOM      5  C8  MOL d          18.697 -12.222  20.349  0.00  0.00    -0.062 A 
ATOM      6  C9  MOL d          18.292 -12.709  21.497  0.00  0.00    -0.074 A 
ATOM      7  C40 MOL d          20.571 -12.057  19.080  0.00  0.00     0.099 C 
ATOM      8  N63 MOL d          21.064 -11.587  18.212  0.00  0.00    -0.191 NA
ATOM      9  H10 MOL d          20.947 -13.962  22.936  0.00  0.00     0.084 H 
ATOM     10  H11 MOL d          21.827 -13.168  20.854  0.00  0.00     0.085 H 
ATOM     11  H12 MOL d          18.040 -11.697  19.666  0.00  0.00     0.085 H 
ATOM     12  H13 MOL d          17.224 -12.661  21.674  0.00  0.00     0.084 H 
ENDROOT
BRANCH   1  13
ATOM     13  C15 MOL d          18.464 -13.700  23.728  0.00  0.00     0.019 C 
ATOM     14  H8  MOL d          17.554 -13.109  23.914  0.00  0.00     0.071 H 
ATOM     15  H9  MOL d          19.202 -13.494  24.516  0.00  0.00     0.071 H 
BRANCH  13  16
ATOM     16  N14 MOL d          18.092 -15.150  23.817  0.00  0.00    -0.357 N 
ATOM     17  C46 MOL d          18.813 -16.190  24.204  0.00  0.00     0.220 C 
ATOM     18  O22 MOL d          19.925 -16.159  24.453  0.00  0.00    -0.274 OA
ATOM     19  H17 MOL d          17.155 -15.364  23.541  0.00  0.00     0.162 HD
BRANCH  17  20
ATOM     20  C12 MOL d          18.162 -17.618  24.176  0.00  0.00     0.037 C 
ATOM     21  H15 MOL d          18.645 -18.230  24.952  0.00  0.00     0.051 H 
ATOM     22  H16 MOL d          17.092 -17.511  24.406  0.00  0.00     0.051 H 
BRANCH  20  23
ATOM     23  C45 MOL d          18.297 -18.393  22.771  0.00  0.00     0.105 C 
ATOM     24  H14 MOL d          18.046 -19.454  22.914  0.00  0.00     0.089 H 
BRANCH  23  25
ATOM     25  C13 MOL d          17.237 -17.695  21.836  0.00  0.00     0.244 C 
ATOM     26  O14 MOL d          17.303 -16.515  21.770  0.00  0.00    -0.271 OA
ATOM     27  N15 MOL d          16.406 -18.457  21.243  0.00  0.00    -0.337 N 
ATOM     28  C16 MOL d          15.280 -17.895  20.632  0.00  0.00     0.091 C 
ATOM     29  C2  MOL d          16.281 -19.906  21.378  0.00  0.00    -0.001 C 
ATOM     30  C34 MOL d          14.375 -19.060  20.269  0.00  0.00    -0.036 C 
ATOM     31  H18 MOL d          15.526 -17.241  19.783  0.00  0.00     0.087 H 
ATOM     32  C1  MOL d          15.106 -20.321  20.596  0.00  0.00    -0.048 C 
ATOM     33  H19 MOL d          14.139 -19.031  19.195  0.00  0.00     0.036 H 
ATOM     34  H20 MOL d          13.443 -19.005  20.851  0.00  0.00     0.036 H 
ATOM     35  H21 MOL d          15.419 -20.833  19.675  0.00  0.00     0.035 H 
ATOM     36  H22 MOL d          14.467 -20.991  21.190  0.00  0.00     0.035 H 
ATOM     37  H23 MOL d          16.143 -20.174  22.435  0.00  0.00     0.064 H 
ATOM     38  H24 MOL d          17.184 -20.399  20.989  0.00  0.00     0.064 H 
BRANCH  28  39
ATOM     39  C17 MOL d          14.486 -17.175  21.786  0.00  0.00     0.240 C 
ATOM     40  O18 MOL d          14.012 -17.731  22.711  0.00  0.00    -0.271 OA
ATOM     41  N19 MOL d          14.272 -15.837  21.593  0.00  0.00    -0.355 N 
ATOM     42  H25 MOL d          14.616 -15.425  20.749  0.00  0.00     0.162 HD
BRANCH  41  43
ATOM     43  C20 MOL d          13.590 -14.993  22.518  0.00  0.00     0.019 C 
ATOM     44  H26 MOL d          14.096 -15.018  23.494  0.00  0.00     0.071 H 
ATOM     45  H27 MOL d          12.549 -15.328  22.635  0.00  0.00     0.071 H 
BRANCH  43  46
ATOM     46  C21 MOL d          13.623 -13.608  21.960  0.00  0.00    -0.040 A 
ATOM     47  C26 MOL d          14.717 -13.059  21.363  0.00  0.00    -0.074 A 
ATOM     48  C25 MOL d          14.767 -11.855  20.887  0.00  0.00    -0.069 A 
ATOM     49  H28 MOL d          15.608 -13.671  21.280  0.00  0.00     0.084 H 
ATOM     50  C24 MOL d          13.759 -11.007  20.950  0.00  0.00     0.007 A 
ATOM     51  H29 MOL d          15.684 -11.527  20.413  0.00  0.00     0.085 H 
ATOM     52  C23 MOL d          12.671 -11.474  21.575  0.00  0.00    -0.069 A 
ATOM     53  C22 MOL d          12.645 -12.729  22.041  0.00  0.00    -0.074 A 
ATOM     54  H34 MOL d          11.807 -10.832  21.704  0.00  0.00     0.085 H 
ATOM     55  H35 MOL d          11.734 -13.053  22.531  0.00  0.00     0.084 H 
BRANCH  50  56
ATOM     56  C27 MOL d          13.786  -9.677  20.429  0.00  0.00     0.102 C 
BRANCH  56  57
ATOM     57  N29 MOL d          13.126  -9.381  19.502  0.00  0.00    -0.385 N 
ATOM     58  H30 MOL d          12.110  -9.547  19.519  0.00  0.00     0.157 HD
ATOM     59  H31 MOL d          13.564  -8.955  18.673  0.00  0.00     0.157 HD
ENDBRANCH  56  57
BRANCH  56  60
ATOM     60  N28 MOL d          14.485  -8.770  20.993  0.00  0.00    -0.385 N 
ATOM     61  H32 MOL d          14.022  -8.006  21.505  0.00  0.00     0.157 HD
ATOM     62  H33 MOL d          15.513  -8.801  20.934  0.00  0.00     0.157 HD
ENDBRANCH  56  60
ENDBRANCH  50  56
ENDBRANCH  43  46
ENDBRANCH  41  43
ENDBRANCH  28  39
ENDBRANCH  23  25
BRANCH  23  63
ATOM     63  N11 MOL d          19.514 -18.317  22.203  0.00  0.00    -0.301 N 
ATOM     64  H7  MOL d          19.782 -17.492  21.703  0.00  0.00     0.173 HD
BRANCH  63  65
ATOM     65  S8  MOL d          20.515 -19.523  22.324  0.00  0.00     0.259 S 
ATOM     66  O1  MOL d          21.165 -19.294  21.339  0.00  0.00    -0.201 OA
ATOM     67  O10 MOL d          20.029 -20.509  22.611  0.00  0.00    -0.201 OA
BRANCH  65  68
ATOM     68  C35 MOL d          21.632 -19.103  23.574  0.00  0.00     0.081 A 
ATOM     69  C7  MOL d          22.661 -18.218  23.392  0.00  0.00    -0.058 A 
ATOM     70  C6  MOL d          23.523 -17.862  24.433  0.00  0.00    -0.048 A 
ATOM     71  H4  MOL d          22.811 -17.781  22.411  0.00  0.00     0.086 H 
ATOM     72  C5  MOL d          23.288 -18.356  25.694  0.00  0.00     0.089 A 
ATOM     73  H6  MOL d          24.365 -17.205  24.248  0.00  0.00     0.087 H 
ATOM     74  C4  MOL d          22.226 -19.167  25.846  0.00  0.00     0.068 A 
ATOM     75 CL   MOL d          21.889 -19.723  27.481  0.00  0.00    -0.081 Cl
ATOM     76  C3  MOL d          21.426 -19.554  24.894  0.00  0.00    -0.037 A 
ATOM     77  H5  MOL d          20.602 -20.222  25.116  0.00  0.00     0.088 H 
BRANCH  72  78
ATOM     78  O9  MOL d          24.122 -18.114  26.716  0.00  0.00    -0.354 OA
BRANCH  78  79
ATOM     79  C10 MOL d          23.850 -17.106  27.577  0.00  0.00     0.010 C 
ATOM     80  H1  MOL d          23.136 -17.456  28.337  0.00  0.00     0.066 H 
ATOM     81  H2  MOL d          23.414 -16.259  27.026  0.00  0.00     0.066 H 
ATOM     82  H3  MOL d          24.780 -16.783  28.070  0.00  0.00     0.066 H 
ENDBRANCH  78  79
ENDBRANCH  72  78
ENDBRANCH  65  68
ENDBRANCH  63  65
ENDBRANCH  23  63
ENDBRANCH  20  23
ENDBRANCH  17  20
ENDBRANCH  13  16
ENDBRANCH   1  13
TORSDOF 16
ENDMDL
MODEL 4
REMARK VINA RESULT:      -4.9      2.508      4.338
REMARK  16 active torsions:
REMARK  status: ('A' for Active; 'I' for Inactive)
REMARK    1  A    between atoms: S8_1  and  C35_3 
REMARK    2  A    between atoms: N11_14  and  S8_1 
REMARK    3  A    between atoms: O9_5  and  C10_4 
REMARK    4  A    between atoms: C5_6  and  O9_5 
REMARK    5  A    between atoms: C45_25  and  C13_13 
REMARK       I    between atoms: C13_13  and  N15_30 
REMARK    6  A    between atoms: C45_25  and  N11_14 
REMARK    7  A    between atoms: C15_16  and  C31_17 
REMARK    8  A    between atoms: N14_29  and  C15_16 
REMARK    9  A    between atoms: C12_26  and  C45_25 
REMARK   10  A    between atoms: C46_27  and  C12_26 
REMARK       I    between atoms: C46_27  and  N14_29 
REMARK   11  A    between atoms: C16_31  and  C17_32 
REMARK       I    between atoms: C17_32  and  N19_37 
REMARK   12  A    between atoms: N19_37  and  C20_38 
REMARK   13  A    between atoms: C20_38  and  C21_39 
REMARK   14  A    between atoms: C24_42  and  C27_43 
REMARK   15  A    between atoms: C27_43  and  N29_44 
REMARK   16  A    between atoms: C27_43  and  N28_45 
ROOT
ATOM      1  C31 MOL d          22.482 -18.862  22.175  0.00  0.00    -0.040 A 
ATOM      2  C32 MOL d          21.843 -19.803  22.852  0.00  0.00    -0.074 A 
ATOM      3  C33 MOL d          22.390 -20.227  23.992  0.00  0.00    -0.062 A 
ATOM      4  C44 MOL d          23.572 -19.795  24.492  0.00  0.00     0.044 A 
ATOM      5  C8  MOL d          24.245 -18.822  23.801  0.00  0.00    -0.062 A 
ATOM      6  C9  MOL d          23.676 -18.483  22.670  0.00  0.00    -0.074 A 
ATOM      7  C40 MOL d          23.950 -20.230  25.556  0.00  0.00     0.099 C 
ATOM      8  N63 MOL d          24.251 -20.512  26.580  0.00  0.00    -0.191 NA
ATOM      9  H10 MOL d          20.908 -20.215  22.492  0.00  0.00     0.084 H 
ATOM     10  H11 MOL d          21.848 -20.973  24.562  0.00  0.00     0.085 H 
ATOM     11  H12 MOL d          25.164 -18.373  24.158  0.00  0.00     0.085 H 
ATOM     12  H13 MOL d          24.246 -17.804  22.045  0.00  0.00     0.084 H 
ENDROOT
BRANCH   1  13
ATOM     13  C15 MOL d          21.941 -18.368  20.948  0.00  0.00     0.019 C 
ATOM     14  H8  MOL d          21.382 -19.188  20.474  0.00  0.00     0.071 H 
ATOM     15  H9  MOL d          22.783 -18.077  20.303  0.00  0.00     0.071 H 
BRANCH  13  16
ATOM     16  N14 MOL d          21.019 -17.190  21.053  0.00  0.00    -0.357 N 
ATOM     17  C46 MOL d          20.044 -16.947  21.914  0.00  0.00     0.220 C 
ATOM     18  O22 MOL d          19.664 -17.683  22.697  0.00  0.00    -0.274 OA
ATOM     19  H17 MOL d          21.164 -16.477  20.366  0.00  0.00     0.162 HD
BRANCH  17  20
ATOM     20  C12 MOL d          19.217 -15.621  21.771  0.00  0.00     0.037 C 
ATOM     21  H15 MOL d          18.777 -15.599  20.763  0.00  0.00     0.051 H 
ATOM     22  H16 MOL d          18.413 -15.636  22.522  0.00  0.00     0.051 H 
BRANCH  20  23
ATOM     23  C45 MOL d          20.068 -14.270  21.975  0.00  0.00     0.105 C 
ATOM     24  H14 MOL d          19.399 -13.463  22.308  0.00  0.00     0.089 H 
BRANCH  23  25
ATOM     25  C13 MOL d          21.106 -14.630  23.107  0.00  0.00     0.244 C 
ATOM     26  O14 MOL d          21.883 -15.481  22.843  0.00  0.00    -0.271 OA
ATOM     27  N15 MOL d          21.013 -13.979  24.198  0.00  0.00    -0.337 N 
ATOM     28  C16 MOL d          21.706 -14.433  25.324  0.00  0.00     0.091 C 
ATOM     29  C2  MOL d          20.011 -12.975  24.547  0.00  0.00    -0.001 C 
ATOM     30  C34 MOL d          21.178 -13.623  26.496  0.00  0.00    -0.036 C 
ATOM     31  H18 MOL d          22.798 -14.391  25.210  0.00  0.00     0.087 H 
ATOM     32  C1  MOL d          20.238 -12.598  25.951  0.00  0.00    -0.048 C 
ATOM     33  H19 MOL d          22.012 -13.128  27.015  0.00  0.00     0.036 H 
ATOM     34  H20 MOL d          20.648 -14.282  27.199  0.00  0.00     0.036 H 
ATOM     35  H21 MOL d          20.685 -11.596  26.011  0.00  0.00     0.035 H 
ATOM     36  H22 MOL d          19.290 -12.612  26.510  0.00  0.00     0.035 H 
ATOM     37  H23 MOL d          19.002 -13.395  24.429  0.00  0.00     0.064 H 
ATOM     38  H24 MOL d          20.119 -12.094  23.899  0.00  0.00     0.064 H 
BRANCH  28  39
ATOM     39  C17 MOL d          21.147 -15.877  25.612  0.00  0.00     0.240 C 
ATOM     40  O18 MOL d          21.582 -16.863  25.137  0.00  0.00    -0.271 OA
ATOM     41  N19 MOL d          20.017 -15.917  26.384  0.00  0.00    -0.355 N 
ATOM     42  H25 MOL d          19.630 -15.048  26.693  0.00  0.00     0.162 HD
BRANCH  41  43
ATOM     43  C20 MOL d          19.356 -17.117  26.776  0.00  0.00     0.019 C 
ATOM     44  H26 MOL d          19.011 -17.035  27.818  0.00  0.00     0.071 H 
ATOM     45  H27 MOL d          20.042 -17.972  26.684  0.00  0.00     0.071 H 
BRANCH  43  46
ATOM     46  C21 MOL d          18.188 -17.297  25.863  0.00  0.00    -0.040 A 
ATOM     47  C26 MOL d          17.468 -18.450  25.774  0.00  0.00    -0.074 A 
ATOM     48  C25 MOL d          16.462 -18.627  24.977  0.00  0.00    -0.069 A 
ATOM     49  H28 MOL d          17.756 -19.276  26.414  0.00  0.00     0.084 H 
ATOM     50  C24 MOL d          16.032 -17.708  24.135  0.00  0.00     0.007 A 
ATOM     51  H29 MOL d          15.947 -19.580  25.004  0.00  0.00     0.085 H 
ATOM     52  C23 MOL d          16.736 -16.570  24.139  0.00  0.00    -0.069 A 
ATOM     53  C22 MOL d          17.761 -16.411  24.987  0.00  0.00    -0.074 A 
ATOM     54  H34 MOL d          16.474 -15.773  23.453  0.00  0.00     0.085 H 
ATOM     55  H35 MOL d          18.288 -15.464  24.949  0.00  0.00     0.084 H 
BRANCH  50  56
ATOM     56  C27 MOL d          14.922 -17.876  23.250  0.00  0.00     0.102 C 
BRANCH  56  57
ATOM     57  N29 MOL d          14.460 -16.955  22.684  0.00  0.00    -0.385 N 
ATOM     58  H30 MOL d          15.073 -16.300  22.179  0.00  0.00     0.157 HD
ATOM     59  H31 MOL d          13.441 -16.804  22.695  0.00  0.00     0.157 HD
ENDBRANCH  56  57
BRANCH  56  60
ATOM     60  N28 MOL d          14.446 -19.037  23.014  0.00  0.00    -0.385 N 
ATOM     61  H32 MOL d          13.853 -19.503  23.716  0.00  0.00     0.157 HD
ATOM     62  H33 MOL d          14.656 -19.508  22.122  0.00  0.00     0.157 HD
ENDBRANCH  56  60
ENDBRANCH  50  56
ENDBRANCH  43  46
ENDBRANCH  41  43
ENDBRANCH  28  39
ENDBRANCH  23  25
BRANCH  23  63
ATOM     63  N11 MOL d          20.727 -13.851  20.880  0.00  0.00    -0.301 N 
ATOM     64  H7  MOL d          21.460 -14.410  20.492  0.00  0.00     0.173 HD
BRANCH  63  65
ATOM     65  S8  MOL d          20.345 -12.480  20.210  0.00  0.00     0.259 S 
ATOM     66  O1  MOL d          20.589 -12.783  19.072  0.00  0.00    -0.201 OA
ATOM     67  O10 MOL d          20.717 -11.565  20.770  0.00  0.00    -0.201 OA
BRANCH  65  68
ATOM     68  C35 MOL d          18.619 -12.417  20.183  0.00  0.00     0.081 A 
ATOM     69  C7  MOL d          17.895 -11.442  20.815  0.00  0.00    -0.058 A 
ATOM     70  C6  MOL d          16.500 -11.391  20.739  0.00  0.00    -0.048 A 
ATOM     71  H4  MOL d          18.418 -10.688  21.392  0.00  0.00     0.086 H 
ATOM     72  C5  MOL d          15.839 -12.299  19.947  0.00  0.00     0.089 A 
ATOM     73  H6  MOL d          15.946 -10.644  21.297  0.00  0.00     0.087 H 
ATOM     74  C4  MOL d          16.592 -13.198  19.286  0.00  0.00     0.068 A 
ATOM     75 CL   MOL d          15.739 -14.300  18.212  0.00  0.00    -0.081 Cl
ATOM     76  C3  MOL d          17.887 -13.303  19.365  0.00  0.00    -0.037 A 
ATOM     77  H5  MOL d          18.404 -14.072  18.801  0.00  0.00     0.088 H 
BRANCH  72  78
ATOM     78  O9  MOL d          14.500 -12.350  19.893  0.00  0.00    -0.354 OA
BRANCH  78  79
ATOM     79  C10 MOL d          13.769 -11.429  20.564  0.00  0.00     0.010 C 
ATOM     80  H1  MOL d          12.716 -11.497  20.249  0.00  0.00     0.066 H 
ATOM     81  H2  MOL d          14.154 -10.422  20.341  0.00  0.00     0.066 H 
ATOM     82  H3  MOL d          13.840 -11.619  21.645  0.00  0.00     0.066 H 
ENDBRANCH  78  79
ENDBRANCH  72  78
ENDBRANCH  65  68
ENDBRANCH  63  65
ENDBRANCH  23  63
ENDBRANCH  20  23
ENDBRANCH  17  20
ENDBRANCH  13  16
ENDBRANCH   1  13
TORSDOF 16
ENDMDL
MODEL 5
REMARK VINA RESULT:      -3.8      2.539      7.125
REMARK  16 active torsions:
REMARK  status: ('A' for Active; 'I' for Inactive)
REMARK    1  A    between atoms: S8_1  and  C35_3 
REMARK    2  A    between atoms: N11_14  and  S8_1 
REMARK    3  A    between atoms: O9_5  and  C10_4 
REMARK    4  A    between atoms: C5_6  and  O9_5 
REMARK    5  A    between atoms: C45_25  and  C13_13 
REMARK       I    between atoms: C13_13  and  N15_30 
REMARK    6  A    between atoms: C45_25  and  N11_14 
REMARK    7  A    between atoms: C15_16  and  C31_17 
REMARK    8  A    between atoms: N14_29  and  C15_16 
REMARK    9  A    between atoms: C12_26  and  C45_25 
REMARK   10  A    between atoms: C46_27  and  C12_26 
REMARK       I    between atoms: C46_27  and  N14_29 
REMARK   11  A    between atoms: C16_31  and  C17_32 
REMARK       I    between atoms: C17_32  and  N19_37 
REMARK   12  A    between atoms: N19_37  and  C20_38 
REMARK   13  A    between atoms: C20_38  and  C21_39 
REMARK   14  A    between atoms: C24_42  and  C27_43 
REMARK   15  A    between atoms: C27_43  and  N29_44 
REMARK   16  A    between atoms: C27_43  and  N28_45 
ROOT
ATOM      1  C31 MOL d          19.043 -15.316  25.663  0.00  0.00    -0.040 A 
ATOM      2  C32 MOL d          19.333 -16.600  25.791  0.00  0.00    -0.074 A 
ATOM      3  C33 MOL d          20.600 -16.927  26.054  0.00  0.00    -0.062 A 
ATOM      4  C44 MOL d          21.621 -16.045  26.161  0.00  0.00     0.044 A 
ATOM      5  C8  MOL d          21.335 -14.711  26.030  0.00  0.00    -0.062 A 
ATOM      6  C9  MOL d          20.083 -14.463  25.729  0.00  0.00    -0.074 A 
ATOM      7  C40 MOL d          22.724 -16.459  26.436  0.00  0.00     0.099 C 
ATOM      8  N63 MOL d          23.706 -16.795  26.813  0.00  0.00    -0.191 NA
ATOM      9  H10 MOL d          18.569 -17.361  25.685  0.00  0.00     0.084 H 
ATOM     10  H11 MOL d          20.829 -17.977  26.191  0.00  0.00     0.085 H 
ATOM     11  H12 MOL d          22.076 -13.933  26.163  0.00  0.00     0.085 H 
ATOM     12  H13 MOL d          19.854 -13.428  25.502  0.00  0.00     0.084 H 
ENDROOT
BRANCH   1  13
ATOM     13  C15 MOL d          17.702 -14.908  25.385  0.00  0.00     0.019 C 
ATOM     14  H8  MOL d          17.581 -13.878  25.754  0.00  0.00     0.071 H 
ATOM     15  H9  MOL d          17.027 -15.576  25.938  0.00  0.00     0.071 H 
BRANCH  13  16
ATOM     16  N14 MOL d          17.284 -14.928  23.945  0.00  0.00    -0.357 N 
ATOM     17  C46 MOL d          17.556 -15.805  22.992  0.00  0.00     0.220 C 
ATOM     18  O22 MOL d          18.274 -16.684  23.098  0.00  0.00    -0.274 OA
ATOM     19  H17 MOL d          16.710 -14.159  23.660  0.00  0.00     0.162 HD
BRANCH  17  20
ATOM     20  C12 MOL d          16.993 -15.557  21.548  0.00  0.00     0.037 C 
ATOM     21  H15 MOL d          17.606 -14.779  21.071  0.00  0.00     0.051 H 
ATOM     22  H16 MOL d          17.084 -16.495  20.980  0.00  0.00     0.051 H 
BRANCH  20  23
ATOM     23  C45 MOL d          15.455 -15.086  21.495  0.00  0.00     0.105 C 
ATOM     24  H14 MOL d          15.212 -14.529  22.411  0.00  0.00     0.089 H 
BRANCH  23  25
ATOM     25  C13 MOL d          15.380 -14.140  20.235  0.00  0.00     0.244 C 
ATOM     26  O14 MOL d          15.871 -14.558  19.244  0.00  0.00    -0.271 OA
ATOM     27  N15 MOL d          14.804 -13.015  20.398  0.00  0.00    -0.337 N 
ATOM     28  C16 MOL d          14.947 -12.027  19.418  0.00  0.00     0.091 C 
ATOM     29  C2  MOL d          14.258 -12.471  21.638  0.00  0.00    -0.001 C 
ATOM     30  C34 MOL d          14.390 -10.751  20.024  0.00  0.00    -0.036 C 
ATOM     31  H18 MOL d          14.492 -12.299  18.455  0.00  0.00     0.087 H 
ATOM     32  C1  MOL d          13.809 -11.098  21.356  0.00  0.00    -0.048 C 
ATOM     33  H19 MOL d          13.609 -10.335  19.371  0.00  0.00     0.036 H 
ATOM     34  H20 MOL d          15.196 -10.012  20.148  0.00  0.00     0.036 H 
ATOM     35  H21 MOL d          12.711 -11.053  21.319  0.00  0.00     0.035 H 
ATOM     36  H22 MOL d          14.179 -10.407  22.128  0.00  0.00     0.035 H 
ATOM     37  H23 MOL d          15.033 -12.460  22.417  0.00  0.00     0.064 H 
ATOM     38  H24 MOL d          13.408 -13.082  21.974  0.00  0.00     0.064 H 
BRANCH  28  39
ATOM     39  C17 MOL d          16.493 -11.735  19.335  0.00  0.00     0.240 C 
ATOM     40  O18 MOL d          17.146 -11.887  18.365  0.00  0.00    -0.271 OA
ATOM     41  N19 MOL d          17.081 -11.388  20.521  0.00  0.00    -0.355 N 
ATOM     42  H25 MOL d          16.504 -11.358  21.338  0.00  0.00     0.162 HD
BRANCH  41  43
ATOM     43  C20 MOL d          18.462 -11.068  20.668  0.00  0.00     0.019 C 
ATOM     44  H26 MOL d          18.592 -10.313  21.457  0.00  0.00     0.071 H 
ATOM     45  H27 MOL d          18.861 -10.680  19.720  0.00  0.00     0.071 H 
BRANCH  43  46
ATOM     46  C21 MOL d          19.170 -12.328  21.044  0.00  0.00    -0.040 A 
ATOM     47  C26 MOL d          19.534 -12.640  22.319  0.00  0.00    -0.074 A 
ATOM     48  C25 MOL d          20.161 -13.721  22.660  0.00  0.00    -0.069 A 
ATOM     49  H28 MOL d          19.282 -11.936  23.103  0.00  0.00     0.084 H 
ATOM     50  C24 MOL d          20.544 -14.641  21.797  0.00  0.00     0.007 A 
ATOM     51  H29 MOL d          20.383 -13.878  23.709  0.00  0.00     0.085 H 
ATOM     52  C23 MOL d          20.260 -14.365  20.519  0.00  0.00    -0.069 A 
ATOM     53  C22 MOL d          19.595 -13.246  20.200  0.00  0.00    -0.074 A 
ATOM     54  H34 MOL d          20.570 -15.050  19.738  0.00  0.00     0.085 H 
ATOM     55  H35 MOL d          19.388 -13.080  19.149  0.00  0.00     0.084 H 
BRANCH  50  56
ATOM     56  C27 MOL d          21.231 -15.845  22.147  0.00  0.00     0.102 C 
BRANCH  56  57
ATOM     57  N29 MOL d          20.898 -16.879  21.700  0.00  0.00    -0.385 N 
ATOM     58  H30 MOL d          20.323 -17.523  22.263  0.00  0.00     0.157 HD
ATOM     59  H31 MOL d          21.180 -17.142  20.745  0.00  0.00     0.157 HD
ENDBRANCH  56  57
BRANCH  56  60
ATOM     60  N28 MOL d          22.255 -15.813  22.909  0.00  0.00    -0.385 N 
ATOM     61  H32 MOL d          22.357 -15.057  23.602  0.00  0.00     0.157 HD
ATOM     62  H33 MOL d          22.978 -16.542  22.831  0.00  0.00     0.157 HD
ENDBRANCH  56  60
ENDBRANCH  50  56
ENDBRANCH  43  46
ENDBRANCH  41  43
ENDBRANCH  28  39
ENDBRANCH  23  25
BRANCH  23  63
ATOM     63  N11 MOL d          14.566 -16.086  21.357  0.00  0.00    -0.301 N 
ATOM     64  H7  MOL d          13.624 -15.965  21.672  0.00  0.00     0.173 HD
BRANCH  63  65
ATOM     65  S8  MOL d          15.008 -17.445  20.699  0.00  0.00     0.259 S 
ATOM     66  O1  MOL d          15.996 -17.043  20.145  0.00  0.00    -0.201 OA
ATOM     67  O10 MOL d          14.159 -18.041  20.239  0.00  0.00    -0.201 OA
BRANCH  65  68
ATOM     68  C35 MOL d          15.694 -18.397  21.968  0.00  0.00     0.081 A 
ATOM     69  C7  MOL d          16.882 -19.066  21.843  0.00  0.00    -0.058 A 
ATOM     70  C6  MOL d          17.436 -19.792  22.901  0.00  0.00    -0.048 A 
ATOM     71  H4  MOL d          17.409 -19.031  20.896  0.00  0.00     0.086 H 
ATOM     72  C5  MOL d          16.810 -19.775  24.124  0.00  0.00     0.089 A 
ATOM     73  H6  MOL d          18.348 -20.362  22.758  0.00  0.00     0.087 H 
ATOM     74  C4  MOL d          15.682 -19.049  24.225  0.00  0.00     0.068 A 
ATOM     75 CL   MOL d          14.938 -18.968  25.818  0.00  0.00    -0.081 Cl
ATOM     76  C3  MOL d          15.114 -18.394  23.253  0.00  0.00    -0.037 A 
ATOM     77  H5  MOL d          14.196 -17.847  23.432  0.00  0.00     0.088 H 
BRANCH  72  78
ATOM     78  O9  MOL d          17.249 -20.513  25.155  0.00  0.00    -0.354 OA
BRANCH  78  79
ATOM     79  C10 MOL d          17.807 -19.901  26.226  0.00  0.00     0.010 C 
ATOM     80  H1  MOL d          17.072 -19.848  27.042  0.00  0.00     0.066 H 
ATOM     81  H2  MOL d          18.119 -18.883  25.946  0.00  0.00     0.066 H 
ATOM     82  H3  MOL d          18.685 -20.474  26.559  0.00  0.00     0.066 H 
ENDBRANCH  78  79
ENDBRANCH  72  78
ENDBRANCH  65  68
ENDBRANCH  63  65
ENDBRANCH  23  63
ENDBRANCH  20  23
ENDBRANCH  17  20
ENDBRANCH  13  16
ENDBRANCH   1  13
TORSDOF 16
ENDMDL
