MODEL 1
REMARK VINA RESULT:      -9.7      0.000      0.000
REMARK  11 active torsions:
REMARK  status: ('A' for Active; 'I' for Inactive)
REMARK    1  A    between atoms: C1_1  and  O8_8 
REMARK    2  A    between atoms: C2_2  and  O9_9 
REMARK    3  A    between atoms: C3_3  and  S7_7 
REMARK    4  A    between atoms: C5_5  and  C6_6 
REMARK    5  A    between atoms: S7_7  and  C11_11 
REMARK    6  A    between atoms: C10_10  and  C12_12 
REMARK    7  A    between atoms: C12_12  and  N13_13 
REMARK       I    between atoms: N13_13  and  C14_14 
REMARK    8  A    between atoms: C14_14  and  C15_15 
REMARK    9  A    between atoms: C16_16  and  O22_22 
REMARK   10  A    between atoms: C17_17  and  O23_23 
REMARK   11  A    between atoms: C19_19  and  N21_21 
ROOT
ATOM      1  C6  MOL d          20.423 -30.459  10.942  0.00  0.00    -0.075 C 
ATOM      2  C10 MOL d          20.593 -29.728   9.876  0.00  0.00    -0.087 C 
ATOM      3  H5  MOL d          20.354 -31.542  10.849  0.00  0.00     0.080 H 
ATOM      4  H8  MOL d          20.673 -28.649   9.997  0.00  0.00     0.079 H 
ENDROOT
BRANCH   1   5
ATOM      5  C5  MOL d          20.322 -29.835  12.268  0.00  0.00     0.083 C 
ATOM      6  C1  MOL d          20.590 -30.886  13.388  0.00  0.00     0.091 C 
ATOM      7  C2  MOL d          19.245 -31.631  13.264  0.00  0.00     0.097 C 
ATOM      8  H1  MOL d          21.470 -31.523  13.217  0.00  0.00     0.091 H 
ATOM      9  C3  MOL d          18.226 -30.519  13.005  0.00  0.00     0.115 C 
ATOM     10  H2  MOL d          19.280 -32.332  12.417  0.00  0.00     0.092 H 
ATOM     11  O4  MOL d          18.991 -29.425  12.480  0.00  0.00    -0.361 OA
ATOM     12  H3  MOL d          17.726 -30.218  13.938  0.00  0.00     0.105 H 
ATOM     13  H4  MOL d          21.019 -28.987  12.344  0.00  0.00     0.093 H 
BRANCH   6  14
ATOM     14  O8  MOL d          20.675 -30.190  14.629  0.00  0.00    -0.390 OA
ATOM     15  H6  MOL d          21.587 -30.018  14.833  0.00  0.00     0.210 HD
ENDBRANCH   6  14
BRANCH   7  16
ATOM     16  O9  MOL d          18.884 -32.354  14.448  0.00  0.00    -0.389 OA
ATOM     17  H7  MOL d          19.227 -31.902  15.210  0.00  0.00     0.210 HD
ENDBRANCH   7  16
BRANCH   9  18
ATOM     18  S7  MOL d          17.000 -31.120  11.834  0.00  0.00    -0.095 SA
BRANCH  18  19
ATOM     19  C11 MOL d          15.515 -30.836  12.546  0.00  0.00     0.005 A 
ATOM     20  C27 MOL d          14.353 -31.654  12.224  0.00  0.00    -0.050 A 
ATOM     21  C28 MOL d          13.126 -31.417  12.856  0.00  0.00     0.003 A 
ATOM     22  H16 MOL d          14.439 -32.449  11.494  0.00  0.00     0.087 H 
ATOM     23  N29 MOL d          12.910 -30.423  13.781  0.00  0.00    -0.273 NA
ATOM     24  H17 MOL d          12.291 -32.059  12.597  0.00  0.00     0.114 H 
ATOM     25  C30 MOL d          14.012 -29.634  14.084  0.00  0.00     0.003 A 
ATOM     26  C31 MOL d          15.269 -29.816  13.514  0.00  0.00    -0.050 A 
ATOM     27  H18 MOL d          13.887 -28.833  14.803  0.00  0.00     0.114 H 
ATOM     28  H19 MOL d          16.083 -29.166  13.814  0.00  0.00     0.087 H 
ENDBRANCH  18  19
ENDBRANCH   9  18
ENDBRANCH   1   5
BRANCH   2  29
ATOM     29  C12 MOL d          20.685 -30.295   8.498  0.00  0.00     0.010 C 
ATOM     30  H9  MOL d          19.736 -30.105   7.975  0.00  0.00     0.070 H 
ATOM     31  H10 MOL d          20.851 -31.380   8.573  0.00  0.00     0.070 H 
BRANCH  29  32
ATOM     32  N13 MOL d          21.758 -29.717   7.730  0.00  0.00    -0.353 N 
ATOM     33  C14 MOL d          22.379 -30.276   6.675  0.00  0.00     0.254 C 
ATOM     34  O24 MOL d          21.952 -31.363   6.188  0.00  0.00    -0.268 OA
ATOM     35  H11 MOL d          22.072 -28.809   8.009  0.00  0.00     0.163 HD
BRANCH  33  36
ATOM     36  C15 MOL d          23.583 -29.648   6.074  0.00  0.00     0.070 A 
ATOM     37  C16 MOL d          23.789 -28.240   6.122  0.00  0.00     0.114 A 
ATOM     38  C17 MOL d          24.992 -27.749   5.548  0.00  0.00     0.102 A 
ATOM     39  C18 MOL d          25.935 -28.524   4.933  0.00  0.00    -0.016 A 
ATOM     40  C19 MOL d          25.703 -29.917   4.920  0.00  0.00     0.106 A 
ATOM     41  H12 MOL d          26.818 -28.091   4.478  0.00  0.00     0.091 H 
ATOM     42  C20 MOL d          24.535 -30.476   5.483  0.00  0.00    -0.033 A 
ATOM     43  H13 MOL d          24.378 -31.548   5.457  0.00  0.00     0.089 H 
BRANCH  37  44
ATOM     44  O22 MOL d          22.934 -27.355   6.648  0.00  0.00    -0.357 OA
ATOM     45  H14 MOL d          22.572 -27.707   7.453  0.00  0.00     0.217 HD
ENDBRANCH  37  44
BRANCH  38  46
ATOM     46  O23 MOL d          25.213 -26.385   5.585  0.00  0.00    -0.358 OA
ATOM     47  H15 MOL d          24.871 -25.988   4.792  0.00  0.00     0.217 HD
ENDBRANCH  38  46
BRANCH  40  48
ATOM     48  N21 MOL d          26.657 -30.802   4.288  0.00  0.00    -0.116 N 
ATOM     49  O25 MOL d          27.751 -30.421   3.965  0.00  0.00    -0.532 OA
ATOM     50  O26 MOL d          26.281 -31.945   4.072  0.00  0.00    -0.532 OA
ENDBRANCH  40  48
ENDBRANCH  33  36
ENDBRANCH  29  32
ENDBRANCH   2  29
TORSDOF 11
ENDMDL
MODEL 2
REMARK VINA RESULT:      -8.7      1.060      2.348
REMARK  11 active torsions:
REMARK  status: ('A' for Active; 'I' for Inactive)
REMARK    1  A    between atoms: C1_1  and  O8_8 
REMARK    2  A    between atoms: C2_2  and  O9_9 
REMARK    3  A    between atoms: C3_3  and  S7_7 
REMARK    4  A    between atoms: C5_5  and  C6_6 
REMARK    5  A    between atoms: S7_7  and  C11_11 
REMARK    6  A    between atoms: C10_10  and  C12_12 
REMARK    7  A    between atoms: C12_12  and  N13_13 
REMARK       I    between atoms: N13_13  and  C14_14 
REMARK    8  A    between atoms: C14_14  and  C15_15 
REMARK    9  A    between atoms: C16_16  and  O22_22 
REMARK   10  A    between atoms: C17_17  and  O23_23 
REMARK   11  A    between atoms: C19_19  and  N21_21 
ROOT
ATOM      1  C6  MOL d          19.720 -30.245  10.615  0.00  0.00    -0.075 C 
ATOM      2  C10 MOL d          20.592 -29.959   9.689  0.00  0.00    -0.087 C 
ATOM      3  H5  MOL d          18.984 -31.029  10.441  0.00  0.00     0.080 H 
ATOM      4  H8  MOL d          21.327 -29.181   9.894  0.00  0.00     0.079 H 
ENDROOT
BRANCH   1   5
ATOM      5  C5  MOL d          19.721 -29.519  11.893  0.00  0.00     0.083 C 
ATOM      6  C1  MOL d          20.468 -30.342  12.987  0.00  0.00     0.091 C 
ATOM      7  C2  MOL d          19.368 -31.400  13.203  0.00  0.00     0.097 C 
ATOM      8  H1  MOL d          21.433 -30.760  12.665  0.00  0.00     0.091 H 
ATOM      9  C3  MOL d          18.063 -30.606  13.107  0.00  0.00     0.115 C 
ATOM     10  H2  MOL d          19.419 -32.162  12.411  0.00  0.00     0.092 H 
ATOM     11  O4  MOL d          18.398 -29.425  12.365  0.00  0.00    -0.361 OA
ATOM     12  H3  MOL d          17.695 -30.333  14.107  0.00  0.00     0.105 H 
ATOM     13  H4  MOL d          20.174 -28.525  11.765  0.00  0.00     0.093 H 
BRANCH   6  14
ATOM     14  O8  MOL d          20.610 -29.511  14.137  0.00  0.00    -0.390 OA
ATOM     15  H6  MOL d          19.789 -29.491  14.615  0.00  0.00     0.210 HD
ENDBRANCH   6  14
BRANCH   7  16
ATOM     16  O9  MOL d          19.447 -32.051  14.477  0.00  0.00    -0.389 OA
ATOM     17  H7  MOL d          19.254 -32.975  14.372  0.00  0.00     0.210 HD
ENDBRANCH   7  16
BRANCH   9  18
ATOM     18  S7  MOL d          16.833 -31.614  12.269  0.00  0.00    -0.095 SA
BRANCH  18  19
ATOM     19  C11 MOL d          15.350 -30.992  12.723  0.00  0.00     0.005 A 
ATOM     20  C27 MOL d          14.104 -31.610  12.287  0.00  0.00    -0.050 A 
ATOM     21  C28 MOL d          12.873 -31.090  12.705  0.00  0.00     0.003 A 
ATOM     22  H16 MOL d          14.131 -32.477  11.637  0.00  0.00     0.087 H 
ATOM     23  N29 MOL d          12.733 -29.986  13.513  0.00  0.00    -0.273 NA
ATOM     24  H17 MOL d          11.972 -31.590  12.369  0.00  0.00     0.114 H 
ATOM     25  C30 MOL d          13.917 -29.388  13.924  0.00  0.00     0.003 A 
ATOM     26  C31 MOL d          15.179 -29.854  13.567  0.00  0.00    -0.050 A 
ATOM     27  H18 MOL d          13.855 -28.510  14.556  0.00  0.00     0.114 H 
ATOM     28  H19 MOL d          16.056 -29.339  13.941  0.00  0.00     0.087 H 
ENDBRANCH  18  19
ENDBRANCH   9  18
ENDBRANCH   1   5
BRANCH   2  29
ATOM     29  C12 MOL d          20.635 -30.643   8.363  0.00  0.00     0.010 C 
ATOM     30  H9  MOL d          19.718 -30.395   7.808  0.00  0.00     0.070 H 
ATOM     31  H10 MOL d          20.681 -31.730   8.528  0.00  0.00     0.070 H 
BRANCH  29  32
ATOM     32  N13 MOL d          21.773 -30.248   7.572  0.00  0.00    -0.353 N 
ATOM     33  C14 MOL d          22.393 -30.990   6.635  0.00  0.00     0.254 C 
ATOM     34  O24 MOL d          21.910 -32.107   6.286  0.00  0.00    -0.268 OA
ATOM     35  H11 MOL d          22.138 -29.332   7.735  0.00  0.00     0.163 HD
BRANCH  33  36
ATOM     36  C15 MOL d          23.658 -30.531   6.008  0.00  0.00     0.070 A 
ATOM     37  C16 MOL d          24.601 -31.457   5.478  0.00  0.00     0.114 A 
ATOM     38  C17 MOL d          25.762 -30.909   4.867  0.00  0.00     0.102 A 
ATOM     39  C18 MOL d          26.043 -29.574   4.786  0.00  0.00    -0.016 A 
ATOM     40  C19 MOL d          25.075 -28.688   5.308  0.00  0.00     0.106 A 
ATOM     41  H12 MOL d          26.963 -29.214   4.342  0.00  0.00     0.091 H 
ATOM     42  C20 MOL d          23.893 -29.162   5.917  0.00  0.00    -0.033 A 
ATOM     43  H13 MOL d          23.168 -28.461   6.314  0.00  0.00     0.089 H 
BRANCH  37  44
ATOM     44  O22 MOL d          24.484 -32.789   5.527  0.00  0.00    -0.357 OA
ATOM     45  H14 MOL d          25.276 -33.188   5.187  0.00  0.00     0.217 HD
ENDBRANCH  37  44
BRANCH  38  46
ATOM     46  O23 MOL d          26.691 -31.789   4.345  0.00  0.00    -0.358 OA
ATOM     47  H15 MOL d          26.486 -31.960   3.433  0.00  0.00     0.217 HD
ENDBRANCH  38  46
BRANCH  40  48
ATOM     48  N21 MOL d          25.302 -27.261   5.257  0.00  0.00    -0.116 N 
ATOM     49  O25 MOL d          24.756 -26.508   6.020  0.00  0.00    -0.532 OA
ATOM     50  O26 MOL d          26.051 -26.859   4.378  0.00  0.00    -0.532 OA
ENDBRANCH  40  48
ENDBRANCH  33  36
ENDBRANCH  29  32
ENDBRANCH   2  29
TORSDOF 11
ENDMDL
MODEL 3
REMARK VINA RESULT:      -7.8      1.866      2.501
REMARK  11 active torsions:
REMARK  status: ('A' for Active; 'I' for Inactive)
REMARK    1  A    between atoms: C1_1  and  O8_8 
REMARK    2  A    between atoms: C2_2  and  O9_9 
REMARK    3  A    between atoms: C3_3  and  S7_7 
REMARK    4  A    between atoms: C5_5  and  C6_6 
REMARK    5  A    between atoms: S7_7  and  C11_11 
REMARK    6  A    between atoms: C10_10  and  C12_12 
REMARK    7  A    between atoms: C12_12  and  N13_13 
REMARK       I    between atoms: N13_13  and  C14_14 
REMARK    8  A    between atoms: C14_14  and  C15_15 
REMARK    9  A    between atoms: C16_16  and  O22_22 
REMARK   10  A    between atoms: C17_17  and  O23_23 
REMARK   11  A    between atoms: C19_19  and  N21_21 
ROOT
ATOM      1  C6  MOL d          20.885 -28.560  12.139  0.00  0.00    -0.075 C 
ATOM      2  C10 MOL d          21.935 -27.983  11.626  0.00  0.00    -0.087 C 
ATOM      3  H5  MOL d          19.890 -28.238  11.836  0.00  0.00     0.080 H 
ATOM      4  H8  MOL d          22.919 -28.333  11.934  0.00  0.00     0.079 H 
ENDROOT
BRANCH   1   5
ATOM      5  C5  MOL d          21.032 -29.642  13.122  0.00  0.00     0.083 C 
ATOM      6  C1  MOL d          21.892 -30.802  12.532  0.00  0.00     0.091 C 
ATOM      7  C2  MOL d          20.816 -31.359  11.578  0.00  0.00     0.097 C 
ATOM      8  H1  MOL d          22.813 -30.477  12.026  0.00  0.00     0.091 H 
ATOM      9  C3  MOL d          19.513 -31.234  12.372  0.00  0.00     0.115 C 
ATOM     10  H2  MOL d          20.774 -30.751  10.662  0.00  0.00     0.092 H 
ATOM     11  O4  MOL d          19.770 -30.222  13.355  0.00  0.00    -0.361 OA
ATOM     12  H3  MOL d          19.260 -32.185  12.863  0.00  0.00     0.105 H 
ATOM     13  H4  MOL d          21.474 -29.254  14.052  0.00  0.00     0.093 H 
BRANCH   6  14
ATOM     14  O8  MOL d          22.165 -31.722  13.586  0.00  0.00    -0.390 OA
ATOM     15  H6  MOL d          22.759 -31.321  14.210  0.00  0.00     0.210 HD
ENDBRANCH   6  14
BRANCH   7  16
ATOM     16  O9  MOL d          21.033 -32.729  11.214  0.00  0.00    -0.389 OA
ATOM     17  H7  MOL d          20.245 -33.230  11.387  0.00  0.00     0.210 HD
ENDBRANCH   7  16
BRANCH   9  18
ATOM     18  S7  MOL d          18.192 -30.772  11.243  0.00  0.00    -0.095 SA
BRANCH  18  19
ATOM     19  C11 MOL d          16.811 -30.669  12.179  0.00  0.00     0.005 A 
ATOM     20  C27 MOL d          16.765 -29.829  13.369  0.00  0.00    -0.050 A 
ATOM     21  C28 MOL d          15.587 -29.734  14.121  0.00  0.00     0.003 A 
ATOM     22  H16 MOL d          17.645 -29.275  13.673  0.00  0.00     0.087 H 
ATOM     23  N29 MOL d          14.425 -30.409  13.829  0.00  0.00    -0.273 NA
ATOM     24  H17 MOL d          15.593 -29.086  14.990  0.00  0.00     0.114 H 
ATOM     25  C30 MOL d          14.468 -31.219  12.702  0.00  0.00     0.003 A 
ATOM     26  C31 MOL d          15.592 -31.353  11.892  0.00  0.00    -0.050 A 
ATOM     27  H18 MOL d          13.576 -31.777  12.438  0.00  0.00     0.114 H 
ATOM     28  H19 MOL d          15.540 -31.995  11.021  0.00  0.00     0.087 H 
ENDBRANCH  18  19
ENDBRANCH   9  18
ENDBRANCH   1   5
BRANCH   2  29
ATOM     29  C12 MOL d          21.858 -26.866  10.638  0.00  0.00     0.010 C 
ATOM     30  H9  MOL d          22.276 -25.959  11.099  0.00  0.00     0.070 H 
ATOM     31  H10 MOL d          20.801 -26.694  10.383  0.00  0.00     0.070 H 
BRANCH  29  32
ATOM     32  N13 MOL d          22.585 -27.145   9.427  0.00  0.00    -0.353 N 
ATOM     33  C14 MOL d          22.194 -27.956   8.426  0.00  0.00     0.254 C 
ATOM     34  O24 MOL d          21.034 -28.462   8.435  0.00  0.00    -0.268 OA
ATOM     35  H11 MOL d          23.470 -26.691   9.318  0.00  0.00     0.163 HD
BRANCH  33  36
ATOM     36  C15 MOL d          23.110 -28.290   7.307  0.00  0.00     0.070 A 
ATOM     37  C16 MOL d          24.055 -27.345   6.814  0.00  0.00     0.114 A 
ATOM     38  C17 MOL d          24.908 -27.781   5.764  0.00  0.00     0.102 A 
ATOM     39  C18 MOL d          24.860 -29.017   5.184  0.00  0.00    -0.016 A 
ATOM     40  C19 MOL d          23.921 -29.932   5.712  0.00  0.00     0.106 A 
ATOM     41  H12 MOL d          25.511 -29.284   4.360  0.00  0.00     0.091 H 
ATOM     42  C20 MOL d          23.051 -29.570   6.763  0.00  0.00    -0.033 A 
ATOM     43  H13 MOL d          22.336 -30.289   7.148  0.00  0.00     0.089 H 
BRANCH  37  44
ATOM     44  O22 MOL d          24.185 -26.087   7.251  0.00  0.00    -0.357 OA
ATOM     45  H14 MOL d          24.724 -26.079   8.032  0.00  0.00     0.217 HD
ENDBRANCH  37  44
BRANCH  38  46
ATOM     46  O23 MOL d          25.834 -26.881   5.271  0.00  0.00    -0.358 OA
ATOM     47  H15 MOL d          25.655 -26.715   4.353  0.00  0.00     0.217 HD
ENDBRANCH  38  46
BRANCH  40  48
ATOM     48  N21 MOL d          23.813 -31.260   5.150  0.00  0.00    -0.116 N 
ATOM     49  O25 MOL d          22.744 -31.762   4.922  0.00  0.00    -0.532 OA
ATOM     50  O26 MOL d          24.862 -31.854   4.950  0.00  0.00    -0.532 OA
ENDBRANCH  40  48
ENDBRANCH  33  36
ENDBRANCH  29  32
ENDBRANCH   2  29
TORSDOF 11
ENDMDL
MODEL 4
REMARK VINA RESULT:      -7.2      1.793      2.707
REMARK  11 active torsions:
REMARK  status: ('A' for Active; 'I' for Inactive)
REMARK    1  A    between atoms: C1_1  and  O8_8 
REMARK    2  A    between atoms: C2_2  and  O9_9 
REMARK    3  A    between atoms: C3_3  and  S7_7 
REMARK    4  A    between atoms: C5_5  and  C6_6 
REMARK    5  A    between atoms: S7_7  and  C11_11 
REMARK    6  A    between atoms: C10_10  and  C12_12 
REMARK    7  A    between atoms: C12_12  and  N13_13 
REMARK       I    between atoms: N13_13  and  C14_14 
REMARK    8  A    between atoms: C14_14  and  C15_15 
REMARK    9  A    between atoms: C16_16  and  O22_22 
REMARK   10  A    between atoms: C17_17  and  O23_23 
REMARK   11  A    between atoms: C19_19  and  N21_21 
ROOT
ATOM      1  C6  MOL d          20.913 -28.655  11.913  0.00  0.00    -0.075 C 
ATOM      2  C10 MOL d          21.946 -27.955  11.535  0.00  0.00    -0.087 C 
ATOM      3  H5  MOL d          19.970 -28.558  11.377  0.00  0.00     0.080 H 
ATOM      4  H8  MOL d          22.882 -28.081  12.078  0.00  0.00     0.079 H 
ENDROOT
BRANCH   1   5
ATOM      5  C5  MOL d          21.010 -29.574  13.055  0.00  0.00     0.083 C 
ATOM      6  C1  MOL d          21.801 -30.858  12.657  0.00  0.00     0.091 C 
ATOM      7  C2  MOL d          20.688 -31.500  11.804  0.00  0.00     0.097 C 
ATOM      8  H1  MOL d          22.733 -30.669  12.106  0.00  0.00     0.091 H 
ATOM      9  C3  MOL d          19.401 -31.179  12.567  0.00  0.00     0.115 C 
ATOM     10  H2  MOL d          20.671 -31.043  10.803  0.00  0.00     0.092 H 
ATOM     11  O4  MOL d          19.721 -30.039  13.378  0.00  0.00    -0.361 OA
ATOM     12  H3  MOL d          19.100 -32.024  13.204  0.00  0.00     0.105 H 
ATOM     13  H4  MOL d          21.480 -29.068  13.912  0.00  0.00     0.093 H 
BRANCH   6  14
ATOM     14  O8  MOL d          22.032 -31.613  13.844  0.00  0.00    -0.390 OA
ATOM     15  H6  MOL d          21.588 -31.197  14.575  0.00  0.00     0.210 HD
ENDBRANCH   6  14
BRANCH   7  16
ATOM     16  O9  MOL d          20.827 -32.919  11.662  0.00  0.00    -0.389 OA
ATOM     17  H7  MOL d          21.746 -33.137  11.559  0.00  0.00     0.210 HD
ENDBRANCH   7  16
BRANCH   9  18
ATOM     18  S7  MOL d          18.096 -30.830  11.380  0.00  0.00    -0.095 SA
BRANCH  18  19
ATOM     19  C11 MOL d          16.699 -30.655  12.279  0.00  0.00     0.005 A 
ATOM     20  C27 MOL d          15.484 -31.385  11.939  0.00  0.00    -0.050 A 
ATOM     21  C28 MOL d          14.334 -31.246  12.725  0.00  0.00     0.003 A 
ATOM     22  H16 MOL d          15.471 -32.038  11.075  0.00  0.00     0.087 H 
ATOM     23  N29 MOL d          14.243 -30.430  13.828  0.00  0.00    -0.273 NA
ATOM     24  H17 MOL d          13.457 -31.819  12.444  0.00  0.00     0.114 H 
ATOM     25  C30 MOL d          15.395 -29.725  14.150  0.00  0.00     0.003 A 
ATOM     26  C31 MOL d          16.583 -29.821  13.432  0.00  0.00    -0.050 A 
ATOM     27  H18 MOL d          15.367 -29.063  15.009  0.00  0.00     0.114 H 
ATOM     28  H19 MOL d          17.443 -29.248  13.756  0.00  0.00     0.087 H 
ENDBRANCH  18  19
ENDBRANCH   9  18
ENDBRANCH   1   5
BRANCH   2  29
ATOM     29  C12 MOL d          21.912 -26.990  10.397  0.00  0.00     0.010 C 
ATOM     30  H9  MOL d          22.439 -26.072  10.697  0.00  0.00     0.070 H 
ATOM     31  H10 MOL d          20.863 -26.752  10.168  0.00  0.00     0.070 H 
BRANCH  29  32
ATOM     32  N13 MOL d          22.536 -27.512   9.208  0.00  0.00    -0.353 N 
ATOM     33  C14 MOL d          21.999 -28.391   8.342  0.00  0.00     0.254 C 
ATOM     34  O24 MOL d          20.789 -28.745   8.463  0.00  0.00    -0.268 OA
ATOM     35  H11 MOL d          23.461 -27.189   9.006  0.00  0.00     0.163 HD
BRANCH  33  36
ATOM     36  C15 MOL d          22.808 -28.979   7.244  0.00  0.00     0.070 A 
ATOM     37  C16 MOL d          22.615 -30.324   6.819  0.00  0.00     0.114 A 
ATOM     38  C17 MOL d          23.419 -30.773   5.736  0.00  0.00     0.102 A 
ATOM     39  C18 MOL d          24.371 -30.021   5.108  0.00  0.00    -0.016 A 
ATOM     40  C19 MOL d          24.521 -28.687   5.548  0.00  0.00     0.106 A 
ATOM     41  H12 MOL d          24.982 -30.428   4.311  0.00  0.00     0.091 H 
ATOM     42  C20 MOL d          23.747 -28.170   6.610  0.00  0.00    -0.033 A 
ATOM     43  H13 MOL d          23.884 -27.144   6.931  0.00  0.00     0.089 H 
BRANCH  37  44
ATOM     44  O22 MOL d          21.756 -31.189   7.368  0.00  0.00    -0.357 OA
ATOM     45  H14 MOL d          20.908 -31.099   6.950  0.00  0.00     0.217 HD
ENDBRANCH  37  44
BRANCH  38  46
ATOM     46  O23 MOL d          23.248 -32.076   5.305  0.00  0.00    -0.358 OA
ATOM     47  H15 MOL d          22.322 -32.288   5.303  0.00  0.00     0.217 HD
ENDBRANCH  38  46
BRANCH  40  48
ATOM     48  N21 MOL d          25.508 -27.830   4.930  0.00  0.00    -0.116 N 
ATOM     49  O25 MOL d          25.409 -26.632   4.959  0.00  0.00    -0.532 OA
ATOM     50  O26 MOL d          26.429 -28.389   4.352  0.00  0.00    -0.532 OA
ENDBRANCH  40  48
ENDBRANCH  33  36
ENDBRANCH  29  32
ENDBRANCH   2  29
TORSDOF 11
ENDMDL
