MODEL 1
REMARK VINA RESULT:      -6.0      0.000      0.000
REMARK  8 active torsions:
REMARK  status: ('A' for Active; 'I' for Inactive)
REMARK    1  A    between atoms: CAF_6  and  OAA_1 
REMARK    2  A    between atoms: CAG_7  and  OAB_2 
REMARK    3  A    between atoms: CAJ_10  and  OAC_3 
REMARK    4  A    between atoms: CAK_11  and  OAD_4 
REMARK    5  A    between atoms: CAL_12  and  OAE_5 
REMARK    6  A    between atoms: CAH_8  and  CAF_6 
REMARK    7  A    between atoms: CAM_13  and  CAG_7 
REMARK    8  A    between atoms: NAN_14  and  CAH_8 
ROOT
ATOM      1  CAI MIG d          45.237  91.420  33.506  0.00  0.00     0.110 C 
ATOM      2  CAJ MIG d          46.381  92.426  33.241  0.00  0.00     0.086 C 
ATOM      3  CAK MIG d          47.208  92.662  34.511  0.00  0.00     0.088 C 
ATOM      4  CAL MIG d          46.267  93.164  35.625  0.00  0.00     0.092 C 
ATOM      5  CAM MIG d          45.100  92.174  35.845  0.00  0.00     0.151 C 
ATOM      6  NAN MIG d          44.392  92.000  34.538  0.00  0.00    -0.058 N 
ATOM      7  H12 MIG d          45.649  90.461  33.851  0.00  0.00     0.080 H 
ATOM      8  H13 MIG d          44.654  91.259  32.587  0.00  0.00     0.080 H 
ATOM      9  H14 MIG d          45.932  93.389  32.958  0.00  0.00     0.089 H 
ATOM     10  H15 MIG d          47.665  91.708  34.814  0.00  0.00     0.091 H 
ATOM     11  H16 MIG d          45.844  94.136  35.333  0.00  0.00     0.090 H 
ATOM     12  H17 MIG d          45.499  91.207  36.188  0.00  0.00     0.092 H 
ATOM     13  H18 MIG d          44.189  92.937  34.225  0.00  0.00     0.280 HD
ENDROOT
BRANCH   6  14
ATOM     14  CAH MIG d          43.075  91.330  34.627  0.00  0.00     0.103 C 
ATOM     15  H10 MIG d          42.605  91.609  35.581  0.00  0.00     0.079 H 
ATOM     16  H11 MIG d          42.448  91.679  33.794  0.00  0.00     0.079 H 
BRANCH  14  17
ATOM     17  CAF MIG d          43.168  89.804  34.558  0.00  0.00     0.039 C 
ATOM     18  H6  MIG d          43.902  89.499  33.798  0.00  0.00     0.076 H 
ATOM     19  H7  MIG d          43.460  89.394  35.536  0.00  0.00     0.076 H 
BRANCH  17  20
ATOM     20  OAA MIG d          41.866  89.349  34.200  0.00  0.00    -0.399 OA
ATOM     21  H1  MIG d          41.635  89.697  33.346  0.00  0.00     0.209 HD
ENDBRANCH  17  20
ENDBRANCH  14  17
ENDBRANCH   6  14
BRANCH   5  22
ATOM     22  CAG MIG d          44.100  92.704  36.878  0.00  0.00     0.046 C 
ATOM     23  H8  MIG d          43.251  92.009  36.960  0.00  0.00     0.077 H 
ATOM     24  H9  MIG d          44.594  92.797  37.856  0.00  0.00     0.077 H 
BRANCH  22  25
ATOM     25  OAB MIG d          43.624  94.008  36.448  0.00  0.00    -0.399 OA
ATOM     26  H2  MIG d          44.193  94.683  36.797  0.00  0.00     0.209 HD
ENDBRANCH  22  25
ENDBRANCH   5  22
BRANCH   2  27
ATOM     27  OAC MIG d          47.162  91.971  32.141  0.00  0.00    -0.391 OA
ATOM     28  H3  MIG d          48.037  92.335  32.203  0.00  0.00     0.210 HD
ENDBRANCH   2  27
BRANCH   4  29
ATOM     29  OAE MIG d          47.056  93.335  36.787  0.00  0.00    -0.391 OA
ATOM     30  H5  MIG d          47.711  94.006  36.628  0.00  0.00     0.210 HD
ENDBRANCH   4  29
BRANCH   3  31
ATOM     31  OAD MIG d          48.257  93.643  34.338  0.00  0.00    -0.390 OA
ATOM     32  H4  MIG d          48.711  93.769  35.163  0.00  0.00     0.210 HD
ENDBRANCH   3  31
TORSDOF 8
ENDMDL
MODEL 2
REMARK VINA RESULT:      -5.3      1.444      3.314
REMARK  8 active torsions:
REMARK  status: ('A' for Active; 'I' for Inactive)
REMARK    1  A    between atoms: CAF_6  and  OAA_1 
REMARK    2  A    between atoms: CAG_7  and  OAB_2 
REMARK    3  A    between atoms: CAJ_10  and  OAC_3 
REMARK    4  A    between atoms: CAK_11  and  OAD_4 
REMARK    5  A    between atoms: CAL_12  and  OAE_5 
REMARK    6  A    between atoms: CAH_8  and  CAF_6 
REMARK    7  A    between atoms: CAM_13  and  CAG_7 
REMARK    8  A    between atoms: NAN_14  and  CAH_8 
ROOT
ATOM      1  CAI MIG d          45.263  92.763  36.245  0.00  0.00     0.110 C 
ATOM      2  CAJ MIG d          46.792  92.722  36.017  0.00  0.00     0.086 C 
ATOM      3  CAK MIG d          47.133  92.974  34.543  0.00  0.00     0.088 C 
ATOM      4  CAL MIG d          46.410  91.919  33.683  0.00  0.00     0.092 C 
ATOM      5  CAM MIG d          44.888  91.936  33.957  0.00  0.00     0.151 C 
ATOM      6  NAN MIG d          44.682  91.713  35.423  0.00  0.00    -0.058 N 
ATOM      7  H12 MIG d          44.862  93.742  35.945  0.00  0.00     0.080 H 
ATOM      8  H13 MIG d          45.033  92.582  37.306  0.00  0.00     0.080 H 
ATOM      9  H14 MIG d          47.149  91.713  36.269  0.00  0.00     0.089 H 
ATOM     10  H15 MIG d          46.781  93.980  34.269  0.00  0.00     0.091 H 
ATOM     11  H16 MIG d          46.794  90.919  33.934  0.00  0.00     0.090 H 
ATOM     12  H17 MIG d          44.474  92.912  33.664  0.00  0.00     0.092 H 
ATOM     13  H18 MIG d          45.211  90.881  35.636  0.00  0.00     0.280 HD
ENDROOT
BRANCH   6  14
ATOM     14  CAH MIG d          43.291  91.397  35.816  0.00  0.00     0.103 C 
ATOM     15  H10 MIG d          42.769  90.976  34.944  0.00  0.00     0.079 H 
ATOM     16  H11 MIG d          43.316  90.650  36.623  0.00  0.00     0.079 H 
BRANCH  14  17
ATOM     17  CAF MIG d          42.510  92.618  36.308  0.00  0.00     0.039 C 
ATOM     18  H6  MIG d          41.703  92.307  36.989  0.00  0.00     0.076 H 
ATOM     19  H7  MIG d          43.181  93.316  36.829  0.00  0.00     0.076 H 
BRANCH  17  20
ATOM     20  OAA MIG d          41.966  93.229  35.143  0.00  0.00    -0.399 OA
ATOM     21  H1  MIG d          42.307  94.112  35.061  0.00  0.00     0.209 HD
ENDBRANCH  17  20
ENDBRANCH  14  17
ENDBRANCH   6  14
BRANCH   5  22
ATOM     22  CAG MIG d          44.165  90.827  33.186  0.00  0.00     0.046 C 
ATOM     23  H8  MIG d          43.357  90.413  33.806  0.00  0.00     0.077 H 
ATOM     24  H9  MIG d          43.741  91.238  32.258  0.00  0.00     0.077 H 
BRANCH  22  25
ATOM     25  OAB MIG d          45.118  89.779  32.862  0.00  0.00    -0.399 OA
ATOM     26  H2  MIG d          45.841  90.150  32.371  0.00  0.00     0.209 HD
ENDBRANCH  22  25
ENDBRANCH   5  22
BRANCH   2  27
ATOM     27  OAC MIG d          47.424  93.639  36.904  0.00  0.00    -0.391 OA
ATOM     28  H3  MIG d          47.563  94.466  36.457  0.00  0.00     0.210 HD
ENDBRANCH   2  27
BRANCH   4  29
ATOM     29  OAE MIG d          46.718  92.205  32.331  0.00  0.00    -0.391 OA
ATOM     30  H5  MIG d          47.574  92.614  32.283  0.00  0.00     0.210 HD
ENDBRANCH   4  29
BRANCH   3  31
ATOM     31  OAD MIG d          48.549  92.887  34.260  0.00  0.00    -0.390 OA
ATOM     32  H4  MIG d          49.018  93.521  34.791  0.00  0.00     0.210 HD
ENDBRANCH   3  31
TORSDOF 8
ENDMDL
MODEL 3
REMARK VINA RESULT:      -5.3      1.507      1.735
REMARK  8 active torsions:
REMARK  status: ('A' for Active; 'I' for Inactive)
REMARK    1  A    between atoms: CAF_6  and  OAA_1 
REMARK    2  A    between atoms: CAG_7  and  OAB_2 
REMARK    3  A    between atoms: CAJ_10  and  OAC_3 
REMARK    4  A    between atoms: CAK_11  and  OAD_4 
REMARK    5  A    between atoms: CAL_12  and  OAE_5 
REMARK    6  A    between atoms: CAH_8  and  CAF_6 
REMARK    7  A    between atoms: CAM_13  and  CAG_7 
REMARK    8  A    between atoms: NAN_14  and  CAH_8 
ROOT
ATOM      1  CAI MIG d          45.739  91.410  33.760  0.00  0.00     0.110 C 
ATOM      2  CAJ MIG d          46.518  92.698  34.113  0.00  0.00     0.086 C 
ATOM      3  CAK MIG d          46.444  92.988  35.617  0.00  0.00     0.088 C 
ATOM      4  CAL MIG d          44.962  93.100  36.025  0.00  0.00     0.092 C 
ATOM      5  CAM MIG d          44.184  91.826  35.620  0.00  0.00     0.151 C 
ATOM      6  NAN MIG d          44.355  91.631  34.146  0.00  0.00    -0.058 N 
ATOM      7  H12 MIG d          46.153  90.554  34.312  0.00  0.00     0.080 H 
ATOM      8  H13 MIG d          45.803  91.214  32.679  0.00  0.00     0.080 H 
ATOM      9  H14 MIG d          46.041  93.541  33.592  0.00  0.00     0.089 H 
ATOM     10  H15 MIG d          46.915  92.154  36.159  0.00  0.00     0.091 H 
ATOM     11  H16 MIG d          44.507  93.960  35.510  0.00  0.00     0.090 H 
ATOM     12  H17 MIG d          44.590  90.961  36.164  0.00  0.00     0.092 H 
ATOM     13  H18 MIG d          44.098  92.515  33.735  0.00  0.00     0.280 HD
ENDROOT
BRANCH   6  14
ATOM     14  CAH MIG d          43.437  90.642  33.538  0.00  0.00     0.103 C 
ATOM     15  H10 MIG d          42.579  90.501  34.212  0.00  0.00     0.079 H 
ATOM     16  H11 MIG d          43.085  91.038  32.574  0.00  0.00     0.079 H 
BRANCH  14  17
ATOM     17  CAF MIG d          44.092  89.280  33.294  0.00  0.00     0.039 C 
ATOM     18  H6  MIG d          44.975  89.160  33.939  0.00  0.00     0.076 H 
ATOM     19  H7  MIG d          43.376  88.470  33.497  0.00  0.00     0.076 H 
BRANCH  17  20
ATOM     20  OAA MIG d          44.475  89.271  31.922  0.00  0.00    -0.399 OA
ATOM     21  H1  MIG d          44.659  88.379  31.652  0.00  0.00     0.209 HD
ENDBRANCH  17  20
ENDBRANCH  14  17
ENDBRANCH   6  14
BRANCH   5  22
ATOM     22  CAG MIG d          42.688  91.961  35.927  0.00  0.00     0.046 C 
ATOM     23  H8  MIG d          42.133  91.161  35.414  0.00  0.00     0.077 H 
ATOM     24  H9  MIG d          42.525  91.882  37.012  0.00  0.00     0.077 H 
BRANCH  22  25
ATOM     25  OAB MIG d          42.224  93.255  35.457  0.00  0.00    -0.399 OA
ATOM     26  H2  MIG d          42.575  93.938  36.017  0.00  0.00     0.209 HD
ENDBRANCH  22  25
ENDBRANCH   5  22
BRANCH   2  27
ATOM     27  OAC MIG d          47.853  92.588  33.628  0.00  0.00    -0.391 OA
ATOM     28  H3  MIG d          47.996  91.711  33.294  0.00  0.00     0.210 HD
ENDBRANCH   2  27
BRANCH   4  29
ATOM     29  OAE MIG d          44.932  93.331  37.421  0.00  0.00    -0.391 OA
ATOM     30  H5  MIG d          45.596  92.797  37.843  0.00  0.00     0.210 HD
ENDBRANCH   4  29
BRANCH   3  31
ATOM     31  OAD MIG d          47.106  94.217  35.998  0.00  0.00    -0.390 OA
ATOM     32  H4  MIG d          46.479  94.797  36.417  0.00  0.00     0.210 HD
ENDBRANCH   3  31
TORSDOF 8
ENDMDL
MODEL 4
REMARK VINA RESULT:      -4.6      1.614      4.079
REMARK  8 active torsions:
REMARK  status: ('A' for Active; 'I' for Inactive)
REMARK    1  A    between atoms: CAF_6  and  OAA_1 
REMARK    2  A    between atoms: CAG_7  and  OAB_2 
REMARK    3  A    between atoms: CAJ_10  and  OAC_3 
REMARK    4  A    between atoms: CAK_11  and  OAD_4 
REMARK    5  A    between atoms: CAL_12  and  OAE_5 
REMARK    6  A    between atoms: CAH_8  and  CAF_6 
REMARK    7  A    between atoms: CAM_13  and  CAG_7 
REMARK    8  A    between atoms: NAN_14  and  CAH_8 
ROOT
ATOM      1  CAI MIG d          45.673  91.125  33.411  0.00  0.00     0.110 C 
ATOM      2  CAJ MIG d          44.719  89.924  33.611  0.00  0.00     0.086 C 
ATOM      3  CAK MIG d          43.418  90.365  34.292  0.00  0.00     0.088 C 
ATOM      4  CAL MIG d          43.768  91.034  35.636  0.00  0.00     0.092 C 
ATOM      5  CAM MIG d          44.761  92.200  35.427  0.00  0.00     0.151 C 
ATOM      6  NAN MIG d          45.969  91.657  34.731  0.00  0.00    -0.058 N 
ATOM      7  H12 MIG d          45.187  91.895  32.794  0.00  0.00     0.080 H 
ATOM      8  H13 MIG d          46.600  90.794  32.920  0.00  0.00     0.080 H 
ATOM      9  H14 MIG d          45.212  89.203  34.279  0.00  0.00     0.089 H 
ATOM     10  H15 MIG d          42.909  91.091  33.640  0.00  0.00     0.091 H 
ATOM     11  H16 MIG d          44.241  90.293  36.299  0.00  0.00     0.090 H 
ATOM     12  H17 MIG d          44.288  92.978  34.809  0.00  0.00     0.092 H 
ATOM     13  H18 MIG d          46.254  90.863  35.283  0.00  0.00     0.280 HD
ENDROOT
BRANCH   6  14
ATOM     14  CAH MIG d          47.142  92.560  34.722  0.00  0.00     0.103 C 
ATOM     15  H10 MIG d          47.104  93.190  35.623  0.00  0.00     0.079 H 
ATOM     16  H11 MIG d          48.055  91.947  34.742  0.00  0.00     0.079 H 
BRANCH  14  17
ATOM     17  CAF MIG d          47.195  93.470  33.493  0.00  0.00     0.039 C 
ATOM     18  H6  MIG d          48.226  93.806  33.309  0.00  0.00     0.076 H 
ATOM     19  H7  MIG d          46.818  92.938  32.607  0.00  0.00     0.076 H 
BRANCH  17  20
ATOM     20  OAA MIG d          46.358  94.583  33.795  0.00  0.00    -0.399 OA
ATOM     21  H1  MIG d          46.531  95.284  33.177  0.00  0.00     0.209 HD
ENDBRANCH  17  20
ENDBRANCH  14  17
ENDBRANCH   6  14
BRANCH   5  22
ATOM     22  CAG MIG d          45.198  92.812  36.763  0.00  0.00     0.046 C 
ATOM     23  H8  MIG d          45.639  92.031  37.400  0.00  0.00     0.077 H 
ATOM     24  H9  MIG d          45.943  93.601  36.582  0.00  0.00     0.077 H 
BRANCH  22  25
ATOM     25  OAB MIG d          44.037  93.383  37.423  0.00  0.00    -0.399 OA
ATOM     26  H2  MIG d          43.998  93.071  38.319  0.00  0.00     0.209 HD
ENDBRANCH  22  25
ENDBRANCH   5  22
BRANCH   2  27
ATOM     27  OAC MIG d          44.506  89.279  32.359  0.00  0.00    -0.391 OA
ATOM     28  H3  MIG d          43.586  89.333  32.129  0.00  0.00     0.210 HD
ENDBRANCH   2  27
BRANCH   4  29
ATOM     29  OAE MIG d          42.550  91.459  36.217  0.00  0.00    -0.391 OA
ATOM     30  H5  MIG d          42.547  91.239  37.142  0.00  0.00     0.210 HD
ENDBRANCH   4  29
BRANCH   3  31
ATOM     31  OAD MIG d          42.511  89.270  34.561  0.00  0.00    -0.390 OA
ATOM     32  H4  MIG d          42.154  88.948  33.741  0.00  0.00     0.210 HD
ENDBRANCH   3  31
TORSDOF 8
ENDMDL
MODEL 5
REMARK VINA RESULT:      -4.1      1.525      4.945
REMARK  8 active torsions:
REMARK  status: ('A' for Active; 'I' for Inactive)
REMARK    1  A    between atoms: CAF_6  and  OAA_1 
REMARK    2  A    between atoms: CAG_7  and  OAB_2 
REMARK    3  A    between atoms: CAJ_10  and  OAC_3 
REMARK    4  A    between atoms: CAK_11  and  OAD_4 
REMARK    5  A    between atoms: CAL_12  and  OAE_5 
REMARK    6  A    between atoms: CAH_8  and  CAF_6 
REMARK    7  A    between atoms: CAM_13  and  CAG_7 
REMARK    8  A    between atoms: NAN_14  and  CAH_8 
ROOT
ATOM      1  CAI MIG d          45.767  92.818  35.478  0.00  0.00     0.110 C 
ATOM      2  CAJ MIG d          44.403  92.877  36.204  0.00  0.00     0.086 C 
ATOM      3  CAK MIG d          43.712  91.508  36.185  0.00  0.00     0.088 C 
ATOM      4  CAL MIG d          43.548  91.059  34.719  0.00  0.00     0.092 C 
ATOM      5  CAM MIG d          44.912  91.053  33.991  0.00  0.00     0.151 C 
ATOM      6  NAN MIG d          45.500  92.425  34.104  0.00  0.00    -0.058 N 
ATOM      7  H12 MIG d          46.421  92.078  35.962  0.00  0.00     0.080 H 
ATOM      8  H13 MIG d          46.251  93.805  35.501  0.00  0.00     0.080 H 
ATOM      9  H14 MIG d          43.755  93.579  35.659  0.00  0.00     0.089 H 
ATOM     10  H15 MIG d          44.346  90.788  36.724  0.00  0.00     0.091 H 
ATOM     11  H16 MIG d          42.882  91.761  34.196  0.00  0.00     0.090 H 
ATOM     12  H17 MIG d          45.579  90.318  34.467  0.00  0.00     0.092 H 
ATOM     13  H18 MIG d          44.775  93.046  33.782  0.00  0.00     0.280 HD
ENDROOT
BRANCH   6  14
ATOM     14  CAH MIG d          46.653  92.684  33.211  0.00  0.00     0.103 C 
ATOM     15  H10 MIG d          47.098  91.719  32.928  0.00  0.00     0.079 H 
ATOM     16  H11 MIG d          46.289  93.198  32.310  0.00  0.00     0.079 H 
BRANCH  14  17
ATOM     17  CAF MIG d          47.736  93.548  33.860  0.00  0.00     0.039 C 
ATOM     18  H6  MIG d          48.297  94.100  33.091  0.00  0.00     0.076 H 
ATOM     19  H7  MIG d          47.285  94.260  34.568  0.00  0.00     0.076 H 
BRANCH  17  20
ATOM     20  OAA MIG d          48.597  92.645  34.548  0.00  0.00    -0.399 OA
ATOM     21  H1  MIG d          48.834  91.931  33.967  0.00  0.00     0.209 HD
ENDBRANCH  17  20
ENDBRANCH  14  17
ENDBRANCH   6  14
BRANCH   5  22
ATOM     22  CAG MIG d          44.755  90.706  32.506  0.00  0.00     0.046 C 
ATOM     23  H8  MIG d          43.875  91.224  32.098  0.00  0.00     0.077 H 
ATOM     24  H9  MIG d          45.654  91.022  31.956  0.00  0.00     0.077 H 
BRANCH  22  25
ATOM     25  OAB MIG d          44.582  89.270  32.373  0.00  0.00    -0.399 OA
ATOM     26  H2  MIG d          43.686  89.082  32.120  0.00  0.00     0.209 HD
ENDBRANCH  22  25
ENDBRANCH   5  22
BRANCH   2  27
ATOM     27  OAC MIG d          44.591  93.392  37.518  0.00  0.00    -0.391 OA
ATOM     28  H3  MIG d          44.526  94.339  37.498  0.00  0.00     0.210 HD
ENDBRANCH   2  27
BRANCH   4  29
ATOM     29  OAE MIG d          42.943  89.780  34.743  0.00  0.00    -0.391 OA
ATOM     30  H5  MIG d          43.610  89.113  34.630  0.00  0.00     0.210 HD
ENDBRANCH   4  29
BRANCH   3  31
ATOM     31  OAD MIG d          42.401  91.518  36.798  0.00  0.00    -0.390 OA
ATOM     32  H4  MIG d          42.030  92.391  36.734  0.00  0.00     0.210 HD
ENDBRANCH   3  31
TORSDOF 8
ENDMDL
MODEL 6
REMARK VINA RESULT:      -3.8      1.424      4.947
REMARK  8 active torsions:
REMARK  status: ('A' for Active; 'I' for Inactive)
REMARK    1  A    between atoms: CAF_6  and  OAA_1 
REMARK    2  A    between atoms: CAG_7  and  OAB_2 
REMARK    3  A    between atoms: CAJ_10  and  OAC_3 
REMARK    4  A    between atoms: CAK_11  and  OAD_4 
REMARK    5  A    between atoms: CAL_12  and  OAE_5 
REMARK    6  A    between atoms: CAH_8  and  CAF_6 
REMARK    7  A    between atoms: CAM_13  and  CAG_7 
REMARK    8  A    between atoms: NAN_14  and  CAH_8 
ROOT
ATOM      1  CAI MIG d          44.502  92.473  36.167  0.00  0.00     0.110 C 
ATOM      2  CAJ MIG d          43.303  91.622  35.689  0.00  0.00     0.086 C 
ATOM      3  CAK MIG d          43.773  90.466  34.798  0.00  0.00     0.088 C 
ATOM      4  CAL MIG d          44.557  91.050  33.606  0.00  0.00     0.092 C 
ATOM      5  CAM MIG d          45.722  91.940  34.098  0.00  0.00     0.151 C 
ATOM      6  NAN MIG d          45.147  93.005  34.978  0.00  0.00    -0.058 N 
ATOM      7  H12 MIG d          45.209  91.848  36.732  0.00  0.00     0.080 H 
ATOM      8  H13 MIG d          44.150  93.297  36.807  0.00  0.00     0.080 H 
ATOM      9  H14 MIG d          42.650  92.263  35.079  0.00  0.00     0.089 H 
ATOM     10  H15 MIG d          44.432  89.813  35.389  0.00  0.00     0.091 H 
ATOM     11  H16 MIG d          43.883  91.671  32.996  0.00  0.00     0.090 H 
ATOM     12  H17 MIG d          46.436  91.327  34.668  0.00  0.00     0.092 H 
ATOM     13  H18 MIG d          44.407  93.422  34.434  0.00  0.00     0.280 HD
ENDROOT
BRANCH   6  14
ATOM     14  CAH MIG d          46.070  94.120  35.290  0.00  0.00     0.103 C 
ATOM     15  H10 MIG d          46.128  94.781  34.413  0.00  0.00     0.079 H 
ATOM     16  H11 MIG d          45.664  94.681  36.145  0.00  0.00     0.079 H 
BRANCH  14  17
ATOM     17  CAF MIG d          47.484  93.653  35.642  0.00  0.00     0.039 C 
ATOM     18  H6  MIG d          47.806  92.856  34.956  0.00  0.00     0.076 H 
ATOM     19  H7  MIG d          48.190  94.495  35.584  0.00  0.00     0.076 H 
BRANCH  17  20
ATOM     20  OAA MIG d          47.411  93.159  36.976  0.00  0.00    -0.399 OA
ATOM     21  H1  MIG d          47.001  93.811  37.532  0.00  0.00     0.209 HD
ENDBRANCH  17  20
ENDBRANCH  14  17
ENDBRANCH   6  14
BRANCH   5  22
ATOM     22  CAG MIG d          46.451  92.610  32.928  0.00  0.00     0.046 C 
ATOM     23  H8  MIG d          45.738  93.214  32.347  0.00  0.00     0.077 H 
ATOM     24  H9  MIG d          47.252  93.257  33.314  0.00  0.00     0.077 H 
BRANCH  22  25
ATOM     25  OAB MIG d          47.024  91.580  32.078  0.00  0.00    -0.399 OA
ATOM     26  H2  MIG d          46.833  91.779  31.168  0.00  0.00     0.209 HD
ENDBRANCH  22  25
ENDBRANCH   5  22
BRANCH   2  27
ATOM     27  OAC MIG d          42.553  91.189  36.819  0.00  0.00    -0.391 OA
ATOM     28  H3  MIG d          42.978  90.435  37.210  0.00  0.00     0.210 HD
ENDBRANCH   2  27
BRANCH   4  29
ATOM     29  OAE MIG d          45.004  89.956  32.828  0.00  0.00    -0.391 OA
ATOM     30  H5  MIG d          44.300  89.324  32.737  0.00  0.00     0.210 HD
ENDBRANCH   4  29
BRANCH   3  31
ATOM     31  OAD MIG d          42.686  89.670  34.270  0.00  0.00    -0.390 OA
ATOM     32  H4  MIG d          41.868  90.143  34.377  0.00  0.00     0.210 HD
ENDBRANCH   3  31
TORSDOF 8
ENDMDL
MODEL 7
REMARK VINA RESULT:      -3.6      1.251      4.253
REMARK  8 active torsions:
REMARK  status: ('A' for Active; 'I' for Inactive)
REMARK    1  A    between atoms: CAF_6  and  OAA_1 
REMARK    2  A    between atoms: CAG_7  and  OAB_2 
REMARK    3  A    between atoms: CAJ_10  and  OAC_3 
REMARK    4  A    between atoms: CAK_11  and  OAD_4 
REMARK    5  A    between atoms: CAL_12  and  OAE_5 
REMARK    6  A    between atoms: CAH_8  and  CAF_6 
REMARK    7  A    between atoms: CAM_13  and  CAG_7 
REMARK    8  A    between atoms: NAN_14  and  CAH_8 
ROOT
ATOM      1  CAI MIG d          44.823  91.261  33.492  0.00  0.00     0.110 C 
ATOM      2  CAJ MIG d          44.143  90.409  34.588  0.00  0.00     0.086 C 
ATOM      3  CAK MIG d          43.390  91.298  35.586  0.00  0.00     0.088 C 
ATOM      4  CAL MIG d          44.385  92.305  36.196  0.00  0.00     0.092 C 
ATOM      5  CAM MIG d          45.095  93.116  35.086  0.00  0.00     0.151 C 
ATOM      6  NAN MIG d          45.762  92.146  34.163  0.00  0.00    -0.058 N 
ATOM      7  H12 MIG d          44.069  91.852  32.950  0.00  0.00     0.080 H 
ATOM      8  H13 MIG d          45.356  90.611  32.783  0.00  0.00     0.080 H 
ATOM      9  H14 MIG d          44.928  89.880  35.147  0.00  0.00     0.089 H 
ATOM     10  H15 MIG d          42.600  91.839  35.045  0.00  0.00     0.091 H 
ATOM     11  H16 MIG d          45.151  91.760  36.767  0.00  0.00     0.090 H 
ATOM     12  H17 MIG d          44.352  93.710  34.534  0.00  0.00     0.092 H 
ATOM     13  H18 MIG d          46.311  91.550  34.763  0.00  0.00     0.280 HD
ENDROOT
BRANCH   6  14
ATOM     14  CAH MIG d          46.735  92.748  33.224  0.00  0.00     0.103 C 
ATOM     15  H10 MIG d          46.604  92.280  32.237  0.00  0.00     0.079 H 
ATOM     16  H11 MIG d          46.529  93.825  33.149  0.00  0.00     0.079 H 
BRANCH  14  17
ATOM     17  CAF MIG d          48.191  92.561  33.661  0.00  0.00     0.039 C 
ATOM     18  H6  MIG d          48.264  91.765  34.416  0.00  0.00     0.076 H 
ATOM     19  H7  MIG d          48.820  92.306  32.795  0.00  0.00     0.076 H 
BRANCH  17  20
ATOM     20  OAA MIG d          48.594  93.810  34.215  0.00  0.00    -0.399 OA
ATOM     21  H1  MIG d          48.030  94.499  33.885  0.00  0.00     0.209 HD
ENDBRANCH  17  20
ENDBRANCH  14  17
ENDBRANCH   6  14
BRANCH   5  22
ATOM     22  CAG MIG d          46.160  94.052  35.668  0.00  0.00     0.046 C 
ATOM     23  H8  MIG d          46.823  94.402  34.863  0.00  0.00     0.077 H 
ATOM     24  H9  MIG d          45.673  94.915  36.144  0.00  0.00     0.077 H 
BRANCH  22  25
ATOM     25  OAB MIG d          46.937  93.325  36.658  0.00  0.00    -0.399 OA
ATOM     26  H2  MIG d          46.913  92.396  36.459  0.00  0.00     0.209 HD
ENDBRANCH  22  25
ENDBRANCH   5  22
BRANCH   2  27
ATOM     27  OAC MIG d          43.313  89.428  33.974  0.00  0.00    -0.391 OA
ATOM     28  H3  MIG d          42.483  89.385  34.434  0.00  0.00     0.210 HD
ENDBRANCH   2  27
BRANCH   4  29
ATOM     29  OAE MIG d          43.650  93.129  37.081  0.00  0.00    -0.391 OA
ATOM     30  H5  MIG d          44.245  93.536  37.700  0.00  0.00     0.210 HD
ENDBRANCH   4  29
BRANCH   3  31
ATOM     31  OAD MIG d          42.784  90.557  36.671  0.00  0.00    -0.390 OA
ATOM     32  H4  MIG d          43.198  89.704  36.741  0.00  0.00     0.210 HD
ENDBRANCH   3  31
TORSDOF 8
ENDMDL
MODEL 8
REMARK VINA RESULT:      -3.3      1.694      3.751
REMARK  8 active torsions:
REMARK  status: ('A' for Active; 'I' for Inactive)
REMARK    1  A    between atoms: CAF_6  and  OAA_1 
REMARK    2  A    between atoms: CAG_7  and  OAB_2 
REMARK    3  A    between atoms: CAJ_10  and  OAC_3 
REMARK    4  A    between atoms: CAK_11  and  OAD_4 
REMARK    5  A    between atoms: CAL_12  and  OAE_5 
REMARK    6  A    between atoms: CAH_8  and  CAF_6 
REMARK    7  A    between atoms: CAM_13  and  CAG_7 
REMARK    8  A    between atoms: NAN_14  and  CAH_8 
ROOT
ATOM      1  CAI MIG d          43.567  90.946  35.385  0.00  0.00     0.110 C 
ATOM      2  CAJ MIG d          43.477  91.959  36.550  0.00  0.00     0.086 C 
ATOM      3  CAK MIG d          43.895  93.362  36.090  0.00  0.00     0.088 C 
ATOM      4  CAL MIG d          45.326  93.287  35.521  0.00  0.00     0.092 C 
ATOM      5  CAM MIG d          45.414  92.234  34.392  0.00  0.00     0.151 C 
ATOM      6  NAN MIG d          44.954  90.923  34.948  0.00  0.00    -0.058 N 
ATOM      7  H12 MIG d          42.916  91.262  34.558  0.00  0.00     0.080 H 
ATOM      8  H13 MIG d          43.263  89.946  35.730  0.00  0.00     0.080 H 
ATOM      9  H14 MIG d          44.183  91.646  37.332  0.00  0.00     0.089 H 
ATOM     10  H15 MIG d          43.201  93.693  35.303  0.00  0.00     0.091 H 
ATOM     11  H16 MIG d          46.020  92.993  36.322  0.00  0.00     0.090 H 
ATOM     12  H17 MIG d          44.764  92.537  33.557  0.00  0.00     0.092 H 
ATOM     13  H18 MIG d          45.498  90.791  35.787  0.00  0.00     0.280 HD
ENDROOT
BRANCH   6  14
ATOM     14  CAH MIG d          45.257  89.747  34.103  0.00  0.00     0.103 C 
ATOM     15  H10 MIG d          46.072  90.013  33.414  0.00  0.00     0.079 H 
ATOM     16  H11 MIG d          45.583  88.923  34.754  0.00  0.00     0.079 H 
BRANCH  14  17
ATOM     17  CAF MIG d          44.059  89.270  33.279  0.00  0.00     0.039 C 
ATOM     18  H6  MIG d          43.763  88.256  33.586  0.00  0.00     0.076 H 
ATOM     19  H7  MIG d          43.208  89.956  33.409  0.00  0.00     0.076 H 
BRANCH  17  20
ATOM     20  OAA MIG d          44.493  89.270  31.922  0.00  0.00    -0.399 OA
ATOM     21  H1  MIG d          45.442  89.238  31.895  0.00  0.00     0.209 HD
ENDBRANCH  17  20
ENDBRANCH  14  17
ENDBRANCH   6  14
BRANCH   5  22
ATOM     22  CAG MIG d          46.851  92.075  33.883  0.00  0.00     0.046 C 
ATOM     23  H8  MIG d          47.508  92.785  34.406  0.00  0.00     0.077 H 
ATOM     24  H9  MIG d          47.197  91.048  34.070  0.00  0.00     0.077 H 
BRANCH  22  25
ATOM     25  OAB MIG d          46.878  92.346  32.456  0.00  0.00    -0.399 OA
ATOM     26  H2  MIG d          45.989  92.430  32.133  0.00  0.00     0.209 HD
ENDBRANCH  22  25
ENDBRANCH   5  22
BRANCH   2  27
ATOM     27  OAC MIG d          42.167  91.919  37.107  0.00  0.00    -0.391 OA
ATOM     28  H3  MIG d          42.068  91.129  37.625  0.00  0.00     0.210 HD
ENDBRANCH   2  27
BRANCH   4  29
ATOM     29  OAE MIG d          45.662  94.587  35.075  0.00  0.00    -0.391 OA
ATOM     30  H5  MIG d          46.109  95.054  35.771  0.00  0.00     0.210 HD
ENDBRANCH   4  29
BRANCH   3  31
ATOM     31  OAD MIG d          43.888  94.340  37.155  0.00  0.00    -0.390 OA
ATOM     32  H4  MIG d          44.581  94.138  37.774  0.00  0.00     0.210 HD
ENDBRANCH   3  31
TORSDOF 8
ENDMDL
MODEL 9
REMARK VINA RESULT:      -3.0      1.546      3.446
REMARK  8 active torsions:
REMARK  status: ('A' for Active; 'I' for Inactive)
REMARK    1  A    between atoms: CAF_6  and  OAA_1 
REMARK    2  A    between atoms: CAG_7  and  OAB_2 
REMARK    3  A    between atoms: CAJ_10  and  OAC_3 
REMARK    4  A    between atoms: CAK_11  and  OAD_4 
REMARK    5  A    between atoms: CAL_12  and  OAE_5 
REMARK    6  A    between atoms: CAH_8  and  CAF_6 
REMARK    7  A    between atoms: CAM_13  and  CAG_7 
REMARK    8  A    between atoms: NAN_14  and  CAH_8 
ROOT
ATOM      1  CAI MIG d          43.765  91.540  36.287  0.00  0.00     0.110 C 
ATOM      2  CAJ MIG d          44.688  92.730  36.639  0.00  0.00     0.086 C 
ATOM      3  CAK MIG d          45.197  93.424  35.369  0.00  0.00     0.088 C 
ATOM      4  CAL MIG d          45.929  92.383  34.499  0.00  0.00     0.092 C 
ATOM      5  CAM MIG d          45.012  91.176  34.197  0.00  0.00     0.151 C 
ATOM      6  NAN MIG d          44.557  90.605  35.504  0.00  0.00    -0.058 N 
ATOM      7  H12 MIG d          42.904  91.891  35.700  0.00  0.00     0.080 H 
ATOM      8  H13 MIG d          43.407  91.055  37.207  0.00  0.00     0.080 H 
ATOM      9  H14 MIG d          45.566  92.337  37.172  0.00  0.00     0.089 H 
ATOM     10  H15 MIG d          44.332  93.823  34.818  0.00  0.00     0.091 H 
ATOM     11  H16 MIG d          46.815  92.016  35.039  0.00  0.00     0.090 H 
ATOM     12  H17 MIG d          44.144  91.513  33.611  0.00  0.00     0.092 H 
ATOM     13  H18 MIG d          45.402  90.459  36.033  0.00  0.00     0.280 HD
ENDROOT
BRANCH   6  14
ATOM     14  CAH MIG d          43.923  89.271  35.414  0.00  0.00     0.103 C 
ATOM     15  H10 MIG d          44.440  88.690  34.636  0.00  0.00     0.079 H 
ATOM     16  H11 MIG d          44.035  88.765  36.384  0.00  0.00     0.079 H 
BRANCH  14  17
ATOM     17  CAF MIG d          42.433  89.331  35.067  0.00  0.00     0.039 C 
ATOM     18  H6  MIG d          41.921  88.425  35.422  0.00  0.00     0.076 H 
ATOM     19  H7  MIG d          41.970  90.219  35.523  0.00  0.00     0.076 H 
BRANCH  17  20
ATOM     20  OAA MIG d          42.367  89.413  33.646  0.00  0.00    -0.399 OA
ATOM     21  H1  MIG d          43.090  88.927  33.268  0.00  0.00     0.209 HD
ENDBRANCH  17  20
ENDBRANCH  14  17
ENDBRANCH   6  14
BRANCH   5  22
ATOM     22  CAG MIG d          45.756  90.085  33.418  0.00  0.00     0.046 C 
ATOM     23  H8  MIG d          46.643  90.519  32.933  0.00  0.00     0.077 H 
ATOM     24  H9  MIG d          46.068  89.287  34.107  0.00  0.00     0.077 H 
BRANCH  22  25
ATOM     25  OAB MIG d          44.867  89.537  32.409  0.00  0.00    -0.399 OA
ATOM     26  H2  MIG d          44.577  88.673  32.679  0.00  0.00     0.209 HD
ENDBRANCH  22  25
ENDBRANCH   5  22
BRANCH   2  27
ATOM     27  OAC MIG d          44.004  93.611  37.523  0.00  0.00    -0.391 OA
ATOM     28  H3  MIG d          44.300  94.502  37.373  0.00  0.00     0.210 HD
ENDBRANCH   2  27
BRANCH   4  29
ATOM     29  OAE MIG d          46.351  93.049  33.324  0.00  0.00    -0.391 OA
ATOM     30  H5  MIG d          46.159  92.506  32.568  0.00  0.00     0.210 HD
ENDBRANCH   4  29
BRANCH   3  31
ATOM     31  OAD MIG d          46.116  94.509  35.637  0.00  0.00    -0.390 OA
ATOM     32  H4  MIG d          45.716  95.332  35.379  0.00  0.00     0.210 HD
ENDBRANCH   3  31
TORSDOF 8
ENDMDL
