REMARK  23 active torsions:
REMARK  status: ('A' for Active; 'I' for Inactive)
REMARK    1  A    between atoms: CBK_1  and  CBL_2 
REMARK    2  A    between atoms: CBL_2  and  CBM_3 
REMARK    3  A    between atoms: CBL_2  and  CBN_4 
REMARK    4  A    between atoms: CBN_4  and  NBO_5 
REMARK       I    between atoms: NBO_5  and  CBP_6 
REMARK    5  A    between atoms: CBP_6  and  CBG_8 
REMARK    6  A    between atoms: CBG_8  and  CBH_9 
REMARK    7  A    between atoms: CBG_8  and  NBF_12 
REMARK    8  A    between atoms: CBH_9  and  CBJ_10 
REMARK    9  A    between atoms: CBH_9  and  OBI_11 
REMARK   10  A    between atoms: NBF_12  and  CAX_13 
REMARK   11  A    between atoms: CAX_13  and  CAW_14 
REMARK   12  A    between atoms: CAW_14  and  CAY_15 
REMARK   13  A    between atoms: CAW_14  and  NAV_22 
REMARK   14  A    between atoms: CAY_15  and  CAZ_16 
REMARK       I    between atoms: NAV_22  and  CAT_23 
REMARK   15  A    between atoms: CAT_23  and  CAP_25 
REMARK   16  A    between atoms: CAN_28  and  NAE_29 
REMARK   17  A    between atoms: NAE_29  and  CBT_30 
REMARK   18  A    between atoms: NAE_29  and  SAB_31 
REMARK   19  A    between atoms: SAB_31  and  CAA_34 
REMARK   20  A    between atoms: CAR_36  and  CAL_37 
REMARK       I    between atoms: CAL_37  and  NBQ_39 
REMARK   21  A    between atoms: NBQ_39  and  CBR_40 
REMARK   22  A    between atoms: CBR_40  and  CBS_41 
REMARK   23  A    between atoms: CBR_40  and  CAI_42 
ROOT
ATOM      1  CAW MOL d          42.596  -4.415   9.986  0.00  0.00     0.039 C 
ATOM      2  H21 MOL d          43.307  -4.709  10.772  0.00  0.00     0.075 H 
ENDROOT
BRANCH   1   3
ATOM      3  CAX MOL d          43.190  -3.213   9.245  0.00  0.00     0.101 C 
ATOM      4  H19 MOL d          44.183  -3.493   8.863  0.00  0.00     0.079 H 
ATOM      5  H20 MOL d          42.531  -2.961   8.401  0.00  0.00     0.079 H 
BRANCH   3   6
ATOM      6  NBF MOL d          43.335  -2.022  10.097  0.00  0.00    -0.058 N 
ATOM      7  H17 MOL d          42.645  -1.337   9.830  0.00  0.00     0.278 HD
ATOM      8  H18 MOL d          43.194  -2.283  11.060  0.00  0.00     0.278 HD
BRANCH   6   9
ATOM      9  CBG MOL d          44.679  -1.443   9.943  0.00  0.00     0.201 C 
ATOM     10  H11 MOL d          44.827  -1.262   8.868  0.00  0.00     0.103 H 
BRANCH   9  11
ATOM     11  CBP MOL d          45.826  -2.355  10.413  0.00  0.00     0.251 C 
ATOM     12  NBO MOL d          47.110  -2.011   9.782  0.00  0.00    -0.359 N 
ATOM     13  H10 MOL d          47.236  -1.314   9.076  0.00  0.00     0.162 HD
ATOM     14  OBV MOL d          45.802  -2.895  11.522  0.00  0.00    -0.271 OA
BRANCH  12  15
ATOM     15  CBN MOL d          48.182  -2.849  10.347  0.00  0.00    -0.002 C 
ATOM     16  H8  MOL d          48.882  -2.210  10.906  0.00  0.00     0.064 H 
ATOM     17  H9  MOL d          47.739  -3.591  11.028  0.00  0.00     0.064 H 
BRANCH  15  18
ATOM     18  CBL MOL d          48.944  -3.578   9.239  0.00  0.00    -0.046 C 
ATOM     19  H4  MOL d          48.235  -4.219   8.694  0.00  0.00     0.041 H 
BRANCH  18  20
ATOM     20  CBK MOL d          49.537  -2.555   8.271  0.00  0.00    -0.072 C 
ATOM     21  H1  MOL d          50.085  -3.079   7.474  0.00  0.00     0.028 H 
ATOM     22  H2  MOL d          50.226  -1.892   8.815  0.00  0.00     0.028 H 
ATOM     23  H3  MOL d          48.727  -1.958   7.827  0.00  0.00     0.028 H 
ENDBRANCH  18  20
BRANCH  18  24
ATOM     24  CBM MOL d          50.068  -4.459   9.792  0.00  0.00    -0.072 C 
ATOM     25  H5  MOL d          49.646  -5.197  10.490  0.00  0.00     0.028 H 
ATOM     26  H6  MOL d          50.800  -3.831  10.322  0.00  0.00     0.028 H 
ATOM     27  H7  MOL d          50.566  -4.982   8.962  0.00  0.00     0.028 H 
ENDBRANCH  18  24
ENDBRANCH  15  18
ENDBRANCH  12  15
ENDBRANCH   9  11
BRANCH   9  28
ATOM     28  CBH MOL d          44.778  -0.093  10.669  0.00  0.00     0.068 C 
ATOM     29  H12 MOL d          44.190   0.623  10.076  0.00  0.00     0.086 H 
BRANCH  28  30
ATOM     30  CBJ MOL d          44.137  -0.134  12.057  0.00  0.00    -0.050 C 
ATOM     31  H13 MOL d          44.233   0.852  12.535  0.00  0.00     0.031 H 
ATOM     32  H14 MOL d          44.645  -0.891  12.673  0.00  0.00     0.031 H 
ATOM     33  H15 MOL d          43.072  -0.393  11.962  0.00  0.00     0.031 H 
ENDBRANCH  28  30
BRANCH  28  34
ATOM     34  OBI MOL d          46.119   0.411  10.699  0.00  0.00    -0.393 OA
ATOM     35  H16 MOL d          46.474   0.417   9.818  0.00  0.00     0.210 HD
ENDBRANCH  28  34
ENDBRANCH   9  28
ENDBRANCH   6   9
ENDBRANCH   3   6
ENDBRANCH   1   3
BRANCH   1  36
ATOM     36  CAY MOL d          42.416  -5.596   9.026  0.00  0.00    -0.021 C 
ATOM     37  H22 MOL d          43.408  -5.959   8.721  0.00  0.00     0.043 H 
ATOM     38  H23 MOL d          41.863  -5.251   8.140  0.00  0.00     0.043 H 
BRANCH  36  39
ATOM     39  CAZ MOL d          41.714  -6.648   9.612  0.00  0.00    -0.056 A 
ATOM     40  CBA MOL d          40.702  -7.296   8.911  0.00  0.00    -0.077 A 
ATOM     41  CBB MOL d          39.955  -8.305   9.512  0.00  0.00    -0.082 A 
ATOM     42  H24 MOL d          40.493  -7.012   7.886  0.00  0.00     0.084 H 
ATOM     43  CBC MOL d          40.210  -8.671  10.829  0.00  0.00    -0.083 A 
ATOM     44  H25 MOL d          39.173  -8.806   8.953  0.00  0.00     0.083 H 
ATOM     45  CBD MOL d          41.218  -8.021  11.533  0.00  0.00    -0.082 A 
ATOM     46  H26 MOL d          39.629  -9.455  11.302  0.00  0.00     0.083 H 
ATOM     47  CBE MOL d          41.972  -7.022  10.927  0.00  0.00    -0.077 A 
ATOM     48  H27 MOL d          41.417  -8.295  12.563  0.00  0.00     0.083 H 
ATOM     49  H28 MOL d          42.764  -6.532  11.482  0.00  0.00     0.084 H 
ENDBRANCH  36  39
ENDBRANCH   1  36
BRANCH   1  50
ATOM     50  NAV MOL d          41.308  -4.117  10.629  0.00  0.00    -0.350 N 
ATOM     51  CAT MOL d          41.257  -3.741  11.915  0.00  0.00     0.252 C 
ATOM     52  OAU MOL d          42.268  -3.563  12.592  0.00  0.00    -0.268 OA
ATOM     53  H29 MOL d          40.462  -4.196  10.102  0.00  0.00     0.163 HD
BRANCH  51  54
ATOM     54  CAP MOL d          39.977  -3.554  12.431  0.00  0.00     0.034 A 
ATOM     55  CAQ MOL d          38.982  -4.440  12.033  0.00  0.00    -0.052 A 
ATOM     56  CAR MOL d          37.767  -4.486  12.707  0.00  0.00     0.034 A 
ATOM     57  H30 MOL d          39.155  -5.100  11.191  0.00  0.00     0.086 H 
ATOM     58  CAS MOL d          37.545  -3.622  13.775  0.00  0.00    -0.046 A 
ATOM     59  CAN MOL d          38.508  -2.697  14.165  0.00  0.00     0.026 A 
ATOM     60  H38 MOL d          36.605  -3.671  14.313  0.00  0.00     0.087 H 
ATOM     61  CAO MOL d          39.737  -2.701  13.506  0.00  0.00    -0.046 A 
ATOM     62  H31 MOL d          40.520  -2.028  13.836  0.00  0.00     0.087 H 
BRANCH  56  63
ATOM     63  CAL MOL d          36.729  -5.276  12.227  0.00  0.00     0.252 C 
ATOM     64  OAM MOL d          35.977  -5.860  13.006  0.00  0.00    -0.268 OA
ATOM     65  NBQ MOL d          36.709  -5.492  10.904  0.00  0.00    -0.349 N 
ATOM     66  H39 MOL d          37.417  -5.087  10.326  0.00  0.00     0.163 HD
BRANCH  65  67
ATOM     67  CBR MOL d          35.656  -6.318  10.294  0.00  0.00     0.034 C 
ATOM     68  H40 MOL d          35.033  -6.728  11.103  0.00  0.00     0.079 H 
BRANCH  67  69
ATOM     69  CBS MOL d          36.284  -7.487   9.532  0.00  0.00    -0.053 C 
ATOM     70  H41 MOL d          35.490  -8.099   9.079  0.00  0.00     0.030 H 
ATOM     71  H42 MOL d          36.871  -8.105  10.227  0.00  0.00     0.030 H 
ATOM     72  H43 MOL d          36.942  -7.098   8.741  0.00  0.00     0.030 H 
ENDBRANCH  67  69
BRANCH  67  73
ATOM     73  CAI MOL d          34.831  -5.573   9.454  0.00  0.00    -0.036 A 
ATOM     74  CAH MOL d          33.470  -5.497   9.724  0.00  0.00    -0.075 A 
ATOM     75  CAG MOL d          32.649  -4.640   8.994  0.00  0.00    -0.082 A 
ATOM     76  H44 MOL d          33.043  -6.110  10.510  0.00  0.00     0.084 H 
ATOM     77  CAF MOL d          33.190  -3.850   7.986  0.00  0.00    -0.083 A 
ATOM     78  H45 MOL d          31.588  -4.589   9.212  0.00  0.00     0.083 H 
ATOM     79  CAK MOL d          34.552  -3.928   7.707  0.00  0.00    -0.082 A 
ATOM     80  H46 MOL d          32.555  -3.177   7.421  0.00  0.00     0.083 H 
ATOM     81  CAJ MOL d          35.366  -4.793   8.432  0.00  0.00    -0.075 A 
ATOM     82  H47 MOL d          34.979  -3.313   6.923  0.00  0.00     0.083 H 
ATOM     83  H48 MOL d          36.423  -4.860   8.200  0.00  0.00     0.084 H 
ENDBRANCH  67  73
ENDBRANCH  65  67
ENDBRANCH  56  63
BRANCH  59  84
ATOM     84  NAE MOL d          38.332  -2.031  15.309  0.00  0.00    -0.181 NA
BRANCH  84  85
ATOM     85  CBT MOL d          39.484  -1.198  15.685  0.00  0.00    -0.015 C 
ATOM     86  H32 MOL d          40.410  -1.782  15.577  0.00  0.00     0.050 H 
ATOM     87  H33 MOL d          39.376  -0.873  16.730  0.00  0.00     0.050 H 
ATOM     88  H34 MOL d          39.528  -0.316  15.029  0.00  0.00     0.050 H 
ENDBRANCH  84  85
BRANCH  84  89
ATOM     89  SAB MOL d          36.931  -1.184  15.461  0.00  0.00     0.211 S 
ATOM     90  OAC MOL d          37.220   0.231  15.963  0.00  0.00    -0.211 OA
ATOM     91  OAD MOL d          36.190  -1.102  14.124  0.00  0.00    -0.211 OA
BRANCH  89  92
ATOM     92  CAA MOL d          35.886  -2.018  16.638  0.00  0.00     0.029 C 
ATOM     93  H35 MOL d          34.944  -1.462  16.750  0.00  0.00     0.050 H 
ATOM     94  H36 MOL d          36.398  -2.071  17.610  0.00  0.00     0.050 H 
ATOM     95  H37 MOL d          35.671  -3.036  16.281  0.00  0.00     0.050 H 
ENDBRANCH  89  92
ENDBRANCH  84  89
ENDBRANCH  59  84
ENDBRANCH  51  54
ENDBRANCH   1  50
TORSDOF 23
