MODEL 1
REMARK VINA RESULT:     -10.7      0.000      0.000
REMARK  23 active torsions:
REMARK  status: ('A' for Active; 'I' for Inactive)
REMARK    1  A    between atoms: CBK_1  and  CBL_2 
REMARK    2  A    between atoms: CBL_2  and  CBM_3 
REMARK    3  A    between atoms: CBL_2  and  CBN_4 
REMARK    4  A    between atoms: CBN_4  and  NBO_5 
REMARK       I    between atoms: NBO_5  and  CBP_6 
REMARK    5  A    between atoms: CBP_6  and  CBG_8 
REMARK    6  A    between atoms: CBG_8  and  CBH_9 
REMARK    7  A    between atoms: CBG_8  and  NBF_12 
REMARK    8  A    between atoms: CBH_9  and  CBJ_10 
REMARK    9  A    between atoms: CBH_9  and  OBI_11 
REMARK   10  A    between atoms: NBF_12  and  CAX_13 
REMARK   11  A    between atoms: CAX_13  and  CAW_14 
REMARK   12  A    between atoms: CAW_14  and  CAY_15 
REMARK   13  A    between atoms: CAW_14  and  NAV_22 
REMARK   14  A    between atoms: CAY_15  and  CAZ_16 
REMARK       I    between atoms: NAV_22  and  CAT_23 
REMARK   15  A    between atoms: CAT_23  and  CAP_25 
REMARK   16  A    between atoms: CAN_28  and  NAE_29 
REMARK   17  A    between atoms: NAE_29  and  CBT_30 
REMARK   18  A    between atoms: NAE_29  and  SAB_31 
REMARK   19  A    between atoms: SAB_31  and  CAA_34 
REMARK   20  A    between atoms: CAR_36  and  CAL_37 
REMARK       I    between atoms: CAL_37  and  NBQ_39 
REMARK   21  A    between atoms: NBQ_39  and  CBR_40 
REMARK   22  A    between atoms: CBR_40  and  CBS_41 
REMARK   23  A    between atoms: CBR_40  and  CAI_42 
ROOT
ATOM      1  CAW MOL d          42.582  -4.399  10.254  0.00  0.00     0.039 C 
ATOM      2  H21 MOL d          43.268  -4.666  11.072  0.00  0.00     0.075 H 
ENDROOT
BRANCH   1   3
ATOM      3  CAX MOL d          43.173  -3.188   9.526  0.00  0.00     0.101 C 
ATOM      4  H19 MOL d          44.037  -3.523   8.933  0.00  0.00     0.079 H 
ATOM      5  H20 MOL d          42.406  -2.774   8.855  0.00  0.00     0.079 H 
BRANCH   3   6
ATOM      6  NBF MOL d          43.617  -2.123  10.440  0.00  0.00    -0.058 N 
ATOM      7  H17 MOL d          42.964  -1.356  10.399  0.00  0.00     0.278 HD
ATOM      8  H18 MOL d          43.652  -2.485  11.380  0.00  0.00     0.278 HD
BRANCH   6   9
ATOM      9  CBG MOL d          44.954  -1.644  10.056  0.00  0.00     0.201 C 
ATOM     10  H11 MOL d          44.998  -1.668   8.957  0.00  0.00     0.103 H 
BRANCH   9  11
ATOM     11  CBP MOL d          46.118  -2.506  10.577  0.00  0.00     0.251 C 
ATOM     12  NBO MOL d          47.156  -2.722   9.557  0.00  0.00    -0.359 N 
ATOM     13  H10 MOL d          47.103  -2.413   8.608  0.00  0.00     0.162 HD
ATOM     14  OBV MOL d          46.407  -2.534  11.776  0.00  0.00    -0.271 OA
BRANCH  12  15
ATOM     15  CBN MOL d          48.284  -3.465  10.146  0.00  0.00    -0.002 C 
ATOM     16  H8  MOL d          48.356  -3.220  11.217  0.00  0.00     0.064 H 
ATOM     17  H9  MOL d          48.107  -4.544  10.027  0.00  0.00     0.064 H 
BRANCH  15  18
ATOM     18  CBL MOL d          49.598  -3.093   9.457  0.00  0.00    -0.046 C 
ATOM     19  H4  MOL d          49.592  -2.011   9.258  0.00  0.00     0.041 H 
BRANCH  18  20
ATOM     20  CBK MOL d          50.769  -3.422  10.383  0.00  0.00    -0.072 C 
ATOM     21  H1  MOL d          51.715  -3.171   9.881  0.00  0.00     0.028 H 
ATOM     22  H2  MOL d          50.755  -4.495  10.624  0.00  0.00     0.028 H 
ATOM     23  H3  MOL d          50.679  -2.837  11.310  0.00  0.00     0.028 H 
ENDBRANCH  18  20
BRANCH  18  24
ATOM     24  CBM MOL d          49.784  -3.831   8.128  0.00  0.00    -0.072 C 
ATOM     25  H5  MOL d          50.838  -3.770   7.819  0.00  0.00     0.028 H 
ATOM     26  H6  MOL d          49.150  -3.366   7.358  0.00  0.00     0.028 H 
ATOM     27  H7  MOL d          49.498  -4.886   8.251  0.00  0.00     0.028 H 
ENDBRANCH  18  24
ENDBRANCH  15  18
ENDBRANCH  12  15
ENDBRANCH   9  11
BRANCH   9  28
ATOM     28  CBH MOL d          45.163  -0.190  10.506  0.00  0.00     0.068 C 
ATOM     29  H12 MOL d          45.020   0.436   9.612  0.00  0.00     0.086 H 
BRANCH  28  30
ATOM     30  CBJ MOL d          44.110   0.259  11.520  0.00  0.00    -0.050 C 
ATOM     31  H13 MOL d          43.467   1.028  11.067  0.00  0.00     0.031 H 
ATOM     32  H14 MOL d          44.610   0.675  12.408  0.00  0.00     0.031 H 
ATOM     33  H15 MOL d          43.495  -0.604  11.817  0.00  0.00     0.031 H 
ENDBRANCH  28  30
BRANCH  28  34
ATOM     34  OBI MOL d          46.500   0.052  10.960  0.00  0.00    -0.393 OA
ATOM     35  H16 MOL d          46.926  -0.776  11.145  0.00  0.00     0.210 HD
ENDBRANCH  28  34
ENDBRANCH   9  28
ENDBRANCH   6   9
ENDBRANCH   3   6
ENDBRANCH   1   3
BRANCH   1  36
ATOM     36  CAY MOL d          42.475  -5.593   9.300  0.00  0.00    -0.021 C 
ATOM     37  H22 MOL d          43.473  -6.035   9.172  0.00  0.00     0.043 H 
ATOM     38  H23 MOL d          42.104  -5.237   8.328  0.00  0.00     0.043 H 
BRANCH  36  39
ATOM     39  CAZ MOL d          41.608  -6.573   9.779  0.00  0.00    -0.056 A 
ATOM     40  CBA MOL d          41.849  -7.189  11.003  0.00  0.00    -0.077 A 
ATOM     41  CBB MOL d          41.023  -8.213  11.459  0.00  0.00    -0.082 A 
ATOM     42  H24 MOL d          42.689  -6.869  11.608  0.00  0.00     0.084 H 
ATOM     43  CBC MOL d          39.947  -8.636  10.687  0.00  0.00    -0.083 A 
ATOM     44  H25 MOL d          41.219  -8.680  12.417  0.00  0.00     0.083 H 
ATOM     45  CBD MOL d          39.707  -8.025   9.461  0.00  0.00    -0.082 A 
ATOM     46  H26 MOL d          39.302  -9.435  11.037  0.00  0.00     0.083 H 
ATOM     47  CBE MOL d          40.526  -6.994   9.013  0.00  0.00    -0.077 A 
ATOM     48  H27 MOL d          38.875  -8.356   8.849  0.00  0.00     0.083 H 
ATOM     49  H28 MOL d          40.320  -6.517   8.061  0.00  0.00     0.084 H 
ENDBRANCH  36  39
ENDBRANCH   1  36
BRANCH   1  50
ATOM     50  NAV MOL d          41.261  -4.131  10.841  0.00  0.00    -0.350 N 
ATOM     51  CAT MOL d          41.146  -3.750  12.121  0.00  0.00     0.252 C 
ATOM     52  OAU MOL d          42.123  -3.542  12.839  0.00  0.00    -0.268 OA
ATOM     53  H29 MOL d          40.440  -4.235  10.279  0.00  0.00     0.163 HD
BRANCH  51  54
ATOM     54  CAP MOL d          39.841  -3.593  12.582  0.00  0.00     0.034 A 
ATOM     55  CAQ MOL d          38.878  -4.482  12.115  0.00  0.00    -0.052 A 
ATOM     56  CAR MOL d          37.634  -4.561  12.730  0.00  0.00     0.034 A 
ATOM     57  H30 MOL d          39.100  -5.117  11.265  0.00  0.00     0.086 H 
ATOM     58  CAS MOL d          37.351  -3.729  13.809  0.00  0.00    -0.046 A 
ATOM     59  CAN MOL d          38.281  -2.802  14.267  0.00  0.00     0.026 A 
ATOM     60  H38 MOL d          36.388  -3.805  14.301  0.00  0.00     0.087 H 
ATOM     61  CAO MOL d          39.539  -2.772  13.666  0.00  0.00    -0.046 A 
ATOM     62  H31 MOL d          40.297  -2.098  14.049  0.00  0.00     0.087 H 
BRANCH  56  63
ATOM     63  CAL MOL d          36.631  -5.352  12.183  0.00  0.00     0.252 C 
ATOM     64  OAM MOL d          35.891  -6.014  12.909  0.00  0.00    -0.268 OA
ATOM     65  NBQ MOL d          36.635  -5.478  10.848  0.00  0.00    -0.349 N 
ATOM     66  H39 MOL d          37.335  -5.010  10.309  0.00  0.00     0.163 HD
BRANCH  65  67
ATOM     67  CBR MOL d          35.620  -6.296  10.167  0.00  0.00     0.034 C 
ATOM     68  H40 MOL d          34.910  -6.658  10.926  0.00  0.00     0.079 H 
BRANCH  67  69
ATOM     69  CBS MOL d          36.281  -7.509   9.509  0.00  0.00    -0.053 C 
ATOM     70  H41 MOL d          37.207  -7.194   9.006  0.00  0.00     0.030 H 
ATOM     71  H42 MOL d          35.593  -7.946   8.771  0.00  0.00     0.030 H 
ATOM     72  H43 MOL d          36.519  -8.259  10.278  0.00  0.00     0.030 H 
ENDBRANCH  67  69
BRANCH  67  73
ATOM     73  CAI MOL d          34.902  -5.559   9.227  0.00  0.00    -0.036 A 
ATOM     74  CAH MOL d          33.595  -5.182   9.508  0.00  0.00    -0.075 A 
ATOM     75  CAG MOL d          32.907  -4.319   8.656  0.00  0.00    -0.082 A 
ATOM     76  H44 MOL d          33.105  -5.562  10.397  0.00  0.00     0.084 H 
ATOM     77  CAF MOL d          33.530  -3.827   7.515  0.00  0.00    -0.083 A 
ATOM     78  H45 MOL d          31.887  -4.032   8.883  0.00  0.00     0.083 H 
ATOM     79  CAK MOL d          34.838  -4.208   7.226  0.00  0.00    -0.082 A 
ATOM     80  H46 MOL d          33.000  -3.150   6.854  0.00  0.00     0.083 H 
ATOM     81  CAJ MOL d          35.516  -5.078   8.074  0.00  0.00    -0.075 A 
ATOM     82  H47 MOL d          35.328  -3.826   6.338  0.00  0.00     0.083 H 
ATOM     83  H48 MOL d          36.529  -5.382   7.836  0.00  0.00     0.084 H 
ENDBRANCH  67  73
ENDBRANCH  65  67
ENDBRANCH  56  63
BRANCH  59  84
ATOM     84  NAE MOL d          38.043  -2.169  15.418  0.00  0.00    -0.181 NA
BRANCH  84  85
ATOM     85  CBT MOL d          39.204  -1.423  15.928  0.00  0.00    -0.015 C 
ATOM     86  H32 MOL d          40.111  -1.750  15.399  0.00  0.00     0.050 H 
ATOM     87  H33 MOL d          39.319  -1.614  17.004  0.00  0.00     0.050 H 
ATOM     88  H34 MOL d          39.050  -0.347  15.760  0.00  0.00     0.050 H 
ENDBRANCH  84  85
BRANCH  84  89
ATOM     89  SAB MOL d          36.686  -1.243  15.484  0.00  0.00     0.211 S 
ATOM     90  OAC MOL d          36.955   0.035  16.279  0.00  0.00    -0.211 OA
ATOM     91  OAD MOL d          36.207  -0.869  14.079  0.00  0.00    -0.211 OA
BRANCH  89  92
ATOM     92  CAA MOL d          35.400  -2.174  16.292  0.00  0.00     0.029 C 
ATOM     93  H35 MOL d          34.443  -1.996  15.781  0.00  0.00     0.050 H 
ATOM     94  H36 MOL d          35.321  -1.854  17.341  0.00  0.00     0.050 H 
ATOM     95  H37 MOL d          35.643  -3.246  16.253  0.00  0.00     0.050 H 
ENDBRANCH  89  92
ENDBRANCH  84  89
ENDBRANCH  59  84
ENDBRANCH  51  54
ENDBRANCH   1  50
TORSDOF 23
ENDMDL
MODEL 2
REMARK VINA RESULT:     -10.0      1.453      2.510
REMARK  23 active torsions:
REMARK  status: ('A' for Active; 'I' for Inactive)
REMARK    1  A    between atoms: CBK_1  and  CBL_2 
REMARK    2  A    between atoms: CBL_2  and  CBM_3 
REMARK    3  A    between atoms: CBL_2  and  CBN_4 
REMARK    4  A    between atoms: CBN_4  and  NBO_5 
REMARK       I    between atoms: NBO_5  and  CBP_6 
REMARK    5  A    between atoms: CBP_6  and  CBG_8 
REMARK    6  A    between atoms: CBG_8  and  CBH_9 
REMARK    7  A    between atoms: CBG_8  and  NBF_12 
REMARK    8  A    between atoms: CBH_9  and  CBJ_10 
REMARK    9  A    between atoms: CBH_9  and  OBI_11 
REMARK   10  A    between atoms: NBF_12  and  CAX_13 
REMARK   11  A    between atoms: CAX_13  and  CAW_14 
REMARK   12  A    between atoms: CAW_14  and  CAY_15 
REMARK   13  A    between atoms: CAW_14  and  NAV_22 
REMARK   14  A    between atoms: CAY_15  and  CAZ_16 
REMARK       I    between atoms: NAV_22  and  CAT_23 
REMARK   15  A    between atoms: CAT_23  and  CAP_25 
REMARK   16  A    between atoms: CAN_28  and  NAE_29 
REMARK   17  A    between atoms: NAE_29  and  CBT_30 
REMARK   18  A    between atoms: NAE_29  and  SAB_31 
REMARK   19  A    between atoms: SAB_31  and  CAA_34 
REMARK   20  A    between atoms: CAR_36  and  CAL_37 
REMARK       I    between atoms: CAL_37  and  NBQ_39 
REMARK   21  A    between atoms: NBQ_39  and  CBR_40 
REMARK   22  A    between atoms: CBR_40  and  CBS_41 
REMARK   23  A    between atoms: CBR_40  and  CAI_42 
ROOT
ATOM      1  CAW MOL d          42.790  -3.869  10.296  0.00  0.00     0.039 C 
ATOM      2  H21 MOL d          43.417  -4.343  11.065  0.00  0.00     0.075 H 
ENDROOT
BRANCH   1   3
ATOM      3  CAX MOL d          43.481  -2.572   9.864  0.00  0.00     0.101 C 
ATOM      4  H19 MOL d          43.064  -2.258   8.895  0.00  0.00     0.079 H 
ATOM      5  H20 MOL d          43.276  -1.798  10.618  0.00  0.00     0.079 H 
BRANCH   3   6
ATOM      6  NBF MOL d          44.939  -2.712   9.722  0.00  0.00    -0.058 N 
ATOM      7  H17 MOL d          45.162  -3.677   9.532  0.00  0.00     0.278 HD
ATOM      8  H18 MOL d          45.255  -2.137   8.958  0.00  0.00     0.278 HD
BRANCH   6   9
ATOM      9  CBG MOL d          45.616  -2.291  10.959  0.00  0.00     0.201 C 
ATOM     10  H11 MOL d          45.009  -2.663  11.797  0.00  0.00     0.103 H 
BRANCH   9  11
ATOM     11  CBP MOL d          45.745  -0.767  11.130  0.00  0.00     0.251 C 
ATOM     12  NBO MOL d          46.380  -0.399  12.406  0.00  0.00    -0.359 N 
ATOM     13  H10 MOL d          46.644  -1.042  13.125  0.00  0.00     0.162 HD
ATOM     14  OBV MOL d          45.828  -0.017  10.154  0.00  0.00    -0.271 OA
BRANCH  12  15
ATOM     15  CBN MOL d          46.567   1.061  12.465  0.00  0.00    -0.002 C 
ATOM     16  H8  MOL d          46.863   1.427  11.470  0.00  0.00     0.064 H 
ATOM     17  H9  MOL d          45.619   1.535  12.762  0.00  0.00     0.064 H 
BRANCH  15  18
ATOM     18  CBL MOL d          47.651   1.431  13.478  0.00  0.00    -0.046 C 
ATOM     19  H4  MOL d          47.611   2.517  13.648  0.00  0.00     0.041 H 
BRANCH  18  20
ATOM     20  CBK MOL d          47.381   0.710  14.798  0.00  0.00    -0.072 C 
ATOM     21  H1  MOL d          46.482   1.133  15.270  0.00  0.00     0.028 H 
ATOM     22  H2  MOL d          48.243   0.839  15.470  0.00  0.00     0.028 H 
ATOM     23  H3  MOL d          47.223  -0.362  14.605  0.00  0.00     0.028 H 
ENDBRANCH  18  20
BRANCH  18  24
ATOM     24  CBM MOL d          49.054   1.068  12.984  0.00  0.00    -0.072 C 
ATOM     25  H5  MOL d          49.088  -0.002  12.730  0.00  0.00     0.028 H 
ATOM     26  H6  MOL d          49.789   1.280  13.775  0.00  0.00     0.028 H 
ATOM     27  H7  MOL d          49.294   1.664  12.091  0.00  0.00     0.028 H 
ENDBRANCH  18  24
ENDBRANCH  15  18
ENDBRANCH  12  15
ENDBRANCH   9  11
BRANCH   9  28
ATOM     28  CBH MOL d          47.009  -2.930  11.062  0.00  0.00     0.068 C 
ATOM     29  H12 MOL d          46.853  -4.019  11.050  0.00  0.00     0.086 H 
BRANCH  28  30
ATOM     30  CBJ MOL d          47.886  -2.606   9.852  0.00  0.00    -0.050 C 
ATOM     31  H13 MOL d          47.311  -2.764   8.928  0.00  0.00     0.031 H 
ATOM     32  H14 MOL d          48.769  -3.263   9.852  0.00  0.00     0.031 H 
ATOM     33  H15 MOL d          48.211  -1.556   9.906  0.00  0.00     0.031 H 
ENDBRANCH  28  30
BRANCH  28  34
ATOM     34  OBI MOL d          47.655  -2.628  12.305  0.00  0.00    -0.393 OA
ATOM     35  H16 MOL d          47.989  -3.429  12.691  0.00  0.00     0.210 HD
ENDBRANCH  28  34
ENDBRANCH   9  28
ENDBRANCH   6   9
ENDBRANCH   3   6
ENDBRANCH   1   3
BRANCH   1  36
ATOM     36  CAY MOL d          42.669  -4.829   9.107  0.00  0.00    -0.021 C 
ATOM     37  H22 MOL d          43.677  -5.146   8.804  0.00  0.00     0.043 H 
ATOM     38  H23 MOL d          42.185  -4.300   8.273  0.00  0.00     0.043 H 
BRANCH  36  39
ATOM     39  CAZ MOL d          41.917  -5.960   9.419  0.00  0.00    -0.056 A 
ATOM     40  CBA MOL d          40.844  -6.335   8.616  0.00  0.00    -0.077 A 
ATOM     41  CBB MOL d          40.051  -7.427   8.956  0.00  0.00    -0.082 A 
ATOM     42  H24 MOL d          40.624  -5.771   7.717  0.00  0.00     0.084 H 
ATOM     43  CBC MOL d          40.320  -8.152  10.112  0.00  0.00    -0.083 A 
ATOM     44  H25 MOL d          39.221  -7.712   8.320  0.00  0.00     0.083 H 
ATOM     45  CBD MOL d          41.389  -7.776  10.917  0.00  0.00    -0.082 A 
ATOM     46  H26 MOL d          39.703  -9.002  10.381  0.00  0.00     0.083 H 
ATOM     47  CBE MOL d          42.189  -6.692  10.570  0.00  0.00    -0.077 A 
ATOM     48  H27 MOL d          41.600  -8.331  11.824  0.00  0.00     0.083 H 
ATOM     49  H28 MOL d          43.028  -6.417  11.199  0.00  0.00     0.084 H 
ENDBRANCH  36  39
ENDBRANCH   1  36
BRANCH   1  50
ATOM     50  NAV MOL d          41.456  -3.647  10.872  0.00  0.00    -0.350 N 
ATOM     51  CAT MOL d          41.276  -3.654  12.201  0.00  0.00     0.252 C 
ATOM     52  OAU MOL d          42.209  -3.775  12.993  0.00  0.00    -0.268 OA
ATOM     53  H29 MOL d          40.675  -3.491  10.268  0.00  0.00     0.163 HD
BRANCH  51  54
ATOM     54  CAP MOL d          39.958  -3.502  12.625  0.00  0.00     0.034 A 
ATOM     55  CAQ MOL d          39.009  -4.382  12.117  0.00  0.00    -0.052 A 
ATOM     56  CAR MOL d          37.747  -4.469  12.694  0.00  0.00     0.034 A 
ATOM     57  H30 MOL d          39.254  -5.005  11.265  0.00  0.00     0.086 H 
ATOM     58  CAS MOL d          37.432  -3.652  13.776  0.00  0.00    -0.046 A 
ATOM     59  CAN MOL d          38.350  -2.734  14.275  0.00  0.00     0.026 A 
ATOM     60  H38 MOL d          36.455  -3.734  14.238  0.00  0.00     0.087 H 
ATOM     61  CAO MOL d          39.625  -2.697  13.712  0.00  0.00    -0.046 A 
ATOM     62  H31 MOL d          40.371  -2.030  14.128  0.00  0.00     0.087 H 
BRANCH  56  63
ATOM     63  CAL MOL d          36.759  -5.250  12.104  0.00  0.00     0.252 C 
ATOM     64  OAM MOL d          36.049  -5.983  12.792  0.00  0.00    -0.268 OA
ATOM     65  NBQ MOL d          36.748  -5.282  10.764  0.00  0.00    -0.349 N 
ATOM     66  H39 MOL d          37.426  -4.757  10.251  0.00  0.00     0.163 HD
BRANCH  65  67
ATOM     67  CBR MOL d          35.747  -6.082  10.041  0.00  0.00     0.034 C 
ATOM     68  H40 MOL d          35.097  -6.567  10.784  0.00  0.00     0.079 H 
BRANCH  67  69
ATOM     69  CBS MOL d          36.441  -7.174   9.225  0.00  0.00    -0.053 C 
ATOM     70  H41 MOL d          36.335  -6.955   8.152  0.00  0.00     0.030 H 
ATOM     71  H42 MOL d          35.979  -8.147   9.447  0.00  0.00     0.030 H 
ATOM     72  H43 MOL d          37.509  -7.206   9.488  0.00  0.00     0.030 H 
ENDBRANCH  67  69
BRANCH  67  73
ATOM     73  CAI MOL d          34.945  -5.292   9.220  0.00  0.00    -0.036 A 
ATOM     74  CAH MOL d          35.449  -4.833   8.009  0.00  0.00    -0.075 A 
ATOM     75  CAG MOL d          34.623  -4.173   7.102  0.00  0.00    -0.082 A 
ATOM     76  H44 MOL d          36.495  -4.989   7.768  0.00  0.00     0.084 H 
ATOM     77  CAF MOL d          33.281  -3.970   7.404  0.00  0.00    -0.083 A 
ATOM     78  H45 MOL d          35.026  -3.817   6.161  0.00  0.00     0.083 H 
ATOM     79  CAK MOL d          32.773  -4.423   8.618  0.00  0.00    -0.082 A 
ATOM     80  H46 MOL d          32.634  -3.463   6.697  0.00  0.00     0.083 H 
ATOM     81  CAJ MOL d          33.604  -5.072   9.526  0.00  0.00    -0.075 A 
ATOM     82  H47 MOL d          31.727  -4.269   8.858  0.00  0.00     0.083 H 
ATOM     83  H48 MOL d          33.206  -5.409  10.476  0.00  0.00     0.084 H 
ENDBRANCH  67  73
ENDBRANCH  65  67
ENDBRANCH  56  63
BRANCH  59  84
ATOM     84  NAE MOL d          38.078  -2.117  15.428  0.00  0.00    -0.181 NA
BRANCH  84  85
ATOM     85  CBT MOL d          39.214  -1.353  15.965  0.00  0.00    -0.015 C 
ATOM     86  H32 MOL d          40.156  -1.801  15.616  0.00  0.00     0.050 H 
ATOM     87  H33 MOL d          39.183  -1.375  17.064  0.00  0.00     0.050 H 
ATOM     88  H34 MOL d          39.152  -0.311  15.617  0.00  0.00     0.050 H 
ENDBRANCH  84  85
BRANCH  84  89
ATOM     89  SAB MOL d          36.701  -1.220  15.478  0.00  0.00     0.211 S 
ATOM     90  OAC MOL d          36.921   0.040  16.316  0.00  0.00    -0.211 OA
ATOM     91  OAD MOL d          36.256  -0.817  14.070  0.00  0.00    -0.211 OA
BRANCH  89  92
ATOM     92  CAA MOL d          35.412  -2.198  16.223  0.00  0.00     0.029 C 
ATOM     93  H35 MOL d          35.850  -3.097  16.678  0.00  0.00     0.050 H 
ATOM     94  H36 MOL d          34.685  -2.494  15.452  0.00  0.00     0.050 H 
ATOM     95  H37 MOL d          34.903  -1.605  16.998  0.00  0.00     0.050 H 
ENDBRANCH  89  92
ENDBRANCH  84  89
ENDBRANCH  59  84
ENDBRANCH  51  54
ENDBRANCH   1  50
TORSDOF 23
ENDMDL
