MODEL 1
REMARK VINA RESULT:      -7.0      0.000      0.000
REMARK  10 active torsions:
REMARK  status: ('A' for Active; 'I' for Inactive)
REMARK    1  A    between atoms: C2_1  and  O2_7 
REMARK    2  A    between atoms: C3_2  and  O3_8 
REMARK    3  A    between atoms: C4_3  and  O4_9 
REMARK    4  A    between atoms: C5_4  and  C6_5 
REMARK    5  A    between atoms: C6_5  and  O6_11 
REMARK    6  A    between atoms: O4_19  and  C1_6 
REMARK    7  A    between atoms: C5_13  and  C6_12 
REMARK    8  A    between atoms: C6_12  and  O6_17 
REMARK    9  A    between atoms: C4_14  and  O4_19 
REMARK   10  A    between atoms: C3_15  and  O3_20 
ROOT
ATOM      1  C2  BGC d          61.142  47.741  36.333  0.00  0.00     0.110 C 
ATOM      2  C3  BGC d          60.467  48.730  37.296  0.00  0.00     0.092 C 
ATOM      3  C4  BGC d          58.950  48.531  37.327  0.00  0.00     0.090 C 
ATOM      4  C5  BGC d          58.647  47.063  37.624  0.00  0.00     0.089 C 
ATOM      5  C1  BGC d          60.711  46.320  36.667  0.00  0.00     0.159 C 
ATOM      6  O5  BGC d          59.286  46.265  36.621  0.00  0.00    -0.348 OA
ATOM      7  H1  BGC d          60.811  47.973  35.311  0.00  0.00     0.094 H 
ATOM      8  H2  BGC d          60.864  48.556  38.307  0.00  0.00     0.091 H 
ATOM      9  H3  BGC d          58.533  48.795  36.345  0.00  0.00     0.091 H 
ATOM     10  H4  BGC d          59.072  46.817  38.609  0.00  0.00     0.090 H 
ATOM     11  H7  BGC d          61.103  45.999  37.643  0.00  0.00     0.133 H 
ENDROOT
BRANCH   5  12
ATOM     12  O4  BGC d          61.129  45.516  35.662  0.00  0.00    -0.348 OA
BRANCH  12  13
ATOM     13  C4  BGC d          61.038  44.110  35.849  0.00  0.00     0.097 C 
ATOM     14  C5  BGC d          62.440  43.482  35.935  0.00  0.00     0.119 C 
ATOM     15  O5  BGC d          62.306  42.076  36.118  0.00  0.00    -0.195 OA
ATOM     16  H14 BGC d          62.993  43.707  35.011  0.00  0.00     0.094 H 
ATOM     17  N1  BGC d          61.624  41.496  34.979  0.00  0.00     0.042 N 
ATOM     18  C2  BGC d          60.252  41.972  34.772  0.00  0.00     0.135 C 
ATOM     19  H21 BGC d          62.158  41.711  34.152  0.00  0.00     0.315 HD
ATOM     20  H22 BGC d          61.593  40.496  35.109  0.00  0.00     0.315 HD
ATOM     21  C3  BGC d          60.280  43.511  34.655  0.00  0.00     0.088 C 
ATOM     22  H17 BGC d          59.844  41.537  33.848  0.00  0.00     0.084 H 
ATOM     23  H18 BGC d          59.624  41.675  35.625  0.00  0.00     0.084 H 
ATOM     24  H16 BGC d          60.805  43.798  33.732  0.00  0.00     0.089 H 
ATOM     25  H15 BGC d          60.490  43.899  36.780  0.00  0.00     0.091 H 
BRANCH  14  26
ATOM     26  C6  BGC d          63.234  43.949  37.139  0.00  0.00     0.045 C 
ATOM     27  H12 BGC d          63.932  43.153  37.441  0.00  0.00     0.078 H 
ATOM     28  H13 BGC d          62.542  44.161  37.967  0.00  0.00     0.078 H 
BRANCH  26  29
ATOM     29  O6  BGC d          63.974  45.128  36.834  0.00  0.00    -0.398 OA
ATOM     30  H19 BGC d          64.743  44.895  36.328  0.00  0.00     0.209 HD
ENDBRANCH  26  29
ENDBRANCH  14  26
BRANCH  21  31
ATOM     31  O3  BGC d          58.966  43.952  34.579  0.00  0.00    -0.391 OA
ATOM     32  H20 BGC d          58.459  43.559  35.280  0.00  0.00     0.210 HD
ENDBRANCH  21  31
ENDBRANCH  12  13
ENDBRANCH   5  12
BRANCH   1  33
ATOM     33  O2  BGC d          62.553  47.859  36.375  0.00  0.00    -0.388 OA
ATOM     34  H8  BGC d          62.933  47.370  35.655  0.00  0.00     0.210 HD
ENDBRANCH   1  33
BRANCH   2  35
ATOM     35  O3  BGC d          60.759  50.066  36.914  0.00  0.00    -0.390 OA
ATOM     36  H9  BGC d          61.483  50.393  37.435  0.00  0.00     0.210 HD
ENDBRANCH   2  35
BRANCH   4  37
ATOM     37  C6  BGC d          57.167  46.721  37.654  0.00  0.00     0.043 C 
ATOM     38  H5  BGC d          56.880  46.234  36.711  0.00  0.00     0.078 H 
ATOM     39  H6  BGC d          56.577  47.640  37.785  0.00  0.00     0.078 H 
BRANCH  37  40
ATOM     40  O6  BGC d          56.929  45.841  38.740  0.00  0.00    -0.398 OA
ATOM     41  H11 BGC d          57.380  46.163  39.511  0.00  0.00     0.209 HD
ENDBRANCH  37  40
ENDBRANCH   4  37
BRANCH   3  42
ATOM     42  O4  BGC d          58.352  49.354  38.319  0.00  0.00    -0.390 OA
ATOM     43  H10 BGC d          57.848  48.814  38.916  0.00  0.00     0.210 HD
ENDBRANCH   3  42
TORSDOF 10
ENDMDL
MODEL 2
REMARK VINA RESULT:      -5.9      2.199      6.248
REMARK  10 active torsions:
REMARK  status: ('A' for Active; 'I' for Inactive)
REMARK    1  A    between atoms: C2_1  and  O2_7 
REMARK    2  A    between atoms: C3_2  and  O3_8 
REMARK    3  A    between atoms: C4_3  and  O4_9 
REMARK    4  A    between atoms: C5_4  and  C6_5 
REMARK    5  A    between atoms: C6_5  and  O6_11 
REMARK    6  A    between atoms: O4_19  and  C1_6 
REMARK    7  A    between atoms: C5_13  and  C6_12 
REMARK    8  A    between atoms: C6_12  and  O6_17 
REMARK    9  A    between atoms: C4_14  and  O4_19 
REMARK   10  A    between atoms: C3_15  and  O3_20 
ROOT
ATOM      1  C2  BGC d          59.979  43.534  35.006  0.00  0.00     0.110 C 
ATOM      2  C3  BGC d          60.696  42.183  35.147  0.00  0.00     0.092 C 
ATOM      3  C4  BGC d          62.121  42.360  35.676  0.00  0.00     0.090 C 
ATOM      4  C5  BGC d          62.075  43.182  36.963  0.00  0.00     0.089 C 
ATOM      5  C1  BGC d          60.061  44.302  36.317  0.00  0.00     0.159 C 
ATOM      6  O5  BGC d          61.437  44.431  36.671  0.00  0.00    -0.348 OA
ATOM      7  H1  BGC d          60.492  44.118  34.228  0.00  0.00     0.094 H 
ATOM      8  H2  BGC d          60.132  41.563  35.860  0.00  0.00     0.091 H 
ATOM      9  H3  BGC d          62.718  42.896  34.924  0.00  0.00     0.091 H 
ATOM     10  H4  BGC d          61.474  42.631  37.701  0.00  0.00     0.090 H 
ATOM     11  H7  BGC d          59.478  43.811  37.109  0.00  0.00     0.133 H 
ENDROOT
BRANCH   5  12
ATOM     12  O4  BGC d          59.637  45.565  36.082  0.00  0.00    -0.348 OA
BRANCH  12  13
ATOM     13  C4  BGC d          59.820  46.533  37.106  0.00  0.00     0.097 C 
ATOM     14  C5  BGC d          58.463  47.073  37.592  0.00  0.00     0.119 C 
ATOM     15  O5  BGC d          58.690  48.041  38.612  0.00  0.00    -0.195 OA
ATOM     16  H14 BGC d          57.927  47.518  36.741  0.00  0.00     0.094 H 
ATOM     17  N1  BGC d          59.448  49.152  38.075  0.00  0.00     0.042 N 
ATOM     18  C2  BGC d          60.789  48.809  37.590  0.00  0.00     0.135 C 
ATOM     19  H21 BGC d          58.927  49.543  37.305  0.00  0.00     0.315 HD
ATOM     20  H22 BGC d          59.545  49.845  38.801  0.00  0.00     0.315 HD
ATOM     21  C3  BGC d          60.657  47.688  36.536  0.00  0.00     0.088 C 
ATOM     22  H17 BGC d          61.256  49.693  37.134  0.00  0.00     0.084 H 
ATOM     23  H18 BGC d          61.408  48.458  38.429  0.00  0.00     0.084 H 
ATOM     24  H16 BGC d          60.144  48.082  35.647  0.00  0.00     0.089 H 
ATOM     25  H15 BGC d          60.351  46.074  37.953  0.00  0.00     0.091 H 
BRANCH  14  26
ATOM     26  C6  BGC d          57.600  46.017  38.254  0.00  0.00     0.045 C 
ATOM     27  H12 BGC d          57.099  45.421  37.476  0.00  0.00     0.078 H 
ATOM     28  H13 BGC d          56.843  46.512  38.880  0.00  0.00     0.078 H 
BRANCH  26  29
ATOM     29  O6  BGC d          58.389  45.154  39.068  0.00  0.00    -0.398 OA
ATOM     30  H19 BGC d          57.820  44.661  39.647  0.00  0.00     0.209 HD
ENDBRANCH  26  29
ENDBRANCH  14  26
BRANCH  21  31
ATOM     31  O3  BGC d          61.939  47.294  36.176  0.00  0.00    -0.391 OA
ATOM     32  H20 BGC d          62.145  46.468  36.597  0.00  0.00     0.210 HD
ENDBRANCH  21  31
ENDBRANCH  12  13
ENDBRANCH   5  12
BRANCH   1  33
ATOM     33  O2  BGC d          58.630  43.365  34.608  0.00  0.00    -0.388 OA
ATOM     34  H8  BGC d          58.064  43.857  35.191  0.00  0.00     0.210 HD
ENDBRANCH   1  33
BRANCH   2  35
ATOM     35  O3  BGC d          60.738  41.514  33.895  0.00  0.00    -0.390 OA
ATOM     36  H9  BGC d          60.869  42.150  33.201  0.00  0.00     0.210 HD
ENDBRANCH   2  35
BRANCH   4  37
ATOM     37  C6  BGC d          63.436  43.458  37.580  0.00  0.00     0.043 C 
ATOM     38  H5  BGC d          64.109  42.610  37.387  0.00  0.00     0.078 H 
ATOM     39  H6  BGC d          63.329  43.601  38.665  0.00  0.00     0.078 H 
BRANCH  37  40
ATOM     40  O6  BGC d          63.967  44.634  36.993  0.00  0.00    -0.398 OA
ATOM     41  H11 BGC d          63.826  45.370  37.578  0.00  0.00     0.209 HD
ENDBRANCH  37  40
ENDBRANCH   4  37
BRANCH   3  42
ATOM     42  O4  BGC d          62.726  41.100  35.932  0.00  0.00    -0.390 OA
ATOM     43  H10 BGC d          62.052  40.457  36.117  0.00  0.00     0.210 HD
ENDBRANCH   3  42
TORSDOF 10
ENDMDL
MODEL 3
REMARK VINA RESULT:      -5.4      2.706      5.766
REMARK  10 active torsions:
REMARK  status: ('A' for Active; 'I' for Inactive)
REMARK    1  A    between atoms: C2_1  and  O2_7 
REMARK    2  A    between atoms: C3_2  and  O3_8 
REMARK    3  A    between atoms: C4_3  and  O4_9 
REMARK    4  A    between atoms: C5_4  and  C6_5 
REMARK    5  A    between atoms: C6_5  and  O6_11 
REMARK    6  A    between atoms: O4_19  and  C1_6 
REMARK    7  A    between atoms: C5_13  and  C6_12 
REMARK    8  A    between atoms: C6_12  and  O6_17 
REMARK    9  A    between atoms: C4_14  and  O4_19 
REMARK   10  A    between atoms: C3_15  and  O3_20 
ROOT
ATOM      1  C2  BGC d          61.248  45.166  36.612  0.00  0.00     0.110 C 
ATOM      2  C3  BGC d          61.699  43.927  35.823  0.00  0.00     0.092 C 
ATOM      3  C4  BGC d          61.860  42.711  36.738  0.00  0.00     0.090 C 
ATOM      4  C5  BGC d          60.571  42.512  37.534  0.00  0.00     0.089 C 
ATOM      5  C1  BGC d          60.006  44.835  37.427  0.00  0.00     0.159 C 
ATOM      6  O5  BGC d          60.306  43.717  38.261  0.00  0.00    -0.348 OA
ATOM      7  H1  BGC d          62.054  45.446  37.305  0.00  0.00     0.094 H 
ATOM      8  H2  BGC d          60.931  43.697  35.068  0.00  0.00     0.091 H 
ATOM      9  H3  BGC d          62.691  42.895  37.435  0.00  0.00     0.091 H 
ATOM     10  H4  BGC d          59.752  42.331  36.821  0.00  0.00     0.090 H 
ATOM     11  H7  BGC d          59.138  44.643  36.780  0.00  0.00     0.133 H 
ENDROOT
BRANCH   5  12
ATOM     12  O4  BGC d          59.787  45.863  38.280  0.00  0.00    -0.348 OA
BRANCH  12  13
ATOM     13  C4  BGC d          59.163  47.033  37.768  0.00  0.00     0.097 C 
ATOM     14  C5  BGC d          59.684  48.286  38.493  0.00  0.00     0.119 C 
ATOM     15  O5  BGC d          59.033  49.435  37.957  0.00  0.00    -0.195 OA
ATOM     16  H14 BGC d          59.483  48.189  39.571  0.00  0.00     0.094 H 
ATOM     17  N1  BGC d          57.606  49.342  38.189  0.00  0.00     0.042 N 
ATOM     18  C2  BGC d          56.945  48.207  37.537  0.00  0.00     0.135 C 
ATOM     19  H21 BGC d          57.455  49.264  39.182  0.00  0.00     0.315 HD
ATOM     20  H22 BGC d          57.178  50.190  37.850  0.00  0.00     0.315 HD
ATOM     21  C3  BGC d          57.648  46.908  37.986  0.00  0.00     0.088 C 
ATOM     22  H17 BGC d          55.886  48.176  37.830  0.00  0.00     0.084 H 
ATOM     23  H18 BGC d          57.020  48.311  36.444  0.00  0.00     0.084 H 
ATOM     24  H16 BGC d          57.464  46.745  39.058  0.00  0.00     0.089 H 
ATOM     25  H15 BGC d          59.377  47.122  36.693  0.00  0.00     0.091 H 
BRANCH  14  26
ATOM     26  C6  BGC d          61.160  48.544  38.262  0.00  0.00     0.045 C 
ATOM     27  H12 BGC d          61.737  47.677  38.616  0.00  0.00     0.078 H 
ATOM     28  H13 BGC d          61.462  49.439  38.825  0.00  0.00     0.078 H 
BRANCH  26  29
ATOM     29  O6  BGC d          61.428  48.750  36.878  0.00  0.00    -0.398 OA
ATOM     30  H19 BGC d          61.524  47.909  36.447  0.00  0.00     0.209 HD
ENDBRANCH  26  29
ENDBRANCH  14  26
BRANCH  21  31
ATOM     31  O3  BGC d          57.089  45.857  37.271  0.00  0.00    -0.391 OA
ATOM     32  H20 BGC d          56.186  46.063  37.059  0.00  0.00     0.210 HD
ENDBRANCH  21  31
ENDBRANCH  12  13
ENDBRANCH   5  12
BRANCH   1  33
ATOM     33  O2  BGC d          61.005  46.266  35.753  0.00  0.00    -0.388 OA
ATOM     34  H8  BGC d          60.881  47.051  36.273  0.00  0.00     0.210 HD
ENDBRANCH   1  33
BRANCH   2  35
ATOM     35  O3  BGC d          62.928  44.185  35.160  0.00  0.00    -0.390 OA
ATOM     36  H9  BGC d          63.430  43.380  35.102  0.00  0.00     0.210 HD
ENDBRANCH   2  35
BRANCH   4  37
ATOM     37  C6  BGC d          60.609  41.348  38.509  0.00  0.00     0.043 C 
ATOM     38  H5  BGC d          60.115  40.473  38.061  0.00  0.00     0.078 H 
ATOM     39  H6  BGC d          60.089  41.625  39.438  0.00  0.00     0.078 H 
BRANCH  37  40
ATOM     40  O6  BGC d          61.963  41.040  38.792  0.00  0.00    -0.398 OA
ATOM     41  H11 BGC d          62.512  41.350  38.081  0.00  0.00     0.209 HD
ENDBRANCH  37  40
ENDBRANCH   4  37
BRANCH   3  42
ATOM     42  O4  BGC d          62.143  41.542  35.982  0.00  0.00    -0.390 OA
ATOM     43  H10 BGC d          61.943  41.701  35.067  0.00  0.00     0.210 HD
ENDBRANCH   3  42
TORSDOF 10
ENDMDL
MODEL 4
REMARK VINA RESULT:      -5.1      1.672      3.628
REMARK  10 active torsions:
REMARK  status: ('A' for Active; 'I' for Inactive)
REMARK    1  A    between atoms: C2_1  and  O2_7 
REMARK    2  A    between atoms: C3_2  and  O3_8 
REMARK    3  A    between atoms: C4_3  and  O4_9 
REMARK    4  A    between atoms: C5_4  and  C6_5 
REMARK    5  A    between atoms: C6_5  and  O6_11 
REMARK    6  A    between atoms: O4_19  and  C1_6 
REMARK    7  A    between atoms: C5_13  and  C6_12 
REMARK    8  A    between atoms: C6_12  and  O6_17 
REMARK    9  A    between atoms: C4_14  and  O4_19 
REMARK   10  A    between atoms: C3_15  and  O3_20 
ROOT
ATOM      1  C2  BGC d          58.581  46.673  37.311  0.00  0.00     0.110 C 
ATOM      2  C3  BGC d          58.893  48.164  37.103  0.00  0.00     0.092 C 
ATOM      3  C4  BGC d          60.393  48.441  37.223  0.00  0.00     0.090 C 
ATOM      4  C5  BGC d          61.151  47.505  36.282  0.00  0.00     0.089 C 
ATOM      5  C1  BGC d          59.445  45.830  36.383  0.00  0.00     0.159 C 
ATOM      6  O5  BGC d          60.811  46.157  36.628  0.00  0.00    -0.348 OA
ATOM      7  H1  BGC d          58.829  46.411  38.350  0.00  0.00     0.094 H 
ATOM      8  H2  BGC d          58.565  48.448  36.092  0.00  0.00     0.091 H 
ATOM      9  H3  BGC d          60.711  48.250  38.258  0.00  0.00     0.091 H 
ATOM     10  H4  BGC d          60.819  47.711  35.254  0.00  0.00     0.090 H 
ATOM     11  H7  BGC d          59.168  45.980  35.330  0.00  0.00     0.133 H 
ENDROOT
BRANCH   5  12
ATOM     12  O4  BGC d          59.317  44.538  36.764  0.00  0.00    -0.348 OA
BRANCH  12  13
ATOM     13  C4  BGC d          60.498  43.756  36.880  0.00  0.00     0.097 C 
ATOM     14  C5  BGC d          60.358  42.442  36.092  0.00  0.00     0.119 C 
ATOM     15  O5  BGC d          61.557  41.686  36.237  0.00  0.00    -0.195 OA
ATOM     16  H14 BGC d          59.492  41.882  36.475  0.00  0.00     0.094 H 
ATOM     17  N1  BGC d          61.761  41.353  37.632  0.00  0.00     0.042 N 
ATOM     18  C2  BGC d          61.941  42.504  38.523  0.00  0.00     0.135 C 
ATOM     19  H21 BGC d          60.958  40.834  37.950  0.00  0.00     0.315 HD
ATOM     20  H22 BGC d          62.583  40.773  37.698  0.00  0.00     0.315 HD
ATOM     21  C3  BGC d          60.724  43.440  38.366  0.00  0.00     0.088 C 
ATOM     22  H17 BGC d          62.012  42.159  39.565  0.00  0.00     0.084 H 
ATOM     23  H18 BGC d          62.862  43.042  38.252  0.00  0.00     0.084 H 
ATOM     24  H16 BGC d          59.826  42.939  38.755  0.00  0.00     0.089 H 
ATOM     25  H15 BGC d          61.354  44.324  36.487  0.00  0.00     0.091 H 
BRANCH  14  26
ATOM     26  C6  BGC d          60.219  42.651  34.597  0.00  0.00     0.045 C 
ATOM     27  H12 BGC d          60.798  43.538  34.301  0.00  0.00     0.078 H 
ATOM     28  H13 BGC d          59.158  42.808  34.352  0.00  0.00     0.078 H 
BRANCH  26  29
ATOM     29  O6  BGC d          60.701  41.517  33.880  0.00  0.00    -0.398 OA
ATOM     30  H19 BGC d          61.292  41.806  33.194  0.00  0.00     0.209 HD
ENDBRANCH  26  29
ENDBRANCH  14  26
BRANCH  21  31
ATOM     31  O3  BGC d          60.966  44.578  39.124  0.00  0.00    -0.391 OA
ATOM     32  H20 BGC d          61.495  45.186  38.621  0.00  0.00     0.210 HD
ENDBRANCH  21  31
ENDBRANCH  12  13
ENDBRANCH   5  12
BRANCH   1  33
ATOM     33  O2  BGC d          57.207  46.399  37.105  0.00  0.00    -0.388 OA
ATOM     34  H8  BGC d          57.085  45.463  36.996  0.00  0.00     0.210 HD
ENDBRANCH   1  33
BRANCH   2  35
ATOM     35  O3  BGC d          58.190  48.952  38.051  0.00  0.00    -0.390 OA
ATOM     36  H9  BGC d          57.258  48.789  37.968  0.00  0.00     0.210 HD
ENDBRANCH   2  35
BRANCH   4  37
ATOM     37  C6  BGC d          62.662  47.658  36.327  0.00  0.00     0.043 C 
ATOM     38  H5  BGC d          62.976  48.442  35.622  0.00  0.00     0.078 H 
ATOM     39  H6  BGC d          63.139  46.706  36.053  0.00  0.00     0.078 H 
BRANCH  37  40
ATOM     40  O6  BGC d          63.040  48.021  37.644  0.00  0.00    -0.398 OA
ATOM     41  H11 BGC d          62.388  47.703  38.258  0.00  0.00     0.209 HD
ENDBRANCH  37  40
ENDBRANCH   4  37
BRANCH   3  42
ATOM     42  O4  BGC d          60.686  49.793  36.894  0.00  0.00    -0.390 OA
ATOM     43  H10 BGC d          61.513  49.833  36.429  0.00  0.00     0.210 HD
ENDBRANCH   3  42
TORSDOF 10
ENDMDL
MODEL 5
REMARK VINA RESULT:      -5.1      2.480      5.809
REMARK  10 active torsions:
REMARK  status: ('A' for Active; 'I' for Inactive)
REMARK    1  A    between atoms: C2_1  and  O2_7 
REMARK    2  A    between atoms: C3_2  and  O3_8 
REMARK    3  A    between atoms: C4_3  and  O4_9 
REMARK    4  A    between atoms: C5_4  and  C6_5 
REMARK    5  A    between atoms: C6_5  and  O6_11 
REMARK    6  A    between atoms: O4_19  and  C1_6 
REMARK    7  A    between atoms: C5_13  and  C6_12 
REMARK    8  A    between atoms: C6_12  and  O6_17 
REMARK    9  A    between atoms: C4_14  and  O4_19 
REMARK   10  A    between atoms: C3_15  and  O3_20 
ROOT
ATOM      1  C2  BGC d          61.400  43.670  38.081  0.00  0.00     0.110 C 
ATOM      2  C3  BGC d          62.192  42.615  37.293  0.00  0.00     0.092 C 
ATOM      3  C4  BGC d          61.389  42.093  36.100  0.00  0.00     0.090 C 
ATOM      4  C5  BGC d          60.916  43.278  35.259  0.00  0.00     0.089 C 
ATOM      5  C1  BGC d          60.911  44.760  37.138  0.00  0.00     0.159 C 
ATOM      6  O5  BGC d          60.147  44.143  36.103  0.00  0.00    -0.348 OA
ATOM      7  H1  BGC d          60.524  43.180  38.530  0.00  0.00     0.094 H 
ATOM      8  H2  BGC d          63.114  43.083  36.916  0.00  0.00     0.091 H 
ATOM      9  H3  BGC d          60.514  41.540  36.471  0.00  0.00     0.091 H 
ATOM     10  H4  BGC d          61.804  43.819  34.898  0.00  0.00     0.090 H 
ATOM     11  H7  BGC d          61.747  45.350  36.736  0.00  0.00     0.133 H 
ENDROOT
BRANCH   5  12
ATOM     12  O4  BGC d          60.028  45.528  37.819  0.00  0.00    -0.348 OA
BRANCH  12  13
ATOM     13  C4  BGC d          59.619  46.756  37.231  0.00  0.00     0.097 C 
ATOM     14  C5  BGC d          60.435  47.928  37.802  0.00  0.00     0.119 C 
ATOM     15  O5  BGC d          59.994  49.138  37.192  0.00  0.00    -0.195 OA
ATOM     16  H14 BGC d          60.299  47.966  38.893  0.00  0.00     0.094 H 
ATOM     17  N1  BGC d          58.599  49.366  37.511  0.00  0.00     0.042 N 
ATOM     18  C2  BGC d          57.675  48.344  37.009  0.00  0.00     0.135 C 
ATOM     19  H21 BGC d          58.509  49.405  38.514  0.00  0.00     0.315 HD
ATOM     20  H22 BGC d          58.329  50.254  37.115  0.00  0.00     0.315 HD
ATOM     21  C3  BGC d          58.130  46.968  37.543  0.00  0.00     0.088 C 
ATOM     22  H17 BGC d          56.656  48.559  37.362  0.00  0.00     0.084 H 
ATOM     23  H18 BGC d          57.689  48.338  35.909  0.00  0.00     0.084 H 
ATOM     24  H16 BGC d          57.996  46.938  38.634  0.00  0.00     0.089 H 
ATOM     25  H15 BGC d          59.766  46.708  36.142  0.00  0.00     0.091 H 
BRANCH  14  26
ATOM     26  C6  BGC d          61.912  47.851  37.466  0.00  0.00     0.045 C 
ATOM     27  H12 BGC d          62.311  46.888  37.817  0.00  0.00     0.078 H 
ATOM     28  H13 BGC d          62.440  48.673  37.972  0.00  0.00     0.078 H 
BRANCH  26  29
ATOM     29  O6  BGC d          62.119  47.959  36.060  0.00  0.00    -0.398 OA
ATOM     30  H19 BGC d          61.740  48.771  35.747  0.00  0.00     0.209 HD
ENDBRANCH  26  29
ENDBRANCH  14  26
BRANCH  21  31
ATOM     31  O3  BGC d          57.318  46.002  36.965  0.00  0.00    -0.391 OA
ATOM     32  H20 BGC d          56.478  46.386  36.745  0.00  0.00     0.210 HD
ENDBRANCH  21  31
ENDBRANCH  12  13
ENDBRANCH   5  12
BRANCH   1  33
ATOM     33  O2  BGC d          62.177  44.225  39.128  0.00  0.00    -0.388 OA
ATOM     34  H8  BGC d          62.113  43.670  39.896  0.00  0.00     0.210 HD
ENDBRANCH   1  33
BRANCH   2  35
ATOM     35  O3  BGC d          62.542  41.529  38.137  0.00  0.00    -0.390 OA
ATOM     36  H9  BGC d          62.969  41.861  38.919  0.00  0.00     0.210 HD
ENDBRANCH   2  35
BRANCH   4  37
ATOM     37  C6  BGC d          60.077  42.897  34.051  0.00  0.00     0.043 C 
ATOM     38  H5  BGC d          60.701  42.917  33.146  0.00  0.00     0.078 H 
ATOM     39  H6  BGC d          59.246  43.607  33.939  0.00  0.00     0.078 H 
BRANCH  37  40
ATOM     40  O6  BGC d          59.566  41.590  34.252  0.00  0.00    -0.398 OA
ATOM     41  H11 BGC d          58.842  41.439  33.654  0.00  0.00     0.209 HD
ENDBRANCH  37  40
ENDBRANCH   4  37
BRANCH   3  42
ATOM     42  O4  BGC d          62.179  41.222  35.300  0.00  0.00    -0.390 OA
ATOM     43  H10 BGC d          63.097  41.345  35.511  0.00  0.00     0.210 HD
ENDBRANCH   3  42
TORSDOF 10
ENDMDL
MODEL 6
REMARK VINA RESULT:      -4.8      1.583      3.161
REMARK  10 active torsions:
REMARK  status: ('A' for Active; 'I' for Inactive)
REMARK    1  A    between atoms: C2_1  and  O2_7 
REMARK    2  A    between atoms: C3_2  and  O3_8 
REMARK    3  A    between atoms: C4_3  and  O4_9 
REMARK    4  A    between atoms: C5_4  and  C6_5 
REMARK    5  A    between atoms: C6_5  and  O6_11 
REMARK    6  A    between atoms: O4_19  and  C1_6 
REMARK    7  A    between atoms: C5_13  and  C6_12 
REMARK    8  A    between atoms: C6_12  and  O6_17 
REMARK    9  A    between atoms: C4_14  and  O4_19 
REMARK   10  A    between atoms: C3_15  and  O3_20 
ROOT
ATOM      1  C2  BGC d          58.647  46.443  37.557  0.00  0.00     0.110 C 
ATOM      2  C3  BGC d          58.961  47.879  37.109  0.00  0.00     0.092 C 
ATOM      3  C4  BGC d          60.432  48.227  37.345  0.00  0.00     0.090 C 
ATOM      4  C5  BGC d          61.308  47.160  36.688  0.00  0.00     0.089 C 
ATOM      5  C1  BGC d          59.625  45.474  36.907  0.00  0.00     0.159 C 
ATOM      6  O5  BGC d          60.949  45.889  37.240  0.00  0.00    -0.348 OA
ATOM      7  H1  BGC d          58.774  46.386  38.647  0.00  0.00     0.094 H 
ATOM      8  H2  BGC d          58.751  47.961  36.032  0.00  0.00     0.091 H 
ATOM      9  H3  BGC d          60.629  48.241  38.427  0.00  0.00     0.091 H 
ATOM     10  H4  BGC d          61.098  47.160  35.608  0.00  0.00     0.090 H 
ATOM     11  H7  BGC d          59.473  45.417  35.820  0.00  0.00     0.133 H 
ENDROOT
BRANCH   5  12
ATOM     12  O4  BGC d          59.470  44.270  37.506  0.00  0.00    -0.348 OA
BRANCH  12  13
ATOM     13  C4  BGC d          59.984  43.123  36.843  0.00  0.00     0.097 C 
ATOM     14  C5  BGC d          61.289  42.651  37.507  0.00  0.00     0.119 C 
ATOM     15  O5  BGC d          61.773  41.505  36.813  0.00  0.00    -0.195 OA
ATOM     16  H14 BGC d          62.025  43.468  37.477  0.00  0.00     0.094 H 
ATOM     17  N1  BGC d          62.070  41.854  35.439  0.00  0.00     0.042 N 
ATOM     18  C2  BGC d          60.917  42.302  34.651  0.00  0.00     0.135 C 
ATOM     19  H21 BGC d          62.752  42.597  35.445  0.00  0.00     0.315 HD
ATOM     20  H22 BGC d          62.462  41.042  34.987  0.00  0.00     0.315 HD
ATOM     21  C3  BGC d          60.260  43.494  35.378  0.00  0.00     0.088 C 
ATOM     22  H17 BGC d          61.250  42.615  33.651  0.00  0.00     0.084 H 
ATOM     23  H18 BGC d          60.192  41.480  34.555  0.00  0.00     0.084 H 
ATOM     24  H16 BGC d          60.945  44.355  35.361  0.00  0.00     0.089 H 
ATOM     25  H15 BGC d          59.242  42.312  36.886  0.00  0.00     0.091 H 
BRANCH  14  26
ATOM     26  C6  BGC d          61.099  42.178  38.935  0.00  0.00     0.045 C 
ATOM     27  H12 BGC d          60.022  42.123  39.156  0.00  0.00     0.078 H 
ATOM     28  H13 BGC d          61.577  42.894  39.619  0.00  0.00     0.078 H 
BRANCH  26  29
ATOM     29  O6  BGC d          61.681  40.891  39.124  0.00  0.00    -0.398 OA
ATOM     30  H19 BGC d          62.207  40.896  39.915  0.00  0.00     0.209 HD
ENDBRANCH  26  29
ENDBRANCH  14  26
BRANCH  21  31
ATOM     31  O3  BGC d          59.105  43.828  34.684  0.00  0.00    -0.391 OA
ATOM     32  H20 BGC d          59.315  44.458  34.004  0.00  0.00     0.210 HD
ENDBRANCH  21  31
ENDBRANCH  12  13
ENDBRANCH   5  12
BRANCH   1  33
ATOM     33  O2  BGC d          57.311  46.087  37.250  0.00  0.00    -0.388 OA
ATOM     34  H8  BGC d          56.839  46.856  36.954  0.00  0.00     0.210 HD
ENDBRANCH   1  33
BRANCH   2  35
ATOM     35  O3  BGC d          58.140  48.804  37.807  0.00  0.00    -0.390 OA
ATOM     36  H9  BGC d          57.587  48.335  38.420  0.00  0.00     0.210 HD
ENDBRANCH   2  35
BRANCH   4  37
ATOM     37  C6  BGC d          62.801  47.372  36.875  0.00  0.00     0.043 C 
ATOM     38  H5  BGC d          63.224  47.843  35.975  0.00  0.00     0.078 H 
ATOM     39  H6  BGC d          63.294  46.405  37.047  0.00  0.00     0.078 H 
BRANCH  37  40
ATOM     40  O6  BGC d          63.001  48.217  37.995  0.00  0.00    -0.398 OA
ATOM     41  H11 BGC d          63.453  47.735  38.678  0.00  0.00     0.209 HD
ENDBRANCH  37  40
ENDBRANCH   4  37
BRANCH   3  42
ATOM     42  O4  BGC d          60.744  49.504  36.803  0.00  0.00    -0.390 OA
ATOM     43  H10 BGC d          61.679  49.656  36.871  0.00  0.00     0.210 HD
ENDBRANCH   3  42
TORSDOF 10
ENDMDL
MODEL 7
REMARK VINA RESULT:      -4.7      2.579      5.818
REMARK  10 active torsions:
REMARK  status: ('A' for Active; 'I' for Inactive)
REMARK    1  A    between atoms: C2_1  and  O2_7 
REMARK    2  A    between atoms: C3_2  and  O3_8 
REMARK    3  A    between atoms: C4_3  and  O4_9 
REMARK    4  A    between atoms: C5_4  and  C6_5 
REMARK    5  A    between atoms: C6_5  and  O6_11 
REMARK    6  A    between atoms: O4_19  and  C1_6 
REMARK    7  A    between atoms: C5_13  and  C6_12 
REMARK    8  A    between atoms: C6_12  and  O6_17 
REMARK    9  A    between atoms: C4_14  and  O4_19 
REMARK   10  A    between atoms: C3_15  and  O3_20 
ROOT
ATOM      1  C2  BGC d          61.817  45.248  36.860  0.00  0.00     0.110 C 
ATOM      2  C3  BGC d          62.072  43.990  36.014  0.00  0.00     0.092 C 
ATOM      3  C4  BGC d          62.014  42.722  36.868  0.00  0.00     0.090 C 
ATOM      4  C5  BGC d          60.694  42.701  37.639  0.00  0.00     0.089 C 
ATOM      5  C1  BGC d          60.523  45.088  37.644  0.00  0.00     0.159 C 
ATOM      6  O5  BGC d          60.619  43.897  38.423  0.00  0.00    -0.348 OA
ATOM      7  H1  BGC d          62.645  45.356  37.575  0.00  0.00     0.094 H 
ATOM      8  H2  BGC d          61.292  43.928  35.241  0.00  0.00     0.091 H 
ATOM      9  H3  BGC d          62.850  42.732  37.582  0.00  0.00     0.091 H 
ATOM     10  H4  BGC d          59.871  42.693  36.909  0.00  0.00     0.090 H 
ATOM     11  H7  BGC d          59.648  45.074  36.978  0.00  0.00     0.133 H 
ENDROOT
BRANCH   5  12
ATOM     12  O4  BGC d          60.460  46.096  38.545  0.00  0.00    -0.348 OA
BRANCH  12  13
ATOM     13  C4  BGC d          59.483  47.109  38.348  0.00  0.00     0.097 C 
ATOM     14  C5  BGC d          58.119  46.486  38.002  0.00  0.00     0.119 C 
ATOM     15  O5  BGC d          57.170  47.531  37.808  0.00  0.00    -0.195 OA
ATOM     16  H14 BGC d          58.222  45.875  37.092  0.00  0.00     0.094 H 
ATOM     17  N1  BGC d          57.578  48.364  36.696  0.00  0.00     0.042 N 
ATOM     18  C2  BGC d          58.857  49.058  36.879  0.00  0.00     0.135 C 
ATOM     19  H21 BGC d          57.654  47.779  35.878  0.00  0.00     0.315 HD
ATOM     20  H22 BGC d          56.863  49.059  36.546  0.00  0.00     0.315 HD
ATOM     21  C3  BGC d          59.944  48.008  37.191  0.00  0.00     0.088 C 
ATOM     22  H17 BGC d          59.119  49.602  35.960  0.00  0.00     0.084 H 
ATOM     23  H18 BGC d          58.776  49.769  37.715  0.00  0.00     0.084 H 
ATOM     24  H16 BGC d          60.108  47.377  36.305  0.00  0.00     0.089 H 
ATOM     25  H15 BGC d          59.385  47.707  39.266  0.00  0.00     0.091 H 
BRANCH  14  26
ATOM     26  C6  BGC d          57.539  45.649  39.125  0.00  0.00     0.045 C 
ATOM     27  H12 BGC d          56.443  45.630  39.031  0.00  0.00     0.078 H 
ATOM     28  H13 BGC d          57.816  46.098  40.089  0.00  0.00     0.078 H 
BRANCH  26  29
ATOM     29  O6  BGC d          58.036  44.314  39.071  0.00  0.00    -0.398 OA
ATOM     30  H19 BGC d          57.326  43.706  39.240  0.00  0.00     0.209 HD
ENDBRANCH  26  29
ENDBRANCH  14  26
BRANCH  21  31
ATOM     31  O3  BGC d          61.119  48.690  37.479  0.00  0.00    -0.391 OA
ATOM     32  H20 BGC d          61.551  48.278  38.218  0.00  0.00     0.210 HD
ENDBRANCH  21  31
ENDBRANCH  12  13
ENDBRANCH   5  12
BRANCH   1  33
ATOM     33  O2  BGC d          61.775  46.413  36.055  0.00  0.00    -0.388 OA
ATOM     34  H8  BGC d          62.343  47.075  36.430  0.00  0.00     0.210 HD
ENDBRANCH   1  33
BRANCH   2  35
ATOM     35  O3  BGC d          63.340  44.072  35.379  0.00  0.00    -0.390 OA
ATOM     36  H9  BGC d          63.566  44.985  35.243  0.00  0.00     0.210 HD
ENDBRANCH   2  35
BRANCH   4  37
ATOM     37  C6  BGC d          60.521  41.501  38.554  0.00  0.00     0.043 C 
ATOM     38  H5  BGC d          59.942  40.721  38.038  0.00  0.00     0.078 H 
ATOM     39  H6  BGC d          59.990  41.806  39.468  0.00  0.00     0.078 H 
BRANCH  37  40
ATOM     40  O6  BGC d          61.804  41.001  38.891  0.00  0.00    -0.398 OA
ATOM     41  H11 BGC d          62.177  40.558  38.137  0.00  0.00     0.209 HD
ENDBRANCH  37  40
ENDBRANCH   4  37
BRANCH   3  42
ATOM     42  O4  BGC d          62.114  41.560  36.056  0.00  0.00    -0.390 OA
ATOM     43  H10 BGC d          61.374  41.525  35.461  0.00  0.00     0.210 HD
ENDBRANCH   3  42
TORSDOF 10
ENDMDL
MODEL 8
REMARK VINA RESULT:      -4.6      1.868      2.692
REMARK  10 active torsions:
REMARK  status: ('A' for Active; 'I' for Inactive)
REMARK    1  A    between atoms: C2_1  and  O2_7 
REMARK    2  A    between atoms: C3_2  and  O3_8 
REMARK    3  A    between atoms: C4_3  and  O4_9 
REMARK    4  A    between atoms: C5_4  and  C6_5 
REMARK    5  A    between atoms: C6_5  and  O6_11 
REMARK    6  A    between atoms: O4_19  and  C1_6 
REMARK    7  A    between atoms: C5_13  and  C6_12 
REMARK    8  A    between atoms: C6_12  and  O6_17 
REMARK    9  A    between atoms: C4_14  and  O4_19 
REMARK   10  A    between atoms: C3_15  and  O3_20 
ROOT
ATOM      1  C2  BGC d          61.227  46.112  36.386  0.00  0.00     0.110 C 
ATOM      2  C3  BGC d          61.453  47.497  37.012  0.00  0.00     0.092 C 
ATOM      3  C4  BGC d          60.128  48.226  37.245  0.00  0.00     0.090 C 
ATOM      4  C5  BGC d          59.195  47.320  38.048  0.00  0.00     0.089 C 
ATOM      5  C1  BGC d          60.225  45.326  37.220  0.00  0.00     0.159 C 
ATOM      6  O5  BGC d          59.029  46.097  37.322  0.00  0.00    -0.348 OA
ATOM      7  H1  BGC d          60.807  46.252  35.380  0.00  0.00     0.094 H 
ATOM      8  H2  BGC d          61.953  47.361  37.983  0.00  0.00     0.091 H 
ATOM      9  H3  BGC d          59.666  48.451  36.273  0.00  0.00     0.091 H 
ATOM     10  H4  BGC d          59.673  47.106  39.016  0.00  0.00     0.090 H 
ATOM     11  H7  BGC d          60.635  45.070  38.208  0.00  0.00     0.133 H 
ENDROOT
BRANCH   5  12
ATOM     12  O4  BGC d          59.876  44.225  36.514  0.00  0.00    -0.348 OA
BRANCH  12  13
ATOM     13  C4  BGC d          60.492  42.990  36.855  0.00  0.00     0.097 C 
ATOM     14  C5  BGC d          60.659  42.871  38.380  0.00  0.00     0.119 C 
ATOM     15  O5  BGC d          61.282  41.624  38.680  0.00  0.00    -0.195 OA
ATOM     16  H14 BGC d          61.269  43.711  38.742  0.00  0.00     0.094 H 
ATOM     17  N1  BGC d          62.599  41.577  38.079  0.00  0.00     0.042 N 
ATOM     18  C2  BGC d          62.614  41.652  36.614  0.00  0.00     0.135 C 
ATOM     19  H21 BGC d          63.134  42.352  38.438  0.00  0.00     0.315 HD
ATOM     20  H22 BGC d          63.037  40.711  38.353  0.00  0.00     0.315 HD
ATOM     21  C3  BGC d          61.871  42.935  36.182  0.00  0.00     0.088 C 
ATOM     22  H17 BGC d          63.652  41.686  36.255  0.00  0.00     0.084 H 
ATOM     23  H18 BGC d          62.109  40.771  36.192  0.00  0.00     0.084 H 
ATOM     24  H16 BGC d          62.448  43.815  36.500  0.00  0.00     0.089 H 
ATOM     25  H15 BGC d          59.869  42.158  36.492  0.00  0.00     0.091 H 
BRANCH  14  26
ATOM     26  C6  BGC d          59.341  42.826  39.127  0.00  0.00     0.045 C 
ATOM     27  H12 BGC d          59.525  42.514  40.165  0.00  0.00     0.078 H 
ATOM     28  H13 BGC d          58.675  42.100  38.639  0.00  0.00     0.078 H 
BRANCH  26  29
ATOM     29  O6  BGC d          58.715  44.106  39.128  0.00  0.00    -0.398 OA
ATOM     30  H19 BGC d          58.421  44.313  40.007  0.00  0.00     0.209 HD
ENDBRANCH  26  29
ENDBRANCH  14  26
BRANCH  21  31
ATOM     31  O3  BGC d          61.791  42.929  34.796  0.00  0.00    -0.391 OA
ATOM     32  H20 BGC d          61.461  43.768  34.495  0.00  0.00     0.210 HD
ENDBRANCH  21  31
ENDBRANCH  12  13
ENDBRANCH   5  12
BRANCH   1  33
ATOM     33  O2  BGC d          62.443  45.397  36.259  0.00  0.00    -0.388 OA
ATOM     34  H8  BGC d          63.083  45.752  36.865  0.00  0.00     0.210 HD
ENDBRANCH   1  33
BRANCH   2  35
ATOM     35  O3  BGC d          62.285  48.287  36.175  0.00  0.00    -0.390 OA
ATOM     36  H9  BGC d          62.719  48.951  36.698  0.00  0.00     0.210 HD
ENDBRANCH   2  35
BRANCH   4  37
ATOM     37  C6  BGC d          57.825  47.917  38.325  0.00  0.00     0.043 C 
ATOM     38  H5  BGC d          57.781  48.278  39.363  0.00  0.00     0.078 H 
ATOM     39  H6  BGC d          57.050  47.153  38.170  0.00  0.00     0.078 H 
BRANCH  37  40
ATOM     40  O6  BGC d          57.616  48.999  37.433  0.00  0.00    -0.398 OA
ATOM     41  H11 BGC d          58.352  49.062  36.836  0.00  0.00     0.209 HD
ENDBRANCH  37  40
ENDBRANCH   4  37
BRANCH   3  42
ATOM     42  O4  BGC d          60.337  49.444  37.948  0.00  0.00    -0.390 OA
ATOM     43  H10 BGC d          61.262  49.545  38.136  0.00  0.00     0.210 HD
ENDBRANCH   3  42
TORSDOF 10
ENDMDL
MODEL 9
REMARK VINA RESULT:      -4.2      2.215      5.741
REMARK  10 active torsions:
REMARK  status: ('A' for Active; 'I' for Inactive)
REMARK    1  A    between atoms: C2_1  and  O2_7 
REMARK    2  A    between atoms: C3_2  and  O3_8 
REMARK    3  A    between atoms: C4_3  and  O4_9 
REMARK    4  A    between atoms: C5_4  and  C6_5 
REMARK    5  A    between atoms: C6_5  and  O6_11 
REMARK    6  A    between atoms: O4_19  and  C1_6 
REMARK    7  A    between atoms: C5_13  and  C6_12 
REMARK    8  A    between atoms: C6_12  and  O6_17 
REMARK    9  A    between atoms: C4_14  and  O4_19 
REMARK   10  A    between atoms: C3_15  and  O3_20 
ROOT
ATOM      1  C2  BGC d          60.098  43.570  35.017  0.00  0.00     0.110 C 
ATOM      2  C3  BGC d          60.523  42.190  35.542  0.00  0.00     0.092 C 
ATOM      3  C4  BGC d          61.825  42.275  36.341  0.00  0.00     0.090 C 
ATOM      4  C5  BGC d          61.675  43.339  37.428  0.00  0.00     0.089 C 
ATOM      5  C1  BGC d          60.057  44.569  36.165  0.00  0.00     0.159 C 
ATOM      6  O5  BGC d          61.338  44.578  36.793  0.00  0.00    -0.348 OA
ATOM      7  H1  BGC d          60.849  43.908  34.289  0.00  0.00     0.094 H 
ATOM      8  H2  BGC d          59.730  41.811  36.205  0.00  0.00     0.091 H 
ATOM      9  H3  BGC d          62.644  42.561  35.664  0.00  0.00     0.091 H 
ATOM     10  H4  BGC d          60.853  43.036  38.093  0.00  0.00     0.090 H 
ATOM     11  H7  BGC d          59.252  44.332  36.876  0.00  0.00     0.133 H 
ENDROOT
BRANCH   5  12
ATOM     12  O4  BGC d          59.916  45.804  35.630  0.00  0.00    -0.348 OA
BRANCH  12  13
ATOM     13  C4  BGC d          59.770  46.904  36.518  0.00  0.00     0.097 C 
ATOM     14  C5  BGC d          61.091  47.185  37.255  0.00  0.00     0.119 C 
ATOM     15  O5  BGC d          60.903  48.289  38.136  0.00  0.00    -0.195 OA
ATOM     16  H14 BGC d          61.393  46.286  37.811  0.00  0.00     0.094 H 
ATOM     17  N1  BGC d          59.899  47.959  39.127  0.00  0.00     0.042 N 
ATOM     18  C2  BGC d          58.562  47.687  38.587  0.00  0.00     0.135 C 
ATOM     19  H21 BGC d          60.208  47.138  39.624  0.00  0.00     0.315 HD
ATOM     20  H22 BGC d          59.826  48.733  39.769  0.00  0.00     0.315 HD
ATOM     21  C3  BGC d          58.677  46.558  37.540  0.00  0.00     0.088 C 
ATOM     22  H17 BGC d          57.891  47.373  39.399  0.00  0.00     0.084 H 
ATOM     23  H18 BGC d          58.163  48.595  38.111  0.00  0.00     0.084 H 
ATOM     24  H16 BGC d          58.957  45.621  38.044  0.00  0.00     0.089 H 
ATOM     25  H15 BGC d          59.475  47.798  35.949  0.00  0.00     0.091 H 
BRANCH  14  26
ATOM     26  C6  BGC d          62.211  47.624  36.332  0.00  0.00     0.045 C 
ATOM     27  H12 BGC d          62.361  48.709  36.436  0.00  0.00     0.078 H 
ATOM     28  H13 BGC d          61.934  47.391  35.293  0.00  0.00     0.078 H 
BRANCH  26  29
ATOM     29  O6  BGC d          63.426  46.952  36.653  0.00  0.00    -0.398 OA
ATOM     30  H19 BGC d          63.938  47.491  37.244  0.00  0.00     0.209 HD
ENDBRANCH  26  29
ENDBRANCH  14  26
BRANCH  21  31
ATOM     31  O3  BGC d          57.428  46.396  36.956  0.00  0.00    -0.391 OA
ATOM     32  H20 BGC d          56.778  46.865  37.465  0.00  0.00     0.210 HD
ENDBRANCH  21  31
ENDBRANCH  12  13
ENDBRANCH   5  12
BRANCH   1  33
ATOM     33  O2  BGC d          58.844  43.509  34.360  0.00  0.00    -0.388 OA
ATOM     34  H8  BGC d          58.154  43.717  34.978  0.00  0.00     0.210 HD
ENDBRANCH   1  33
BRANCH   2  35
ATOM     35  O3  BGC d          60.691  41.282  34.464  0.00  0.00    -0.390 OA
ATOM     36  H9  BGC d          60.517  40.397  34.765  0.00  0.00     0.210 HD
ENDBRANCH   2  35
BRANCH   4  37
ATOM     37  C6  BGC d          62.916  43.546  38.280  0.00  0.00     0.043 C 
ATOM     38  H5  BGC d          63.095  42.653  38.896  0.00  0.00     0.078 H 
ATOM     39  H6  BGC d          62.775  44.419  38.933  0.00  0.00     0.078 H 
BRANCH  37  40
ATOM     40  O6  BGC d          64.022  43.765  37.421  0.00  0.00    -0.398 OA
ATOM     41  H11 BGC d          64.669  43.083  37.560  0.00  0.00     0.209 HD
ENDBRANCH  37  40
ENDBRANCH   4  37
BRANCH   3  42
ATOM     42  O4  BGC d          62.137  41.022  36.937  0.00  0.00    -0.390 OA
ATOM     43  H10 BGC d          61.378  40.699  37.408  0.00  0.00     0.210 HD
ENDBRANCH   3  42
TORSDOF 10
ENDMDL
MODEL 10
REMARK VINA RESULT:      -4.1      2.782      6.054
REMARK  10 active torsions:
REMARK  status: ('A' for Active; 'I' for Inactive)
REMARK    1  A    between atoms: C2_1  and  O2_7 
REMARK    2  A    between atoms: C3_2  and  O3_8 
REMARK    3  A    between atoms: C4_3  and  O4_9 
REMARK    4  A    between atoms: C5_4  and  C6_5 
REMARK    5  A    between atoms: C6_5  and  O6_11 
REMARK    6  A    between atoms: O4_19  and  C1_6 
REMARK    7  A    between atoms: C5_13  and  C6_12 
REMARK    8  A    between atoms: C6_12  and  O6_17 
REMARK    9  A    between atoms: C4_14  and  O4_19 
REMARK   10  A    between atoms: C3_15  and  O3_20 
ROOT
ATOM      1  C2  BGC d          59.138  43.934  38.181  0.00  0.00     0.110 C 
ATOM      2  C3  BGC d          59.994  42.866  38.881  0.00  0.00     0.092 C 
ATOM      3  C4  BGC d          61.225  42.505  38.048  0.00  0.00     0.090 C 
ATOM      4  C5  BGC d          61.983  43.785  37.698  0.00  0.00     0.089 C 
ATOM      5  C1  BGC d          60.005  45.127  37.806  0.00  0.00     0.159 C 
ATOM      6  O5  BGC d          61.085  44.657  37.002  0.00  0.00    -0.348 OA
ATOM      7  H1  BGC d          58.730  43.497  37.257  0.00  0.00     0.094 H 
ATOM      8  H2  BGC d          60.331  43.271  39.847  0.00  0.00     0.091 H 
ATOM      9  H3  BGC d          60.899  42.012  37.121  0.00  0.00     0.091 H 
ATOM     10  H4  BGC d          62.300  44.264  38.636  0.00  0.00     0.090 H 
ATOM     11  H7  BGC d          60.360  45.663  38.699  0.00  0.00     0.133 H 
ENDROOT
BRANCH   5  12
ATOM     12  O4  BGC d          59.277  45.925  36.991  0.00  0.00    -0.348 OA
BRANCH  12  13
ATOM     13  C4  BGC d          59.171  47.302  37.324  0.00  0.00     0.097 C 
ATOM     14  C5  BGC d          60.566  47.941  37.439  0.00  0.00     0.119 C 
ATOM     15  O5  BGC d          60.418  49.317  37.777  0.00  0.00    -0.195 OA
ATOM     16  H14 BGC d          61.145  47.408  38.207  0.00  0.00     0.094 H 
ATOM     17  N1  BGC d          59.762  49.438  39.063  0.00  0.00     0.042 N 
ATOM     18  C2  BGC d          58.400  48.897  39.116  0.00  0.00     0.135 C 
ATOM     19  H21 BGC d          60.320  48.948  39.745  0.00  0.00     0.315 HD
ATOM     20  H22 BGC d          59.721  50.416  39.302  0.00  0.00     0.315 HD
ATOM     21  C3  BGC d          58.441  47.420  38.670  0.00  0.00     0.088 C 
ATOM     22  H17 BGC d          58.014  48.964  40.143  0.00  0.00     0.084 H 
ATOM     23  H18 BGC d          57.747  49.471  38.441  0.00  0.00     0.084 H 
ATOM     24  H16 BGC d          58.992  46.829  39.416  0.00  0.00     0.089 H 
ATOM     25  H15 BGC d          58.597  47.825  36.544  0.00  0.00     0.091 H 
BRANCH  14  26
ATOM     26  C6  BGC d          61.331  47.952  36.130  0.00  0.00     0.045 C 
ATOM     27  H12 BGC d          61.829  48.926  36.011  0.00  0.00     0.078 H 
ATOM     28  H13 BGC d          60.627  47.797  35.300  0.00  0.00     0.078 H 
BRANCH  26  29
ATOM     29  O6  BGC d          62.313  46.919  36.107  0.00  0.00    -0.398 OA
ATOM     30  H19 BGC d          61.926  46.124  35.762  0.00  0.00     0.209 HD
ENDBRANCH  26  29
ENDBRANCH  14  26
BRANCH  21  31
ATOM     31  O3  BGC d          57.133  46.960  38.612  0.00  0.00    -0.391 OA
ATOM     32  H20 BGC d          56.966  46.387  39.351  0.00  0.00     0.210 HD
ENDBRANCH  21  31
ENDBRANCH  12  13
ENDBRANCH   5  12
BRANCH   1  33
ATOM     33  O2  BGC d          58.050  44.339  38.993  0.00  0.00    -0.388 OA
ATOM     34  H8  BGC d          57.240  44.007  38.625  0.00  0.00     0.210 HD
ENDBRANCH   1  33
BRANCH   2  35
ATOM     35  O3  BGC d          59.226  41.696  39.119  0.00  0.00    -0.390 OA
ATOM     36  H9  BGC d          58.345  41.824  38.786  0.00  0.00     0.210 HD
ENDBRANCH   2  35
BRANCH   4  37
ATOM     37  C6  BGC d          63.219  43.568  36.841  0.00  0.00     0.043 C 
ATOM     38  H5  BGC d          63.531  42.515  36.901  0.00  0.00     0.078 H 
ATOM     39  H6  BGC d          64.036  44.212  37.200  0.00  0.00     0.078 H 
BRANCH  37  40
ATOM     40  O6  BGC d          62.903  43.899  35.500  0.00  0.00    -0.398 OA
ATOM     41  H11 BGC d          62.112  44.425  35.483  0.00  0.00     0.209 HD
ENDBRANCH  37  40
ENDBRANCH   4  37
BRANCH   3  42
ATOM     42  O4  BGC d          62.079  41.622  38.763  0.00  0.00    -0.390 OA
ATOM     43  H10 BGC d          62.776  42.120  39.174  0.00  0.00     0.210 HD
ENDBRANCH   3  42
TORSDOF 10
ENDMDL
