MODEL 1
REMARK VINA RESULT:      -8.0      0.000      0.000
REMARK  3 active torsions:
REMARK  status: ('A' for Active; 'I' for Inactive)
REMARK    1  A    between atoms: C1'_19  and  C2_1 
REMARK    2  A    between atoms: C6_5  and  O5_12 
REMARK    3  A    between atoms: C8_7  and  O7_13 
ROOT
ATOM      1  C2  MOL d          21.455  -0.275  -5.880  0.00  0.00     0.090 A 
ATOM      2  C3  MOL d          21.838  -1.438  -6.537  0.00  0.00    -0.000 A 
ATOM      3  C4  MOL d          21.859  -1.472  -7.920  0.00  0.00     0.190 A 
ATOM      4  C5  MOL d          21.494  -0.332  -8.617  0.00  0.00     0.081 A 
ATOM      5  C6  MOL d          21.506  -0.338 -10.007  0.00  0.00     0.085 A 
ATOM      6  C7  MOL d          21.140   0.803 -10.711  0.00  0.00    -0.018 A 
ATOM      7  C8  MOL d          20.763   1.949 -10.021  0.00  0.00     0.071 A 
ATOM      8  C9  MOL d          20.752   1.951  -8.631  0.00  0.00    -0.017 A 
ATOM      9  C10 MOL d          21.117   0.813  -7.922  0.00  0.00     0.095 A 
ATOM     10  O1  MOL d          21.092   0.857  -6.556  0.00  0.00    -0.309 OA
ATOM     11  O4  MOL d          22.195  -2.492  -8.518  0.00  0.00    -0.287 OA
ATOM     12  H1  MOL d          22.121  -2.321  -5.965  0.00  0.00     0.094 H 
ATOM     13  H2  MOL d          21.148   0.799 -11.795  0.00  0.00     0.092 H 
ATOM     14  H3  MOL d          20.457   2.846  -8.097  0.00  0.00     0.092 H 
ENDROOT
BRANCH   1  15
ATOM     15  C1' MOL d          21.441  -0.260  -4.490  0.00  0.00    -0.002 A 
ATOM     16  C2' MOL d          20.566   0.582  -3.813  0.00  0.00    -0.070 A 
ATOM     17  C3' MOL d          20.551   0.596  -2.424  0.00  0.00    -0.082 A 
ATOM     18  H6  MOL d          19.895   1.227  -4.370  0.00  0.00     0.084 H 
ATOM     19  C4' MOL d          21.412  -0.230  -1.710  0.00  0.00    -0.083 A 
ATOM     20  H7  MOL d          19.869   1.252  -1.896  0.00  0.00     0.083 H 
ATOM     21  C5' MOL d          22.287  -1.072  -2.388  0.00  0.00    -0.082 A 
ATOM     22  H8  MOL d          21.401  -0.218  -0.627  0.00  0.00     0.083 H 
ATOM     23  C6' MOL d          22.301  -1.086  -3.778  0.00  0.00    -0.070 A 
ATOM     24  H9  MOL d          22.958  -1.716  -1.832  0.00  0.00     0.083 H 
ATOM     25  H10 MOL d          22.984  -1.742  -4.305  0.00  0.00     0.084 H 
ENDBRANCH   1  15
BRANCH   5  26
ATOM     26  O5  MOL d          21.875  -1.462 -10.679  0.00  0.00    -0.360 OA
ATOM     27  H4  MOL d          21.293  -1.592 -11.419  0.00  0.00     0.217 HD
ENDBRANCH   5  26
BRANCH   7  28
ATOM     28  O7  MOL d          20.405   3.068 -10.707  0.00  0.00    -0.361 OA
ATOM     29  H5  MOL d          21.106   3.313 -11.300  0.00  0.00     0.217 HD
ENDBRANCH   7  28
TORSDOF 3
ENDMDL
MODEL 2
REMARK VINA RESULT:      -7.8      1.126      2.733
REMARK  3 active torsions:
REMARK  status: ('A' for Active; 'I' for Inactive)
REMARK    1  A    between atoms: C1'_19  and  C2_1 
REMARK    2  A    between atoms: C6_5  and  O5_12 
REMARK    3  A    between atoms: C8_7  and  O7_13 
ROOT
ATOM      1  C2  MOL d          21.070   0.302  -5.871  0.00  0.00     0.090 A 
ATOM      2  C3  MOL d          20.678   1.477  -6.501  0.00  0.00    -0.000 A 
ATOM      3  C4  MOL d          20.653   1.539  -7.884  0.00  0.00     0.190 A 
ATOM      4  C5  MOL d          21.022   0.417  -8.606  0.00  0.00     0.081 A 
ATOM      5  C6  MOL d          21.005   0.452  -9.995  0.00  0.00     0.085 A 
ATOM      6  C7  MOL d          21.376  -0.672 -10.724  0.00  0.00    -0.018 A 
ATOM      7  C8  MOL d          21.761  -1.829 -10.060  0.00  0.00     0.071 A 
ATOM      8  C9  MOL d          21.777  -1.861  -8.670  0.00  0.00    -0.017 A 
ATOM      9  C10 MOL d          21.408  -0.740  -7.936  0.00  0.00     0.095 A 
ATOM     10  O1  MOL d          21.437  -0.813  -6.572  0.00  0.00    -0.309 OA
ATOM     11  O4  MOL d          20.309   2.571  -8.459  0.00  0.00    -0.287 OA
ATOM     12  H1  MOL d          20.392   2.346  -5.910  0.00  0.00     0.094 H 
ATOM     13  H2  MOL d          21.364  -0.645 -11.808  0.00  0.00     0.092 H 
ATOM     14  H3  MOL d          22.079  -2.766  -8.156  0.00  0.00     0.092 H 
ENDROOT
BRANCH   1  15
ATOM     15  C1' MOL d          21.089   0.259  -4.481  0.00  0.00    -0.002 A 
ATOM     16  C2' MOL d          20.284   1.123  -3.748  0.00  0.00    -0.070 A 
ATOM     17  C3' MOL d          20.303   1.079  -2.359  0.00  0.00    -0.082 A 
ATOM     18  H6  MOL d          19.641   1.830  -4.260  0.00  0.00     0.084 H 
ATOM     19  C4' MOL d          21.128   0.172  -1.703  0.00  0.00    -0.083 A 
ATOM     20  H7  MOL d          19.675   1.752  -1.787  0.00  0.00     0.083 H 
ATOM     21  C5' MOL d          21.933  -0.692  -2.437  0.00  0.00    -0.082 A 
ATOM     22  H8  MOL d          21.143   0.139  -0.620  0.00  0.00     0.083 H 
ATOM     23  C6' MOL d          21.913  -0.648  -3.826  0.00  0.00    -0.070 A 
ATOM     24  H9  MOL d          22.575  -1.399  -1.926  0.00  0.00     0.083 H 
ATOM     25  H10 MOL d          22.541  -1.321  -4.398  0.00  0.00     0.084 H 
ENDBRANCH   1  15
BRANCH   5  26
ATOM     26  O5  MOL d          20.628   1.587 -10.642  0.00  0.00    -0.360 OA
ATOM     27  H4  MOL d          21.370   2.177 -10.704  0.00  0.00     0.217 HD
ENDBRANCH   5  26
BRANCH   7  28
ATOM     28  O7  MOL d          22.124  -2.932 -10.770  0.00  0.00    -0.361 OA
ATOM     29  H5  MOL d          21.382  -3.238 -11.279  0.00  0.00     0.217 HD
ENDBRANCH   7  28
TORSDOF 3
ENDMDL
MODEL 3
REMARK VINA RESULT:      -7.7      2.519      6.970
REMARK  3 active torsions:
REMARK  status: ('A' for Active; 'I' for Inactive)
REMARK    1  A    between atoms: C1'_19  and  C2_1 
REMARK    2  A    between atoms: C6_5  and  O5_12 
REMARK    3  A    between atoms: C8_7  and  O7_13 
ROOT
ATOM      1  C2  MOL d          21.208  -0.063  -5.713  0.00  0.00     0.090 A 
ATOM      2  C3  MOL d          20.363   0.844  -5.085  0.00  0.00    -0.000 A 
ATOM      3  C4  MOL d          20.319   0.899  -3.703  0.00  0.00     0.190 A 
ATOM      4  C5  MOL d          21.128   0.039  -2.978  0.00  0.00     0.081 A 
ATOM      5  C6  MOL d          21.104   0.073  -1.589  0.00  0.00     0.085 A 
ATOM      6  C7  MOL d          21.913  -0.789  -0.858  0.00  0.00    -0.018 A 
ATOM      7  C8  MOL d          22.746  -1.682  -1.520  0.00  0.00     0.071 A 
ATOM      8  C9  MOL d          22.767  -1.714  -2.909  0.00  0.00    -0.017 A 
ATOM      9  C10 MOL d          21.959  -0.855  -3.646  0.00  0.00     0.095 A 
ATOM     10  O1  MOL d          22.010  -0.918  -5.010  0.00  0.00    -0.309 OA
ATOM     11  O4  MOL d          19.578   1.695  -3.129  0.00  0.00    -0.287 OA
ATOM     12  H1  MOL d          19.738   1.509  -5.678  0.00  0.00     0.094 H 
ATOM     13  H2  MOL d          21.894  -0.764   0.226  0.00  0.00     0.092 H 
ATOM     14  H3  MOL d          23.417  -2.413  -3.422  0.00  0.00     0.092 H 
ENDROOT
BRANCH   1  15
ATOM     15  C1' MOL d          21.238  -0.104  -7.102  0.00  0.00    -0.002 A 
ATOM     16  C2' MOL d          22.255  -0.790  -7.755  0.00  0.00    -0.070 A 
ATOM     17  C3' MOL d          22.285  -0.831  -9.144  0.00  0.00    -0.082 A 
ATOM     18  H6  MOL d          23.024  -1.294  -7.181  0.00  0.00     0.084 H 
ATOM     19  C4' MOL d          21.299  -0.184  -9.881  0.00  0.00    -0.083 A 
ATOM     20  H7  MOL d          23.078  -1.366  -9.654  0.00  0.00     0.083 H 
ATOM     21  C5' MOL d          20.282   0.502  -9.227  0.00  0.00    -0.082 A 
ATOM     22  H8  MOL d          21.323  -0.215 -10.964  0.00  0.00     0.083 H 
ATOM     23  C6' MOL d          20.252   0.543  -7.838  0.00  0.00    -0.070 A 
ATOM     24  H9  MOL d          19.513   1.006  -9.800  0.00  0.00     0.083 H 
ATOM     25  H10 MOL d          19.459   1.078  -7.329  0.00  0.00     0.084 H 
ENDBRANCH   1  15
BRANCH   5  26
ATOM     26  O5  MOL d          20.287   0.949  -0.944  0.00  0.00    -0.360 OA
ATOM     27  H4  MOL d          20.427   0.879  -0.007  0.00  0.00     0.217 HD
ENDBRANCH   5  26
BRANCH   7  28
ATOM     28  O7  MOL d          23.539  -2.527  -0.807  0.00  0.00    -0.361 OA
ATOM     29  H5  MOL d          23.309  -2.475   0.113  0.00  0.00     0.217 HD
ENDBRANCH   7  28
TORSDOF 3
ENDMDL
MODEL 4
REMARK VINA RESULT:      -7.2      2.436      6.336
REMARK  3 active torsions:
REMARK  status: ('A' for Active; 'I' for Inactive)
REMARK    1  A    between atoms: C1'_19  and  C2_1 
REMARK    2  A    between atoms: C6_5  and  O5_12 
REMARK    3  A    between atoms: C8_7  and  O7_13 
ROOT
ATOM      1  C2  MOL d          21.471  -0.207  -5.896  0.00  0.00     0.090 A 
ATOM      2  C3  MOL d          22.345  -1.163  -5.392  0.00  0.00    -0.000 A 
ATOM      3  C4  MOL d          22.496  -1.302  -4.023  0.00  0.00     0.190 A 
ATOM      4  C5  MOL d          21.763  -0.476  -3.188  0.00  0.00     0.081 A 
ATOM      5  C6  MOL d          21.895  -0.595  -1.809  0.00  0.00     0.085 A 
ATOM      6  C7  MOL d          21.163   0.232  -0.966  0.00  0.00    -0.018 A 
ATOM      7  C8  MOL d          20.297   1.176  -1.505  0.00  0.00     0.071 A 
ATOM      8  C9  MOL d          20.168   1.292  -2.884  0.00  0.00    -0.017 A 
ATOM      9  C10 MOL d          20.899   0.468  -3.733  0.00  0.00     0.095 A 
ATOM     10  O1  MOL d          20.742   0.614  -5.082  0.00  0.00    -0.309 OA
ATOM     11  O4  MOL d          23.264  -2.142  -3.559  0.00  0.00    -0.287 OA
ATOM     12  H1  MOL d          22.909  -1.800  -6.071  0.00  0.00     0.094 H 
ATOM     13  H2  MOL d          21.266   0.141   0.109  0.00  0.00     0.092 H 
ATOM     14  H3  MOL d          19.493   2.030  -3.301  0.00  0.00     0.092 H 
ENDROOT
BRANCH   1  15
ATOM     15  C1' MOL d          21.332  -0.082  -7.274  0.00  0.00    -0.002 A 
ATOM     16  C2' MOL d          20.399   0.803  -7.801  0.00  0.00    -0.070 A 
ATOM     17  C3' MOL d          20.261   0.928  -9.178  0.00  0.00    -0.082 A 
ATOM     18  H6  MOL d          19.779   1.396  -7.137  0.00  0.00     0.084 H 
ATOM     19  C4' MOL d          21.055   0.167 -10.029  0.00  0.00    -0.083 A 
ATOM     20  H7  MOL d          19.533   1.618  -9.589  0.00  0.00     0.083 H 
ATOM     21  C5' MOL d          21.988  -0.718  -9.501  0.00  0.00    -0.082 A 
ATOM     22  H8  MOL d          20.946   0.264 -11.103  0.00  0.00     0.083 H 
ATOM     23  C6' MOL d          22.126  -0.843  -8.124  0.00  0.00    -0.070 A 
ATOM     24  H9  MOL d          22.607  -1.311 -10.164  0.00  0.00     0.083 H 
ATOM     25  H10 MOL d          22.854  -1.534  -7.713  0.00  0.00     0.084 H 
ENDBRANCH   1  15
BRANCH   5  26
ATOM     26  O5  MOL d          22.743  -1.520  -1.284  0.00  0.00    -0.360 OA
ATOM     27  H4  MOL d          23.255  -1.121  -0.590  0.00  0.00     0.217 HD
ENDBRANCH   5  26
BRANCH   7  28
ATOM     28  O7  MOL d          19.578   1.987  -0.683  0.00  0.00    -0.361 OA
ATOM     29  H5  MOL d          18.687   2.055  -1.008  0.00  0.00     0.217 HD
ENDBRANCH   7  28
TORSDOF 3
ENDMDL
