MODEL 1
REMARK VINA RESULT:      -9.8      0.000      0.000
REMARK  8 active torsions:
REMARK  status: ('A' for Active; 'I' for Inactive)
REMARK    1  A    between atoms: CA_4  and  C_1 
REMARK    2  A    between atoms: N_2  and  CA_4 
REMARK    3  A    between atoms: OAR_19  and  CAA_5 
REMARK    4  A    between atoms: NAQ_18  and  CAO_17 
REMARK    5  A    between atoms: CAO_17  and  CAV_22 
REMARK    6  A    between atoms: SBC_28  and  NAQ_18 
REMARK    7  A    between atoms: CAU_21  and  OAR_19 
REMARK    8  A    between atoms: CAW_23  and  SBC_28 
ROOT
ATOM      1  N   FG5 d           0.705 -11.156  38.325  0.00  0.00    -0.338 N 
ATOM      2  CAH FG5 d          -0.400  -9.632  41.450  0.00  0.00    -0.049 A 
ATOM      3  CAK FG5 d           0.168 -10.558  40.596  0.00  0.00    -0.054 A 
ATOM      4  CAL FG5 d          -0.889  -8.345  39.451  0.00  0.00    -0.039 A 
ATOM      5  CAM FG5 d          -0.149  -9.377  37.341  0.00  0.00    -0.047 A 
ATOM      6  CAU FG5 d          -0.936  -8.502  40.851  0.00  0.00     0.069 A 
ATOM      7  CAV FG5 d           0.499 -10.537  37.159  0.00  0.00     0.032 A 
ATOM      8  CAY FG5 d          -0.326  -9.282  38.665  0.00  0.00    -0.005 A 
ATOM      9  CBA FG5 d           0.202 -10.374  39.263  0.00  0.00     0.045 A 
ATOM     10  H8  FG5 d          -0.426  -9.780  42.523  0.00  0.00     0.087 H 
ATOM     11  H11 FG5 d           0.600 -11.461  41.013  0.00  0.00     0.087 H 
ATOM     12  H12 FG5 d          -1.312  -7.456  39.000  0.00  0.00     0.089 H 
ATOM     13  H13 FG5 d          -0.463  -8.667  36.577  0.00  0.00     0.088 H 
ENDROOT
BRANCH   7  14
ATOM     14  CAO FG5 d           0.975 -11.176  35.830  0.00  0.00     0.041 C 
ATOM     15  H15 FG5 d           2.052 -10.979  35.723  0.00  0.00     0.074 H 
ATOM     16  H16 FG5 d           0.805 -12.261  35.893  0.00  0.00     0.074 H 
BRANCH  14  17
ATOM     17  NAQ FG5 d           0.296 -10.675  34.626  0.00  0.00    -0.308 N 
ATOM     18  H17 FG5 d          -0.536 -11.072  34.235  0.00  0.00     0.172 HD
BRANCH  17  19
ATOM     19  SBC FG5 d           1.168  -9.246  33.948  0.00  0.00     0.281 S 
ATOM     20  OAC FG5 d           2.572  -9.226  34.572  0.00  0.00    -0.199 OA
ATOM     21  OAD FG5 d           0.453  -7.896  34.142  0.00  0.00    -0.199 OA
BRANCH  19  22
ATOM     22  CAW FG5 d           1.334  -9.501  32.211  0.00  0.00     0.191 A 
ATOM     23  CAN FG5 d           1.739  -8.551  31.388  0.00  0.00    -0.025 A 
ATOM     24  CAX FG5 d           1.770  -9.021  30.149  0.00  0.00     0.001 A 
ATOM     25  H14 FG5 d           2.008  -7.538  31.682  0.00  0.00     0.090 H 
ATOM     26  CAI FG5 d           2.113  -8.408  29.012  0.00  0.00    -0.070 A 
ATOM     27  CAZ FG5 d           1.366 -10.298  30.192  0.00  0.00     0.087 A 
ATOM     28  CAF FG5 d           2.059  -9.100  27.815  0.00  0.00    -0.082 A 
ATOM     29  H9  FG5 d           2.433  -7.373  29.027  0.00  0.00     0.084 H 
ATOM     30  CAG FG5 d           1.642 -10.427  27.866  0.00  0.00    -0.080 A 
ATOM     31  H6  FG5 d           2.329  -8.628  26.877  0.00  0.00     0.083 H 
ATOM     32  CAJ FG5 d           1.301 -11.020  29.078  0.00  0.00    -0.049 A 
ATOM     33  H7  FG5 d           1.582 -11.005  26.950  0.00  0.00     0.083 H 
ATOM     34  H10 FG5 d           0.986 -12.057  29.114  0.00  0.00     0.087 H 
ATOM     35  OAS FG5 d           1.080 -10.614  31.536  0.00  0.00    -0.296 OA
ENDBRANCH  19  22
ENDBRANCH  17  19
ENDBRANCH  14  17
ENDBRANCH   7  14
BRANCH   1  36
ATOM     36  CA  FG5 d           1.389 -12.428  38.778  0.00  0.00     0.080 C 
ATOM     37  H1  FG5 d           1.212 -12.518  39.860  0.00  0.00     0.081 H 
ATOM     38  H2  FG5 d           0.894 -13.260  38.255  0.00  0.00     0.081 H 
BRANCH  36  39
ATOM     39  C   FG5 d           2.880 -12.594  38.560  0.00  0.00     0.191 C 
ATOM     40  O   FG5 d           3.587 -12.543  39.608  0.00  0.00    -0.647 OA
ATOM     41  OXT FG5 d           3.280 -12.810  37.397  0.00  0.00    -0.647 OA
ENDBRANCH  36  39
ENDBRANCH   1  36
BRANCH   6  42
ATOM     42  OAR FG5 d          -1.499  -7.592  41.671  0.00  0.00    -0.356 OA
BRANCH  42  43
ATOM     43  CAA FG5 d          -2.656  -6.939  41.146  0.00  0.00     0.010 C 
ATOM     44  H3  FG5 d          -3.300  -6.614  41.976  0.00  0.00     0.066 H 
ATOM     45  H4  FG5 d          -3.210  -7.637  40.502  0.00  0.00     0.066 H 
ATOM     46  H5  FG5 d          -2.347  -6.063  40.557  0.00  0.00     0.066 H 
ENDBRANCH  42  43
ENDBRANCH   6  42
TORSDOF 8
ENDMDL
MODEL 2
REMARK VINA RESULT:      -9.4      1.555      1.870
REMARK  8 active torsions:
REMARK  status: ('A' for Active; 'I' for Inactive)
REMARK    1  A    between atoms: CA_4  and  C_1 
REMARK    2  A    between atoms: N_2  and  CA_4 
REMARK    3  A    between atoms: OAR_19  and  CAA_5 
REMARK    4  A    between atoms: NAQ_18  and  CAO_17 
REMARK    5  A    between atoms: CAO_17  and  CAV_22 
REMARK    6  A    between atoms: SBC_28  and  NAQ_18 
REMARK    7  A    between atoms: CAU_21  and  OAR_19 
REMARK    8  A    between atoms: CAW_23  and  SBC_28 
ROOT
ATOM      1  N   FG5 d           0.741 -10.213  38.279  0.00  0.00    -0.338 N 
ATOM      2  CAH FG5 d          -0.738  -9.224  41.465  0.00  0.00    -0.049 A 
ATOM      3  CAK FG5 d           0.047  -9.925  40.568  0.00  0.00    -0.054 A 
ATOM      4  CAL FG5 d          -1.494  -7.950  39.543  0.00  0.00    -0.039 A 
ATOM      5  CAM FG5 d          -0.501  -8.622  37.391  0.00  0.00    -0.047 A 
ATOM      6  CAU FG5 d          -1.521  -8.214  40.927  0.00  0.00     0.069 A 
ATOM      7  CAV FG5 d           0.408  -9.578  37.152  0.00  0.00     0.032 A 
ATOM      8  CAY FG5 d          -0.713  -8.667  38.713  0.00  0.00    -0.005 A 
ATOM      9  CBA FG5 d           0.054  -9.642  39.252  0.00  0.00     0.045 A 
ATOM     10  H8  FG5 d          -0.741  -9.451  42.525  0.00  0.00     0.087 H 
ATOM     11  H11 FG5 d           0.678 -10.726  40.937  0.00  0.00     0.087 H 
ATOM     12  H12 FG5 d          -2.113  -7.158  39.139  0.00  0.00     0.089 H 
ATOM     13  H13 FG5 d          -0.967  -7.955  36.667  0.00  0.00     0.088 H 
ENDROOT
BRANCH   7  14
ATOM     14  CAO FG5 d           1.040  -9.988  35.798  0.00  0.00     0.041 C 
ATOM     15  H15 FG5 d           1.165  -9.080  35.190  0.00  0.00     0.074 H 
ATOM     16  H16 FG5 d           2.026 -10.430  36.002  0.00  0.00     0.074 H 
BRANCH  14  17
ATOM     17  NAQ FG5 d           0.256 -10.957  35.018  0.00  0.00    -0.308 N 
ATOM     18  H17 FG5 d          -0.743 -11.017  35.024  0.00  0.00     0.172 HD
BRANCH  17  19
ATOM     19  SBC FG5 d           1.343 -12.024  34.048  0.00  0.00     0.281 S 
ATOM     20  OAC FG5 d           0.564 -13.311  33.735  0.00  0.00    -0.199 OA
ATOM     21  OAD FG5 d           2.700 -12.340  34.704  0.00  0.00    -0.199 OA
BRANCH  19  22
ATOM     22  CAW FG5 d           1.682 -11.195  32.529  0.00  0.00     0.191 A 
ATOM     23  CAN FG5 d           2.716 -10.389  32.373  0.00  0.00    -0.025 A 
ATOM     24  CAX FG5 d           2.722  -9.908  31.138  0.00  0.00     0.001 A 
ATOM     25  H14 FG5 d           3.451 -10.155  33.142  0.00  0.00     0.090 H 
ATOM     26  CAI FG5 d           3.578  -9.062  30.555  0.00  0.00    -0.070 A 
ATOM     27  CAZ FG5 d           1.661 -10.419  30.501  0.00  0.00     0.087 A 
ATOM     28  CAF FG5 d           3.382  -8.684  29.240  0.00  0.00    -0.082 A 
ATOM     29  H9  FG5 d           4.423  -8.674  31.112  0.00  0.00     0.084 H 
ATOM     30  CAG FG5 d           2.278  -9.220  28.581  0.00  0.00    -0.080 A 
ATOM     31  H6  FG5 d           4.058  -7.998  28.742  0.00  0.00     0.083 H 
ATOM     32  CAJ FG5 d           1.420 -10.102  29.232  0.00  0.00    -0.049 A 
ATOM     33  H7  FG5 d           2.085  -8.948  27.550  0.00  0.00     0.083 H 
ATOM     34  H10 FG5 d           0.568 -10.525  28.713  0.00  0.00     0.087 H 
ATOM     35  OAS FG5 d           0.978 -11.258  31.406  0.00  0.00    -0.296 OA
ENDBRANCH  19  22
ENDBRANCH  17  19
ENDBRANCH  14  17
ENDBRANCH   7  14
BRANCH   1  36
ATOM     36  CA  FG5 d           1.704 -11.314  38.667  0.00  0.00     0.080 C 
ATOM     37  H1  FG5 d           2.658 -11.096  38.165  0.00  0.00     0.081 H 
ATOM     38  H2  FG5 d           1.840 -11.250  39.757  0.00  0.00     0.081 H 
BRANCH  36  39
ATOM     39  C   FG5 d           1.359 -12.756  38.349  0.00  0.00     0.191 C 
ATOM     40  O   FG5 d           1.806 -13.611  39.167  0.00  0.00    -0.647 OA
ATOM     41  OXT FG5 d           0.638 -12.978  37.353  0.00  0.00    -0.647 OA
ENDBRANCH  36  39
ENDBRANCH   1  36
BRANCH   6  42
ATOM     42  OAR FG5 d          -2.296  -7.527  41.788  0.00  0.00    -0.356 OA
BRANCH  42  43
ATOM     43  CAA FG5 d          -3.085  -6.492  41.200  0.00  0.00     0.010 C 
ATOM     44  H3  FG5 d          -4.011  -6.924  40.793  0.00  0.00     0.066 H 
ATOM     45  H4  FG5 d          -2.516  -6.014  40.389  0.00  0.00     0.066 H 
ATOM     46  H5  FG5 d          -3.335  -5.741  41.963  0.00  0.00     0.066 H 
ENDBRANCH  42  43
ENDBRANCH   6  42
TORSDOF 8
ENDMDL
MODEL 3
REMARK VINA RESULT:      -9.2      1.956      8.926
REMARK  8 active torsions:
REMARK  status: ('A' for Active; 'I' for Inactive)
REMARK    1  A    between atoms: CA_4  and  C_1 
REMARK    2  A    between atoms: N_2  and  CA_4 
REMARK    3  A    between atoms: OAR_19  and  CAA_5 
REMARK    4  A    between atoms: NAQ_18  and  CAO_17 
REMARK    5  A    between atoms: CAO_17  and  CAV_22 
REMARK    6  A    between atoms: SBC_28  and  NAQ_18 
REMARK    7  A    between atoms: CAU_21  and  OAR_19 
REMARK    8  A    between atoms: CAW_23  and  SBC_28 
ROOT
ATOM      1  N   FG5 d           0.996  -9.615  33.731  0.00  0.00    -0.338 N 
ATOM      2  CAH FG5 d           1.701  -8.687  30.274  0.00  0.00    -0.049 A 
ATOM      3  CAK FG5 d           1.358  -8.541  31.605  0.00  0.00    -0.054 A 
ATOM      4  CAL FG5 d           1.906 -11.055  30.762  0.00  0.00    -0.039 A 
ATOM      5  CAM FG5 d           1.423 -11.683  33.094  0.00  0.00    -0.047 A 
ATOM      6  CAU FG5 d           1.981  -9.979  29.855  0.00  0.00     0.069 A 
ATOM      7  CAV FG5 d           1.084 -10.890  34.121  0.00  0.00     0.032 A 
ATOM      8  CAY FG5 d           1.562 -10.857  32.049  0.00  0.00    -0.005 A 
ATOM      9  CBA FG5 d           1.302  -9.591  32.447  0.00  0.00     0.045 A 
ATOM     10  H8  FG5 d           1.748  -7.841  29.597  0.00  0.00     0.087 H 
ATOM     11  H11 FG5 d           1.128  -7.552  31.983  0.00  0.00     0.087 H 
ATOM     12  H12 FG5 d           2.127 -12.058  30.418  0.00  0.00     0.089 H 
ATOM     13  H13 FG5 d           1.555 -12.764  33.108  0.00  0.00     0.088 H 
ENDROOT
BRANCH   7  14
ATOM     14  CAO FG5 d           0.795 -11.288  35.590  0.00  0.00     0.041 C 
ATOM     15  H15 FG5 d          -0.020 -10.650  35.963  0.00  0.00     0.074 H 
ATOM     16  H16 FG5 d           0.471 -12.339  35.601  0.00  0.00     0.074 H 
BRANCH  14  17
ATOM     17  NAQ FG5 d           1.938 -11.152  36.505  0.00  0.00    -0.308 N 
ATOM     18  H17 FG5 d           2.802 -10.704  36.273  0.00  0.00     0.172 HD
BRANCH  17  19
ATOM     19  SBC FG5 d           1.569 -11.904  38.105  0.00  0.00     0.281 S 
ATOM     20  OAC FG5 d           2.905 -12.114  38.834  0.00  0.00    -0.199 OA
ATOM     21  OAD FG5 d           0.759 -13.213  38.037  0.00  0.00    -0.199 OA
BRANCH  19  22
ATOM     22  CAW FG5 d           0.608 -10.746  39.025  0.00  0.00     0.191 A 
ATOM     23  CAN FG5 d          -0.097  -9.789  38.450  0.00  0.00    -0.025 A 
ATOM     24  CAX FG5 d          -0.715  -9.073  39.378  0.00  0.00     0.001 A 
ATOM     25  H14 FG5 d          -0.160  -9.615  37.376  0.00  0.00     0.090 H 
ATOM     26  CAI FG5 d          -1.522  -8.016  39.245  0.00  0.00    -0.070 A 
ATOM     27  CAZ FG5 d          -0.386  -9.588  40.570  0.00  0.00     0.087 A 
ATOM     28  CAF FG5 d          -2.055  -7.412  40.369  0.00  0.00    -0.082 A 
ATOM     29  H9  FG5 d          -1.760  -7.635  38.258  0.00  0.00     0.084 H 
ATOM     30  CAG FG5 d          -1.712  -7.953  41.605  0.00  0.00    -0.080 A 
ATOM     31  H6  FG5 d          -2.711  -6.552  40.291  0.00  0.00     0.083 H 
ATOM     32  CAJ FG5 d          -0.871  -9.059  41.689  0.00  0.00    -0.049 A 
ATOM     33  H7  FG5 d          -2.104  -7.508  42.512  0.00  0.00     0.083 H 
ATOM     34  H10 FG5 d          -0.615  -9.483  42.653  0.00  0.00     0.087 H 
ATOM     35  OAS FG5 d           0.478 -10.680  40.344  0.00  0.00    -0.296 OA
ENDBRANCH  19  22
ENDBRANCH  17  19
ENDBRANCH  14  17
ENDBRANCH   7  14
BRANCH   1  36
ATOM     36  CA  FG5 d           0.705  -8.289  34.398  0.00  0.00     0.080 C 
ATOM     37  H1  FG5 d           0.551  -7.554  33.594  0.00  0.00     0.081 H 
ATOM     38  H2  FG5 d          -0.229  -8.414  34.964  0.00  0.00     0.081 H 
BRANCH  36  39
ATOM     39  C   FG5 d           1.722  -7.691  35.351  0.00  0.00     0.191 C 
ATOM     40  O   FG5 d           2.264  -6.617  34.959  0.00  0.00    -0.647 OA
ATOM     41  OXT FG5 d           1.908  -8.268  36.443  0.00  0.00    -0.647 OA
ENDBRANCH  36  39
ENDBRANCH   1  36
BRANCH   6  42
ATOM     42  OAR FG5 d           2.311 -10.136  28.558  0.00  0.00    -0.356 OA
BRANCH  42  43
ATOM     43  CAA FG5 d           1.740 -11.281  27.924  0.00  0.00     0.010 C 
ATOM     44  H3  FG5 d           1.075 -11.798  28.630  0.00  0.00     0.066 H 
ATOM     45  H4  FG5 d           2.543 -11.964  27.609  0.00  0.00     0.066 H 
ATOM     46  H5  FG5 d           1.164 -10.963  27.043  0.00  0.00     0.066 H 
ENDBRANCH  42  43
ENDBRANCH   6  42
TORSDOF 8
ENDMDL
MODEL 4
REMARK VINA RESULT:      -8.6      1.956      2.993
REMARK  8 active torsions:
REMARK  status: ('A' for Active; 'I' for Inactive)
REMARK    1  A    between atoms: CA_4  and  C_1 
REMARK    2  A    between atoms: N_2  and  CA_4 
REMARK    3  A    between atoms: OAR_19  and  CAA_5 
REMARK    4  A    between atoms: NAQ_18  and  CAO_17 
REMARK    5  A    between atoms: CAO_17  and  CAV_22 
REMARK    6  A    between atoms: SBC_28  and  NAQ_18 
REMARK    7  A    between atoms: CAU_21  and  OAR_19 
REMARK    8  A    between atoms: CAW_23  and  SBC_28 
ROOT
ATOM      1  N   FG5 d           0.749  -9.816  37.065  0.00  0.00    -0.338 N 
ATOM      2  CAH FG5 d          -0.756  -8.240  39.991  0.00  0.00    -0.049 A 
ATOM      3  CAK FG5 d          -0.311  -8.389  38.691  0.00  0.00    -0.054 A 
ATOM      4  CAL FG5 d           0.065 -10.495  40.349  0.00  0.00    -0.039 A 
ATOM      5  CAM FG5 d           1.087 -11.557  38.375  0.00  0.00    -0.047 A 
ATOM      6  CAU FG5 d          -0.560  -9.327  40.829  0.00  0.00     0.069 A 
ATOM      7  CAV FG5 d           1.228 -11.061  37.138  0.00  0.00     0.032 A 
ATOM      8  CAY FG5 d           0.483 -10.586  39.072  0.00  0.00    -0.005 A 
ATOM      9  CBA FG5 d           0.277  -9.522  38.263  0.00  0.00     0.045 A 
ATOM     10  H8  FG5 d          -1.230  -7.328  40.335  0.00  0.00     0.087 H 
ATOM     11  H11 FG5 d          -0.439  -7.568  37.995  0.00  0.00     0.087 H 
ATOM     12  H12 FG5 d           0.210 -11.335  41.017  0.00  0.00     0.089 H 
ATOM     13  H13 FG5 d           1.396 -12.537  38.735  0.00  0.00     0.088 H 
ENDROOT
BRANCH   7  14
ATOM     14  CAO FG5 d           1.860 -11.738  35.896  0.00  0.00     0.041 C 
ATOM     15  H15 FG5 d           2.879 -12.055  36.161  0.00  0.00     0.074 H 
ATOM     16  H16 FG5 d           1.255 -12.621  35.643  0.00  0.00     0.074 H 
BRANCH  14  17
ATOM     17  NAQ FG5 d           1.944 -10.884  34.701  0.00  0.00    -0.308 N 
ATOM     18  H17 FG5 d           2.571 -10.111  34.597  0.00  0.00     0.172 HD
BRANCH  17  19
ATOM     19  SBC FG5 d           0.758 -11.420  33.448  0.00  0.00     0.281 S 
ATOM     20  OAC FG5 d          -0.581 -10.732  33.757  0.00  0.00    -0.199 OA
ATOM     21  OAD FG5 d           0.585 -12.946  33.328  0.00  0.00    -0.199 OA
BRANCH  19  22
ATOM     22  CAW FG5 d           1.337 -10.839  31.888  0.00  0.00     0.191 A 
ATOM     23  CAN FG5 d           2.452 -10.143  31.756  0.00  0.00    -0.025 A 
ATOM     24  CAX FG5 d           2.638  -9.841  30.479  0.00  0.00     0.001 A 
ATOM     25  H14 FG5 d           3.116  -9.861  32.571  0.00  0.00     0.090 H 
ATOM     26  CAI FG5 d           3.627  -9.152  29.900  0.00  0.00    -0.070 A 
ATOM     27  CAZ FG5 d           1.611 -10.353  29.789  0.00  0.00     0.087 A 
ATOM     28  CAF FG5 d           3.612  -8.947  28.533  0.00  0.00    -0.082 A 
ATOM     29  H9  FG5 d           4.438  -8.756  30.501  0.00  0.00     0.084 H 
ATOM     30  CAG FG5 d           2.543  -9.484  27.820  0.00  0.00    -0.080 A 
ATOM     31  H6  FG5 d           4.399  -8.390  28.036  0.00  0.00     0.083 H 
ATOM     32  CAJ FG5 d           1.542 -10.199  28.470  0.00  0.00    -0.049 A 
ATOM     33  H7  FG5 d           2.491  -9.344  26.746  0.00  0.00     0.083 H 
ATOM     34  H10 FG5 d           0.717 -10.624  27.910  0.00  0.00     0.087 H 
ATOM     35  OAS FG5 d           0.759 -11.004  30.705  0.00  0.00    -0.296 OA
ENDBRANCH  19  22
ENDBRANCH  17  19
ENDBRANCH  14  17
ENDBRANCH   7  14
BRANCH   1  36
ATOM     36  CA  FG5 d           0.584  -8.773  35.981  0.00  0.00     0.080 C 
ATOM     37  H1  FG5 d           0.272  -9.304  35.070  0.00  0.00     0.081 H 
ATOM     38  H2  FG5 d          -0.223  -8.099  36.307  0.00  0.00     0.081 H 
BRANCH  36  39
ATOM     39  C   FG5 d           1.762  -7.898  35.599  0.00  0.00     0.191 C 
ATOM     40  O   FG5 d           2.034  -7.868  34.364  0.00  0.00    -0.647 OA
ATOM     41  OXT FG5 d           2.330  -7.254  36.507  0.00  0.00    -0.647 OA
ENDBRANCH  36  39
ENDBRANCH   1  36
BRANCH   6  42
ATOM     42  OAR FG5 d          -0.983  -9.194  42.101  0.00  0.00    -0.356 OA
BRANCH  42  43
ATOM     43  CAA FG5 d          -0.031  -9.566  43.098  0.00  0.00     0.010 C 
ATOM     44  H3  FG5 d           0.844 -10.026  42.616  0.00  0.00     0.066 H 
ATOM     45  H4  FG5 d          -0.489 -10.288  43.791  0.00  0.00     0.066 H 
ATOM     46  H5  FG5 d           0.284  -8.673  43.656  0.00  0.00     0.066 H 
ENDBRANCH  42  43
ENDBRANCH   6  42
TORSDOF 8
ENDMDL
MODEL 5
REMARK VINA RESULT:      -7.4      2.208      8.713
REMARK  8 active torsions:
REMARK  status: ('A' for Active; 'I' for Inactive)
REMARK    1  A    between atoms: CA_4  and  C_1 
REMARK    2  A    between atoms: N_2  and  CA_4 
REMARK    3  A    between atoms: OAR_19  and  CAA_5 
REMARK    4  A    between atoms: NAQ_18  and  CAO_17 
REMARK    5  A    between atoms: CAO_17  and  CAV_22 
REMARK    6  A    between atoms: SBC_28  and  NAQ_18 
REMARK    7  A    between atoms: CAU_21  and  OAR_19 
REMARK    8  A    between atoms: CAW_23  and  SBC_28 
ROOT
ATOM      1  N   FG5 d           2.679 -10.029  33.813  0.00  0.00    -0.338 N 
ATOM      2  CAH FG5 d           3.601  -9.574  30.312  0.00  0.00    -0.049 A 
ATOM      3  CAK FG5 d           3.716  -9.941  31.640  0.00  0.00    -0.054 A 
ATOM      4  CAL FG5 d           1.387  -8.776  30.902  0.00  0.00    -0.039 A 
ATOM      5  CAM FG5 d           0.766  -9.077  33.266  0.00  0.00    -0.047 A 
ATOM      6  CAU FG5 d           2.403  -8.980  29.946  0.00  0.00     0.069 A 
ATOM      7  CAV FG5 d           1.480  -9.636  34.253  0.00  0.00     0.032 A 
ATOM      8  CAY FG5 d           1.553  -9.149  32.184  0.00  0.00    -0.005 A 
ATOM      9  CBA FG5 d           2.722  -9.736  32.526  0.00  0.00     0.045 A 
ATOM     10  H8  FG5 d           4.401  -9.740  29.600  0.00  0.00     0.087 H 
ATOM     11  H11 FG5 d           4.634 -10.407  31.979  0.00  0.00     0.087 H 
ATOM     12  H12 FG5 d           0.456  -8.311  30.598  0.00  0.00     0.089 H 
ATOM     13  H13 FG5 d          -0.236  -8.655  33.331  0.00  0.00     0.088 H 
ENDROOT
BRANCH   7  14
ATOM     14  CAO FG5 d           1.080  -9.835  35.737  0.00  0.00     0.041 C 
ATOM     15  H15 FG5 d           1.964  -9.632  36.359  0.00  0.00     0.074 H 
ATOM     16  H16 FG5 d           0.288  -9.110  35.977  0.00  0.00     0.074 H 
BRANCH  14  17
ATOM     17  NAQ FG5 d           0.586 -11.180  36.069  0.00  0.00    -0.308 N 
ATOM     18  H17 FG5 d           0.086 -11.774  35.438  0.00  0.00     0.172 HD
BRANCH  17  19
ATOM     19  SBC FG5 d           1.005 -11.611  37.772  0.00  0.00     0.281 S 
ATOM     20  OAC FG5 d           2.520 -11.418  37.937  0.00  0.00    -0.199 OA
ATOM     21  OAD FG5 d           0.573 -13.024  38.210  0.00  0.00    -0.199 OA
BRANCH  19  22
ATOM     22  CAW FG5 d           0.179 -10.466  38.828  0.00  0.00     0.191 A 
ATOM     23  CAN FG5 d          -0.545  -9.463  38.363  0.00  0.00    -0.025 A 
ATOM     24  CAX FG5 d          -1.044  -8.769  39.376  0.00  0.00     0.001 A 
ATOM     25  H14 FG5 d          -0.706  -9.241  37.309  0.00  0.00     0.090 H 
ATOM     26  CAI FG5 d          -1.823  -7.683  39.365  0.00  0.00    -0.070 A 
ATOM     27  CAZ FG5 d          -0.619  -9.345  40.508  0.00  0.00     0.087 A 
ATOM     28  CAF FG5 d          -2.222  -7.111  40.559  0.00  0.00    -0.082 A 
ATOM     29  H9  FG5 d          -2.142  -7.253  38.422  0.00  0.00     0.084 H 
ATOM     30  CAG FG5 d          -1.780  -7.716  41.733  0.00  0.00    -0.080 A 
ATOM     31  H6  FG5 d          -2.853  -6.230  40.580  0.00  0.00     0.083 H 
ATOM     32  CAJ FG5 d          -0.973  -8.849  41.689  0.00  0.00    -0.049 A 
ATOM     33  H7  FG5 d          -2.066  -7.298  42.691  0.00  0.00     0.083 H 
ATOM     34  H10 FG5 d          -0.639  -9.322  42.606  0.00  0.00     0.087 H 
ATOM     35  OAS FG5 d           0.181 -10.452  40.154  0.00  0.00    -0.296 OA
ENDBRANCH  19  22
ENDBRANCH  17  19
ENDBRANCH  14  17
ENDBRANCH   7  14
BRANCH   1  36
ATOM     36  CA  FG5 d           3.880 -10.735  34.403  0.00  0.00     0.080 C 
ATOM     37  H1  FG5 d           4.661 -10.738  33.628  0.00  0.00     0.081 H 
ATOM     38  H2  FG5 d           4.215 -10.132  35.260  0.00  0.00     0.081 H 
BRANCH  36  39
ATOM     39  C   FG5 d           3.741 -12.162  34.894  0.00  0.00     0.191 C 
ATOM     40  O   FG5 d           4.796 -12.674  35.371  0.00  0.00    -0.647 OA
ATOM     41  OXT FG5 d           2.613 -12.695  34.833  0.00  0.00    -0.647 OA
ENDBRANCH  36  39
ENDBRANCH   1  36
BRANCH   6  42
ATOM     42  OAR FG5 d           2.279  -8.612  28.656  0.00  0.00    -0.356 OA
BRANCH  42  43
ATOM     43  CAA FG5 d           1.622  -9.561  27.816  0.00  0.00     0.010 C 
ATOM     44  H3  FG5 d           2.205  -9.699  26.894  0.00  0.00     0.066 H 
ATOM     45  H4  FG5 d           0.617  -9.193  27.563  0.00  0.00     0.066 H 
ATOM     46  H5  FG5 d           1.538 -10.522  28.344  0.00  0.00     0.066 H 
ENDBRANCH  42  43
ENDBRANCH   6  42
TORSDOF 8
ENDMDL
MODEL 6
REMARK VINA RESULT:      -7.1      1.344      3.984
REMARK  8 active torsions:
REMARK  status: ('A' for Active; 'I' for Inactive)
REMARK    1  A    between atoms: CA_4  and  C_1 
REMARK    2  A    between atoms: N_2  and  CA_4 
REMARK    3  A    between atoms: OAR_19  and  CAA_5 
REMARK    4  A    between atoms: NAQ_18  and  CAO_17 
REMARK    5  A    between atoms: CAO_17  and  CAV_22 
REMARK    6  A    between atoms: SBC_28  and  NAQ_18 
REMARK    7  A    between atoms: CAU_21  and  OAR_19 
REMARK    8  A    between atoms: CAW_23  and  SBC_28 
ROOT
ATOM      1  N   FG5 d          -0.048 -10.439  37.867  0.00  0.00    -0.338 N 
ATOM      2  CAH FG5 d           2.078 -12.394  40.096  0.00  0.00    -0.049 A 
ATOM      3  CAK FG5 d           1.056 -11.554  39.695  0.00  0.00    -0.054 A 
ATOM      4  CAL FG5 d           2.686 -12.495  37.749  0.00  0.00    -0.039 A 
ATOM      5  CAM FG5 d           1.255 -11.170  36.245  0.00  0.00    -0.047 A 
ATOM      6  CAU FG5 d           2.904 -12.871  39.090  0.00  0.00     0.069 A 
ATOM      7  CAV FG5 d           0.184 -10.424  36.552  0.00  0.00     0.032 A 
ATOM      8  CAY FG5 d           1.677 -11.670  37.414  0.00  0.00    -0.005 A 
ATOM      9  CBA FG5 d           0.872 -11.220  38.404  0.00  0.00     0.045 A 
ATOM     10  H8  FG5 d           2.225 -12.664  41.136  0.00  0.00     0.087 H 
ATOM     11  H11 FG5 d           0.383 -11.152  40.443  0.00  0.00     0.087 H 
ATOM     12  H12 FG5 d           3.341 -12.877  36.975  0.00  0.00     0.089 H 
ATOM     13  H13 FG5 d           1.688 -11.333  35.259  0.00  0.00     0.088 H 
ENDROOT
BRANCH   7  14
ATOM     14  CAO FG5 d          -0.721  -9.602  35.600  0.00  0.00     0.041 C 
ATOM     15  H15 FG5 d          -1.754  -9.961  35.716  0.00  0.00     0.074 H 
ATOM     16  H16 FG5 d          -0.664  -8.546  35.902  0.00  0.00     0.074 H 
BRANCH  14  17
ATOM     17  NAQ FG5 d          -0.363  -9.691  34.176  0.00  0.00    -0.308 N 
ATOM     18  H17 FG5 d          -0.737 -10.364  33.537  0.00  0.00     0.172 HD
BRANCH  17  19
ATOM     19  SBC FG5 d           0.844  -8.420  33.741  0.00  0.00     0.281 S 
ATOM     20  OAC FG5 d           2.019  -8.545  34.723  0.00  0.00    -0.199 OA
ATOM     21  OAD FG5 d           0.292  -6.982  33.713  0.00  0.00    -0.199 OA
BRANCH  19  22
ATOM     22  CAW FG5 d           1.432  -8.781  32.118  0.00  0.00     0.191 A 
ATOM     23  CAN FG5 d           0.910  -9.734  31.368  0.00  0.00    -0.025 A 
ATOM     24  CAX FG5 d           1.546  -9.782  30.205  0.00  0.00     0.001 A 
ATOM     25  H14 FG5 d           0.084 -10.381  31.658  0.00  0.00     0.090 H 
ATOM     26  CAI FG5 d           1.350 -10.589  29.158  0.00  0.00    -0.070 A 
ATOM     27  CAZ FG5 d           2.498  -8.840  30.227  0.00  0.00     0.087 A 
ATOM     28  CAF FG5 d           2.150 -10.466  28.037  0.00  0.00    -0.082 A 
ATOM     29  H9  FG5 d           0.566 -11.337  29.187  0.00  0.00     0.084 H 
ATOM     30  CAG FG5 d           3.136  -9.483  28.064  0.00  0.00    -0.080 A 
ATOM     31  H6  FG5 d           2.016 -11.107  27.173  0.00  0.00     0.083 H 
ATOM     32  CAJ FG5 d           3.295  -8.664  29.178  0.00  0.00    -0.049 A 
ATOM     33  H7  FG5 d           3.788  -9.354  27.207  0.00  0.00     0.083 H 
ATOM     34  H10 FG5 d           4.057  -7.893  29.191  0.00  0.00     0.087 H 
ATOM     35  OAS FG5 d           2.427  -8.185  31.475  0.00  0.00    -0.296 OA
ENDBRANCH  19  22
ENDBRANCH  17  19
ENDBRANCH  14  17
ENDBRANCH   7  14
BRANCH   1  36
ATOM     36  CA  FG5 d          -1.087  -9.854  38.798  0.00  0.00     0.080 C 
ATOM     37  H1  FG5 d          -1.953  -9.579  38.179  0.00  0.00     0.081 H 
ATOM     38  H2  FG5 d          -1.376 -10.654  39.497  0.00  0.00     0.081 H 
BRANCH  36  39
ATOM     39  C   FG5 d          -0.742  -8.639  39.637  0.00  0.00     0.191 C 
ATOM     40  O   FG5 d          -1.292  -8.594  40.775  0.00  0.00    -0.647 OA
ATOM     41  OXT FG5 d           0.075  -7.818  39.168  0.00  0.00    -0.647 OA
ENDBRANCH  36  39
ENDBRANCH   1  36
BRANCH   6  42
ATOM     42  OAR FG5 d           3.908 -13.687  39.467  0.00  0.00    -0.356 OA
BRANCH  42  43
ATOM     43  CAA FG5 d           4.802 -14.069  38.422  0.00  0.00     0.010 C 
ATOM     44  H3  FG5 d           4.239 -14.197  37.486  0.00  0.00     0.066 H 
ATOM     45  H4  FG5 d           5.292 -15.017  38.687  0.00  0.00     0.066 H 
ATOM     46  H5  FG5 d           5.565 -13.288  38.287  0.00  0.00     0.066 H 
ENDBRANCH  42  43
ENDBRANCH   6  42
TORSDOF 8
ENDMDL
