MODEL 1
REMARK VINA RESULT:      -5.7      0.000      0.000
REMARK  4 active torsions:
REMARK  status: ('A' for Active; 'I' for Inactive)
REMARK    1  A    between atoms: C1_7  and  P1_1 
REMARK    2  A    between atoms: N1_10  and  C1_7 
REMARK    3  A    between atoms: C2_8  and  C3_9 
REMARK    4  A    between atoms: C2_8  and  N1_10 
ROOT
ATOM      1  N1  GPJ d          59.896   7.951  29.442  0.00  0.00    -0.053 N 
ATOM      2  H5  GPJ d          60.894   8.093  29.453  0.00  0.00     0.278 HD
ATOM      3  H6  GPJ d          59.693   6.979  29.615  0.00  0.00     0.278 HD
ENDROOT
BRANCH   1   4
ATOM      4  C1  GPJ d          59.443   8.241  28.086  0.00  0.00     0.183 C 
ATOM      5  H1  GPJ d          59.207   7.295  27.577  0.00  0.00     0.097 H 
ATOM      6  H2  GPJ d          58.540   8.866  28.137  0.00  0.00     0.097 H 
BRANCH   4   7
ATOM      7  P1  GPJ d          60.655   9.077  27.184  0.00  0.00     0.285 P 
ATOM      8  O1  GPJ d          61.542   9.801  28.140  0.00  0.00    -0.638 OA
ATOM      9  O2  GPJ d          59.861   9.975  26.303  0.00  0.00    -0.638 OA
ATOM     10  O3  GPJ d          61.424   8.068  26.393  0.00  0.00    -0.638 OA
ENDBRANCH   4   7
ENDBRANCH   1   4
BRANCH   1  11
ATOM     11  C2  GPJ d          59.347   8.709  30.580  0.00  0.00     0.161 C 
ATOM     12  H3  GPJ d          58.934   9.659  30.213  0.00  0.00     0.092 H 
ATOM     13  H4  GPJ d          58.547   8.119  31.052  0.00  0.00     0.092 H 
BRANCH  11  14
ATOM     14  C3  GPJ d          60.421   8.999  31.607  0.00  0.00     0.199 C 
ATOM     15  O4  GPJ d          61.172  10.021  31.451  0.00  0.00    -0.647 OA
ATOM     16  O5  GPJ d          60.502   8.226  32.549  0.00  0.00    -0.647 OA
ENDBRANCH  11  14
ENDBRANCH   1  11
TORSDOF 4
ENDMDL
MODEL 2
REMARK VINA RESULT:      -5.5      0.450      1.720
REMARK  4 active torsions:
REMARK  status: ('A' for Active; 'I' for Inactive)
REMARK    1  A    between atoms: C1_7  and  P1_1 
REMARK    2  A    between atoms: N1_10  and  C1_7 
REMARK    3  A    between atoms: C2_8  and  C3_9 
REMARK    4  A    between atoms: C2_8  and  N1_10 
ROOT
ATOM      1  N1  GPJ d          59.298   8.966  29.435  0.00  0.00    -0.053 N 
ATOM      2  H5  GPJ d          58.384   9.390  29.468  0.00  0.00     0.278 HD
ATOM      3  H6  GPJ d          60.004   9.685  29.485  0.00  0.00     0.278 HD
ENDROOT
BRANCH   1   4
ATOM      4  C1  GPJ d          59.426   8.340  28.124  0.00  0.00     0.183 C 
ATOM      5  H1  GPJ d          59.716   7.287  28.256  0.00  0.00     0.097 H 
ATOM      6  H2  GPJ d          58.457   8.392  27.607  0.00  0.00     0.097 H 
BRANCH   4   7
ATOM      7  P1  GPJ d          60.619   9.135  27.161  0.00  0.00     0.285 P 
ATOM      8  O1  GPJ d          59.931  10.096  26.252  0.00  0.00    -0.638 OA
ATOM      9  O2  GPJ d          61.287   8.010  26.453  0.00  0.00    -0.638 OA
ATOM     10  O3  GPJ d          61.561   9.843  28.081  0.00  0.00    -0.638 OA
ENDBRANCH   4   7
ENDBRANCH   1   4
BRANCH   1  11
ATOM     11  C2  GPJ d          59.435   8.153  30.656  0.00  0.00     0.161 C 
ATOM     12  H3  GPJ d          58.446   8.037  31.123  0.00  0.00     0.092 H 
ATOM     13  H4  GPJ d          59.830   7.163  30.386  0.00  0.00     0.092 H 
BRANCH  11  14
ATOM     14  C3  GPJ d          60.376   8.810  31.643  0.00  0.00     0.199 C 
ATOM     15  O4  GPJ d          60.502   8.308  32.812  0.00  0.00    -0.647 OA
ATOM     16  O5  GPJ d          60.979   9.797  31.252  0.00  0.00    -0.647 OA
ENDBRANCH  11  14
ENDBRANCH   1  11
TORSDOF 4
ENDMDL
MODEL 3
REMARK VINA RESULT:      -4.7      1.022      1.942
REMARK  4 active torsions:
REMARK  status: ('A' for Active; 'I' for Inactive)
REMARK    1  A    between atoms: C1_7  and  P1_1 
REMARK    2  A    between atoms: N1_10  and  C1_7 
REMARK    3  A    between atoms: C2_8  and  C3_9 
REMARK    4  A    between atoms: C2_8  and  N1_10 
ROOT
ATOM      1  N1  GPJ d          60.533   8.534  29.450  0.00  0.00    -0.053 N 
ATOM      2  H5  GPJ d          61.472   8.423  29.802  0.00  0.00     0.278 HD
ATOM      3  H6  GPJ d          60.242   7.682  28.996  0.00  0.00     0.278 HD
ENDROOT
BRANCH   1   4
ATOM      4  C1  GPJ d          60.589   9.563  28.418  0.00  0.00     0.183 C 
ATOM      5  H1  GPJ d          59.914  10.386  28.696  0.00  0.00     0.097 H 
ATOM      6  H2  GPJ d          61.619   9.942  28.345  0.00  0.00     0.097 H 
BRANCH   4   7
ATOM      7  P1  GPJ d          60.110   8.938  26.881  0.00  0.00     0.285 P 
ATOM      8  O1  GPJ d          58.908   8.076  27.074  0.00  0.00    -0.638 OA
ATOM      9  O2  GPJ d          61.317   8.196  26.427  0.00  0.00    -0.638 OA
ATOM     10  O3  GPJ d          59.806  10.095  25.984  0.00  0.00    -0.638 OA
ENDBRANCH   4   7
ENDBRANCH   1   4
BRANCH   1  11
ATOM     11  C2  GPJ d          59.659   8.712  30.621  0.00  0.00     0.161 C 
ATOM     12  H3  GPJ d          58.947   9.526  30.418  0.00  0.00     0.092 H 
ATOM     13  H4  GPJ d          59.106   7.779  30.803  0.00  0.00     0.092 H 
BRANCH  11  14
ATOM     14  C3  GPJ d          60.467   9.057  31.854  0.00  0.00     0.199 C 
ATOM     15  O4  GPJ d          60.451   8.260  32.853  0.00  0.00    -0.647 OA
ATOM     16  O5  GPJ d          61.109  10.095  31.817  0.00  0.00    -0.647 OA
ENDBRANCH  11  14
ENDBRANCH   1  11
TORSDOF 4
ENDMDL
MODEL 4
REMARK VINA RESULT:      -3.0      1.769      4.416
REMARK  4 active torsions:
REMARK  status: ('A' for Active; 'I' for Inactive)
REMARK    1  A    between atoms: C1_7  and  P1_1 
REMARK    2  A    between atoms: N1_10  and  C1_7 
REMARK    3  A    between atoms: C2_8  and  C3_9 
REMARK    4  A    between atoms: C2_8  and  N1_10 
ROOT
ATOM      1  N1  GPJ d          58.766   9.580  28.716  0.00  0.00    -0.053 N 
ATOM      2  H5  GPJ d          59.428  10.325  28.565  0.00  0.00     0.278 HD
ATOM      3  H6  GPJ d          57.859   9.862  28.376  0.00  0.00     0.278 HD
ENDROOT
BRANCH   1   4
ATOM      4  C1  GPJ d          58.641   9.412  30.159  0.00  0.00     0.183 C 
ATOM      5  H1  GPJ d          58.219  10.331  30.592  0.00  0.00     0.097 H 
ATOM      6  H2  GPJ d          57.967   8.567  30.365  0.00  0.00     0.097 H 
BRANCH   4   7
ATOM      7  P1  GPJ d          60.174   9.097  30.890  0.00  0.00     0.285 P 
ATOM      8  O1  GPJ d          61.230   9.216  29.844  0.00  0.00    -0.638 OA
ATOM      9  O2  GPJ d          60.014   7.720  31.431  0.00  0.00    -0.638 OA
ATOM     10  O3  GPJ d          60.381  10.097  31.982  0.00  0.00    -0.638 OA
ENDBRANCH   4   7
ENDBRANCH   1   4
BRANCH   1  11
ATOM     11  C2  GPJ d          59.200   8.449  27.877  0.00  0.00     0.161 C 
ATOM     12  H3  GPJ d          59.643   7.674  28.520  0.00  0.00     0.092 H 
ATOM     13  H4  GPJ d          58.327   8.034  27.352  0.00  0.00     0.092 H 
BRANCH  11  14
ATOM     14  C3  GPJ d          60.226   8.893  26.857  0.00  0.00     0.199 C 
ATOM     15  O4  GPJ d          61.243   8.151  26.633  0.00  0.00    -0.647 OA
ATOM     16  O5  GPJ d          60.013   9.953  26.290  0.00  0.00    -0.647 OA
ENDBRANCH  11  14
ENDBRANCH   1  11
TORSDOF 4
ENDMDL
MODEL 5
REMARK VINA RESULT:      -2.8      1.778      4.229
REMARK  4 active torsions:
REMARK  status: ('A' for Active; 'I' for Inactive)
REMARK    1  A    between atoms: C1_7  and  P1_1 
REMARK    2  A    between atoms: N1_10  and  C1_7 
REMARK    3  A    between atoms: C2_8  and  C3_9 
REMARK    4  A    between atoms: C2_8  and  N1_10 
ROOT
ATOM      1  N1  GPJ d          58.818   9.616  28.745  0.00  0.00    -0.053 N 
ATOM      2  H5  GPJ d          59.535  10.320  28.655  0.00  0.00     0.278 HD
ATOM      3  H6  GPJ d          57.944   9.981  28.402  0.00  0.00     0.278 HD
ENDROOT
BRANCH   1   4
ATOM      4  C1  GPJ d          58.642   9.372  30.172  0.00  0.00     0.183 C 
ATOM      5  H1  GPJ d          58.171  10.254  30.631  0.00  0.00     0.097 H 
ATOM      6  H2  GPJ d          57.991   8.496  30.308  0.00  0.00     0.097 H 
BRANCH   4   7
ATOM      7  P1  GPJ d          60.155   9.074  30.950  0.00  0.00     0.285 P 
ATOM      8  O1  GPJ d          60.347  10.097  32.018  0.00  0.00    -0.638 OA
ATOM      9  O2  GPJ d          61.134   9.176  29.835  0.00  0.00    -0.638 OA
ATOM     10  O3  GPJ d          60.117   7.694  31.525  0.00  0.00    -0.638 OA
ENDBRANCH   4   7
ENDBRANCH   1   4
BRANCH   1  11
ATOM     11  C2  GPJ d          59.196   8.508  27.850  0.00  0.00     0.161 C 
ATOM     12  H3  GPJ d          59.623   7.691  28.449  0.00  0.00     0.092 H 
ATOM     13  H4  GPJ d          58.300   8.148  27.324  0.00  0.00     0.092 H 
BRANCH  11  14
ATOM     14  C3  GPJ d          60.220   8.961  26.830  0.00  0.00     0.199 C 
ATOM     15  O4  GPJ d          60.054  10.082  26.236  0.00  0.00    -0.647 OA
ATOM     16  O5  GPJ d          61.169   8.218  26.637  0.00  0.00    -0.647 OA
ENDBRANCH  11  14
ENDBRANCH   1  11
TORSDOF 4
ENDMDL
