MODEL 1
REMARK VINA RESULT:      -6.3      0.000      0.000
REMARK  8 active torsions:
REMARK  status: ('A' for Active; 'I' for Inactive)
REMARK    1  A    between atoms: C2_2  and  C6_6 
REMARK    2  A    between atoms: C3_3  and  O20_16 
REMARK    3  A    between atoms: C5_5  and  C9_9 
REMARK    4  A    between atoms: C11_11  and  N29_21 
REMARK    5  A    between atoms: O20_16  and  C21_17 
REMARK    6  A    between atoms: C21_17  and  C22_18 
REMARK    7  A    between atoms: N29_21  and  C30_22 
REMARK    8  A    between atoms: C30_22  and  C31_23 
ROOT
ATOM      1  C9  MOL d          47.013  12.027   0.649  0.00  0.00    -0.015 A 
ATOM      2  C10 MOL d          46.703  10.718   1.153  0.00  0.00    -0.046 A 
ATOM      3  C11 MOL d          47.414   9.577   0.681  0.00  0.00     0.029 A 
ATOM      4  C12 MOL d          48.455   9.735  -0.310  0.00  0.00    -0.058 A 
ATOM      5  C13 MOL d          48.775  11.038  -0.818  0.00  0.00    -0.080 A 
ATOM      6  C14 MOL d          48.048  12.174  -0.334  0.00  0.00    -0.072 A 
ATOM      7  H1  MOL d          45.923  10.598   1.896  0.00  0.00     0.088 H 
ATOM      8  H2  MOL d          48.996   8.867  -0.670  0.00  0.00     0.086 H 
ATOM      9  H3  MOL d          49.557  11.162  -1.558  0.00  0.00     0.083 H 
ATOM     10  H4  MOL d          48.284  13.160  -0.717  0.00  0.00     0.084 H 
ENDROOT
BRANCH   1  11
ATOM     11  C5  MOL d          46.275  13.241   1.124  0.00  0.00     0.036 A 
ATOM     12  S1  MOL d          45.199  14.057   0.116  0.00  0.00    -0.078 SA
ATOM     13  C2  MOL d          44.760  15.252   1.254  0.00  0.00     0.117 A 
ATOM     14  C3  MOL d          45.458  15.027   2.471  0.00  0.00     0.112 A 
ATOM     15  C4  MOL d          46.311  13.893   2.383  0.00  0.00     0.064 A 
ATOM     16 BR19 MOL d          47.378  13.336   3.846  0.00  0.00    -0.047 Br
BRANCH  13  17
ATOM     17  C6  MOL d          43.827  16.258   0.916  0.00  0.00     0.219 C 
ATOM     18  O7  MOL d          43.447  17.077   1.750  0.00  0.00    -0.643 OA
ATOM     19  O8  MOL d          43.413  16.282  -0.248  0.00  0.00    -0.643 OA
ENDBRANCH  13  17
BRANCH  14  20
ATOM     20  O20 MOL d          45.362  15.801   3.679  0.00  0.00    -0.338 OA
BRANCH  20  21
ATOM     21  C21 MOL d          45.918  17.119   3.603  0.00  0.00     0.106 C 
ATOM     22  H5  MOL d          45.241  17.830   4.101  0.00  0.00     0.091 H 
ATOM     23  H6  MOL d          46.038  17.404   2.548  0.00  0.00     0.091 H 
BRANCH  21  24
ATOM     24  C22 MOL d          47.280  17.145   4.295  0.00  0.00     0.198 C 
ATOM     25  O25 MOL d          48.299  16.863   3.639  0.00  0.00    -0.646 OA
ATOM     26  O26 MOL d          47.323  17.449   5.490  0.00  0.00    -0.646 OA
ENDBRANCH  21  24
ENDBRANCH  20  21
ENDBRANCH  14  20
ENDBRANCH   1  11
BRANCH   3  27
ATOM     27  N29 MOL d          47.056   8.350   1.211  0.00  0.00    -0.386 N 
ATOM     28  H7  MOL d          46.150   8.291   1.699  0.00  0.00     0.160 HD
BRANCH  27  29
ATOM     29  C30 MOL d          47.864   7.121   1.132  0.00  0.00     0.016 C 
ATOM     30  H8  MOL d          48.628   7.254   0.352  0.00  0.00     0.071 H 
ATOM     31  H9  MOL d          47.203   6.285   0.860  0.00  0.00     0.071 H 
BRANCH  29  32
ATOM     32  C31 MOL d          48.559   6.779   2.433  0.00  0.00    -0.041 A 
ATOM     33  C34 MOL d          48.050   7.309   3.672  0.00  0.00    -0.075 A 
ATOM     34  C35 MOL d          48.699   6.987   4.906  0.00  0.00    -0.082 A 
ATOM     35  H10 MOL d          47.177   7.951   3.670  0.00  0.00     0.084 H 
ATOM     36  C36 MOL d          49.854   6.134   4.882  0.00  0.00    -0.083 A 
ATOM     37  H11 MOL d          48.325   7.380   5.845  0.00  0.00     0.083 H 
ATOM     38  C37 MOL d          50.369   5.601   3.646  0.00  0.00    -0.082 A 
ATOM     39  H12 MOL d          50.350   5.886   5.814  0.00  0.00     0.083 H 
ATOM     40  C38 MOL d          49.714   5.927   2.411  0.00  0.00    -0.075 A 
ATOM     41  H13 MOL d          51.243   4.960   3.649  0.00  0.00     0.083 H 
ATOM     42  H14 MOL d          50.087   5.534   1.472  0.00  0.00     0.084 H 
ENDBRANCH  29  32
ENDBRANCH  27  29
ENDBRANCH   3  27
TORSDOF 8
ENDMDL
MODEL 2
REMARK VINA RESULT:      -5.8      4.604      8.461
REMARK  8 active torsions:
REMARK  status: ('A' for Active; 'I' for Inactive)
REMARK    1  A    between atoms: C2_2  and  C6_6 
REMARK    2  A    between atoms: C3_3  and  O20_16 
REMARK    3  A    between atoms: C5_5  and  C9_9 
REMARK    4  A    between atoms: C11_11  and  N29_21 
REMARK    5  A    between atoms: O20_16  and  C21_17 
REMARK    6  A    between atoms: C21_17  and  C22_18 
REMARK    7  A    between atoms: N29_21  and  C30_22 
REMARK    8  A    between atoms: C30_22  and  C31_23 
ROOT
ATOM      1  C9  MOL d          46.072  13.096   0.336  0.00  0.00    -0.015 A 
ATOM      2  C10 MOL d          45.605  13.624   1.588  0.00  0.00    -0.046 A 
ATOM      3  C11 MOL d          44.802  14.801   1.619  0.00  0.00     0.029 A 
ATOM      4  C12 MOL d          44.454  15.469   0.385  0.00  0.00    -0.058 A 
ATOM      5  C13 MOL d          44.913  14.949  -0.871  0.00  0.00    -0.080 A 
ATOM      6  C14 MOL d          45.721  13.766  -0.883  0.00  0.00    -0.072 A 
ATOM      7  H1  MOL d          45.864  13.124   2.514  0.00  0.00     0.088 H 
ATOM      8  H2  MOL d          43.844  16.365   0.408  0.00  0.00     0.086 H 
ATOM      9  H3  MOL d          44.652  15.444  -1.799  0.00  0.00     0.083 H 
ATOM     10  H4  MOL d          46.073  13.371  -1.829  0.00  0.00     0.084 H 
ENDROOT
BRANCH   1  11
ATOM     11  C5  MOL d          46.922  11.864   0.279  0.00  0.00     0.036 A 
ATOM     12  S1  MOL d          48.601  11.958   0.399  0.00  0.00    -0.078 SA
ATOM     13  C2  MOL d          48.883  10.279   0.266  0.00  0.00     0.117 A 
ATOM     14  C3  MOL d          47.644   9.600   0.126  0.00  0.00     0.112 A 
ATOM     15  C4  MOL d          46.547  10.504   0.131  0.00  0.00     0.064 A 
ATOM     16 BR19 MOL d          44.759   9.902  -0.040  0.00  0.00    -0.047 Br
BRANCH  13  17
ATOM     17  C6  MOL d          50.199   9.766   0.307  0.00  0.00     0.219 C 
ATOM     18  O7  MOL d          50.987   9.969  -0.615  0.00  0.00    -0.643 OA
ATOM     19  O8  MOL d          50.525   9.113   1.304  0.00  0.00    -0.643 OA
ENDBRANCH  13  17
BRANCH  14  20
ATOM     20  O20 MOL d          47.444   8.182  -0.003  0.00  0.00    -0.338 OA
BRANCH  20  21
ATOM     21  C21 MOL d          47.432   7.454   1.230  0.00  0.00     0.106 C 
ATOM     22  H5  MOL d          46.461   6.950   1.348  0.00  0.00     0.091 H 
ATOM     23  H6  MOL d          47.588   8.151   2.066  0.00  0.00     0.091 H 
BRANCH  21  24
ATOM     24  C22 MOL d          48.548   6.410   1.225  0.00  0.00     0.198 C 
ATOM     25  O25 MOL d          49.077   6.082   2.302  0.00  0.00    -0.646 OA
ATOM     26  O26 MOL d          48.887   5.921   0.144  0.00  0.00    -0.646 OA
ENDBRANCH  21  24
ENDBRANCH  20  21
ENDBRANCH  14  20
ENDBRANCH   1  11
BRANCH   3  27
ATOM     27  N29 MOL d          44.393  15.251   2.862  0.00  0.00    -0.386 N 
ATOM     28  H7  MOL d          43.782  14.631   3.413  0.00  0.00     0.160 HD
BRANCH  27  29
ATOM     29  C30 MOL d          44.762  16.544   3.462  0.00  0.00     0.016 C 
ATOM     30  H8  MOL d          44.106  16.729   4.325  0.00  0.00     0.071 H 
ATOM     31  H9  MOL d          44.613  17.333   2.710  0.00  0.00     0.071 H 
BRANCH  29  32
ATOM     32  C31 MOL d          46.201  16.596   3.933  0.00  0.00    -0.041 A 
ATOM     33  C34 MOL d          47.201  15.815   3.250  0.00  0.00    -0.075 A 
ATOM     34  C35 MOL d          48.563  15.863   3.686  0.00  0.00    -0.082 A 
ATOM     35  H10 MOL d          46.922  15.193   2.408  0.00  0.00     0.084 H 
ATOM     36  C36 MOL d          48.906  16.695   4.804  0.00  0.00    -0.083 A 
ATOM     37  H11 MOL d          49.324  15.279   3.180  0.00  0.00     0.083 H 
ATOM     38  C37 MOL d          47.911  17.478   5.491  0.00  0.00    -0.082 A 
ATOM     39  H12 MOL d          49.937  16.735   5.139  0.00  0.00     0.083 H 
ATOM     40  C38 MOL d          46.545  17.428   5.050  0.00  0.00    -0.075 A 
ATOM     41  H13 MOL d          48.191  18.100   6.335  0.00  0.00     0.083 H 
ATOM     42  H14 MOL d          45.784  18.011   5.555  0.00  0.00     0.084 H 
ENDBRANCH  29  32
ENDBRANCH  27  29
ENDBRANCH   3  27
TORSDOF 8
ENDMDL
MODEL 3
REMARK VINA RESULT:      -4.9      4.319      8.133
REMARK  8 active torsions:
REMARK  status: ('A' for Active; 'I' for Inactive)
REMARK    1  A    between atoms: C2_2  and  C6_6 
REMARK    2  A    between atoms: C3_3  and  O20_16 
REMARK    3  A    between atoms: C5_5  and  C9_9 
REMARK    4  A    between atoms: C11_11  and  N29_21 
REMARK    5  A    between atoms: O20_16  and  C21_17 
REMARK    6  A    between atoms: C21_17  and  C22_18 
REMARK    7  A    between atoms: N29_21  and  C30_22 
REMARK    8  A    between atoms: C30_22  and  C31_23 
ROOT
ATOM      1  C9  MOL d          46.136  13.117   0.615  0.00  0.00    -0.015 A 
ATOM      2  C10 MOL d          45.553  13.748   1.766  0.00  0.00    -0.046 A 
ATOM      3  C11 MOL d          44.563  14.762   1.607  0.00  0.00     0.029 A 
ATOM      4  C12 MOL d          44.144  15.159   0.281  0.00  0.00    -0.058 A 
ATOM      5  C13 MOL d          44.718  14.533  -0.875  0.00  0.00    -0.080 A 
ATOM      6  C14 MOL d          45.713  13.517  -0.696  0.00  0.00    -0.072 A 
ATOM      7  H1  MOL d          45.866  13.451   2.760  0.00  0.00     0.088 H 
ATOM      8  H2  MOL d          43.393  15.931   0.160  0.00  0.00     0.086 H 
ATOM      9  H3  MOL d          44.404  14.825  -1.870  0.00  0.00     0.083 H 
ATOM     10  H4  MOL d          46.153  13.044  -1.566  0.00  0.00     0.084 H 
ENDROOT
BRANCH   1  11
ATOM     11  C5  MOL d          47.182  12.054   0.756  0.00  0.00     0.036 A 
ATOM     12  S1  MOL d          48.356  11.823  -0.430  0.00  0.00    -0.078 SA
ATOM     13  C2  MOL d          49.152  10.532   0.355  0.00  0.00     0.117 A 
ATOM     14  C3  MOL d          48.504  10.255   1.587  0.00  0.00     0.112 A 
ATOM     15  C4  MOL d          47.393  11.116   1.800  0.00  0.00     0.064 A 
ATOM     16 BR19 MOL d          46.321  10.992   3.357  0.00  0.00    -0.047 Br
BRANCH  13  17
ATOM     17  C6  MOL d          50.280   9.919  -0.236  0.00  0.00     0.219 C 
ATOM     18  O7  MOL d          50.298   8.711  -0.464  0.00  0.00    -0.643 OA
ATOM     19  O8  MOL d          51.242  10.643  -0.514  0.00  0.00    -0.643 OA
ENDBRANCH  13  17
BRANCH  14  20
ATOM     20  O20 MOL d          48.869   9.252   2.550  0.00  0.00    -0.338 OA
BRANCH  20  21
ATOM     21  C21 MOL d          48.130   8.028   2.465  0.00  0.00     0.106 C 
ATOM     22  H5  MOL d          48.227   7.612   1.451  0.00  0.00     0.091 H 
ATOM     23  H6  MOL d          47.070   8.227   2.680  0.00  0.00     0.091 H 
BRANCH  21  24
ATOM     24  C22 MOL d          48.674   7.024   3.479  0.00  0.00     0.198 C 
ATOM     25  O25 MOL d          49.533   6.200   3.117  0.00  0.00    -0.646 OA
ATOM     26  O26 MOL d          48.240   7.065   4.634  0.00  0.00    -0.646 OA
ENDBRANCH  21  24
ENDBRANCH  20  21
ENDBRANCH  14  20
ENDBRANCH   1  11
BRANCH   3  27
ATOM     27  N29 MOL d          44.051  15.326   2.762  0.00  0.00    -0.386 N 
ATOM     28  H7  MOL d          43.331  14.793   3.270  0.00  0.00     0.160 HD
BRANCH  27  29
ATOM     29  C30 MOL d          44.452  16.627   3.323  0.00  0.00     0.016 C 
ATOM     30  H8  MOL d          43.775  16.873   4.155  0.00  0.00     0.071 H 
ATOM     31  H9  MOL d          44.360  17.391   2.537  0.00  0.00     0.071 H 
BRANCH  29  32
ATOM     32  C31 MOL d          45.875  16.641   3.842  0.00  0.00    -0.041 A 
ATOM     33  C34 MOL d          46.869  17.438   3.169  0.00  0.00    -0.075 A 
ATOM     34  C35 MOL d          48.214  17.460   3.655  0.00  0.00    -0.082 A 
ATOM     35  H10 MOL d          46.597  18.020   2.295  0.00  0.00     0.084 H 
ATOM     36  C36 MOL d          48.547  16.681   4.814  0.00  0.00    -0.083 A 
ATOM     37  H11 MOL d          48.970  18.056   3.157  0.00  0.00     0.083 H 
ATOM     38  C37 MOL d          47.558  15.881   5.491  0.00  0.00    -0.082 A 
ATOM     39  H12 MOL d          49.565  16.694   5.187  0.00  0.00     0.083 H 
ATOM     40  C38 MOL d          46.209  15.863   5.000  0.00  0.00    -0.075 A 
ATOM     41  H13 MOL d          47.831  15.299   6.364  0.00  0.00     0.083 H 
ATOM     42  H14 MOL d          45.453  15.267   5.498  0.00  0.00     0.084 H 
ENDBRANCH  29  32
ENDBRANCH  27  29
ENDBRANCH   3  27
TORSDOF 8
ENDMDL
MODEL 4
REMARK VINA RESULT:      -4.2      4.655      8.256
REMARK  8 active torsions:
REMARK  status: ('A' for Active; 'I' for Inactive)
REMARK    1  A    between atoms: C2_2  and  C6_6 
REMARK    2  A    between atoms: C3_3  and  O20_16 
REMARK    3  A    between atoms: C5_5  and  C9_9 
REMARK    4  A    between atoms: C11_11  and  N29_21 
REMARK    5  A    between atoms: O20_16  and  C21_17 
REMARK    6  A    between atoms: C21_17  and  C22_18 
REMARK    7  A    between atoms: N29_21  and  C30_22 
REMARK    8  A    between atoms: C30_22  and  C31_23 
ROOT
ATOM      1  C9  MOL d          45.895  12.866   0.655  0.00  0.00    -0.015 A 
ATOM      2  C10 MOL d          45.408  13.604   1.786  0.00  0.00    -0.046 A 
ATOM      3  C11 MOL d          44.638  14.789   1.596  0.00  0.00     0.029 A 
ATOM      4  C12 MOL d          44.343  15.250   0.258  0.00  0.00    -0.058 A 
ATOM      5  C13 MOL d          44.823  14.518  -0.879  0.00  0.00    -0.080 A 
ATOM      6  C14 MOL d          45.597  13.331  -0.669  0.00  0.00    -0.072 A 
ATOM      7  H1  MOL d          45.628  13.260   2.790  0.00  0.00     0.088 H 
ATOM      8  H2  MOL d          43.759  16.151   0.113  0.00  0.00     0.086 H 
ATOM      9  H3  MOL d          44.601  14.858  -1.884  0.00  0.00     0.083 H 
ATOM     10  H4  MOL d          45.964  12.776  -1.525  0.00  0.00     0.084 H 
ENDROOT
BRANCH   1  11
ATOM     11  C5  MOL d          46.712  11.622   0.829  0.00  0.00     0.036 A 
ATOM     12  S1  MOL d          46.020  10.200   1.412  0.00  0.00    -0.078 SA
ATOM     13  C2  MOL d          47.449   9.267   1.348  0.00  0.00     0.117 A 
ATOM     14  C3  MOL d          48.515  10.066   0.855  0.00  0.00     0.112 A 
ATOM     15  C4  MOL d          48.087  11.391   0.570  0.00  0.00     0.064 A 
ATOM     16 BR19 MOL d          49.283  12.700  -0.101  0.00  0.00    -0.047 Br
BRANCH  13  17
ATOM     17  C6  MOL d          47.440   7.912   1.748  0.00  0.00     0.219 C 
ATOM     18  O7  MOL d          47.426   7.603   2.938  0.00  0.00    -0.643 OA
ATOM     19  O8  MOL d          47.445   7.055   0.859  0.00  0.00    -0.643 OA
ENDBRANCH  13  17
BRANCH  14  20
ATOM     20  O20 MOL d          49.876   9.655   0.640  0.00  0.00    -0.338 OA
BRANCH  20  21
ATOM     21  C21 MOL d          50.094   8.867  -0.536  0.00  0.00     0.106 C 
ATOM     22  H5  MOL d          50.835   9.367  -1.179  0.00  0.00     0.091 H 
ATOM     23  H6  MOL d          49.147   8.758  -1.083  0.00  0.00     0.091 H 
BRANCH  21  24
ATOM     24  C22 MOL d          50.615   7.485  -0.142  0.00  0.00     0.198 C 
ATOM     25  O25 MOL d          50.378   6.514  -0.883  0.00  0.00    -0.646 OA
ATOM     26  O26 MOL d          51.260   7.380   0.905  0.00  0.00    -0.646 OA
ENDBRANCH  21  24
ENDBRANCH  20  21
ENDBRANCH  14  20
ENDBRANCH   1  11
BRANCH   3  27
ATOM     27  N29 MOL d          44.208  15.448   2.734  0.00  0.00    -0.386 N 
ATOM     28  H7  MOL d          43.411  15.042   3.244  0.00  0.00     0.160 HD
BRANCH  27  29
ATOM     29  C30 MOL d          44.799  16.684   3.275  0.00  0.00     0.016 C 
ATOM     30  H8  MOL d          44.211  16.999   4.149  0.00  0.00     0.071 H 
ATOM     31  H9  MOL d          44.750  17.463   2.499  0.00  0.00     0.071 H 
BRANCH  29  32
ATOM     32  C31 MOL d          46.243  16.520   3.701  0.00  0.00    -0.041 A 
ATOM     33  C34 MOL d          47.223  17.489   3.281  0.00  0.00    -0.075 A 
ATOM     34  C35 MOL d          48.588  17.343   3.684  0.00  0.00    -0.082 A 
ATOM     35  H10 MOL d          46.926  18.327   2.662  0.00  0.00     0.084 H 
ATOM     36  C36 MOL d          48.955  16.224   4.504  0.00  0.00    -0.083 A 
ATOM     37  H11 MOL d          49.334  18.066   3.374  0.00  0.00     0.083 H 
ATOM     38  C37 MOL d          47.980  15.250   4.927  0.00  0.00    -0.082 A 
ATOM     39  H12 MOL d          49.988  16.108   4.813  0.00  0.00     0.083 H 
ATOM     40  C38 MOL d          46.611  15.401   4.522  0.00  0.00    -0.075 A 
ATOM     41  H13 MOL d          48.278  14.411   5.546  0.00  0.00     0.083 H 
ATOM     42  H14 MOL d          45.865  14.679   4.831  0.00  0.00     0.084 H 
ENDBRANCH  29  32
ENDBRANCH  27  29
ENDBRANCH   3  27
TORSDOF 8
ENDMDL
MODEL 5
REMARK VINA RESULT:      -4.1      5.222      8.993
REMARK  8 active torsions:
REMARK  status: ('A' for Active; 'I' for Inactive)
REMARK    1  A    between atoms: C2_2  and  C6_6 
REMARK    2  A    between atoms: C3_3  and  O20_16 
REMARK    3  A    between atoms: C5_5  and  C9_9 
REMARK    4  A    between atoms: C11_11  and  N29_21 
REMARK    5  A    between atoms: O20_16  and  C21_17 
REMARK    6  A    between atoms: C21_17  and  C22_18 
REMARK    7  A    between atoms: N29_21  and  C30_22 
REMARK    8  A    between atoms: C30_22  and  C31_23 
ROOT
ATOM      1  C9  MOL d          47.593  10.756   1.629  0.00  0.00    -0.015 A 
ATOM      2  C10 MOL d          47.796  11.536   2.818  0.00  0.00    -0.046 A 
ATOM      3  C11 MOL d          47.082  12.755   3.011  0.00  0.00     0.029 A 
ATOM      4  C12 MOL d          46.147  13.209   2.007  0.00  0.00    -0.058 A 
ATOM      5  C13 MOL d          45.935  12.436   0.817  0.00  0.00    -0.080 A 
ATOM      6  C14 MOL d          46.663  11.216   0.638  0.00  0.00    -0.072 A 
ATOM      7  H1  MOL d          48.497  11.196   3.573  0.00  0.00     0.088 H 
ATOM      8  H2  MOL d          45.605  14.137   2.153  0.00  0.00     0.086 H 
ATOM      9  H3  MOL d          45.232  12.772   0.062  0.00  0.00     0.083 H 
ATOM     10  H4  MOL d          46.508  10.629  -0.260  0.00  0.00     0.084 H 
ENDROOT
BRANCH   1  11
ATOM     11  C5  MOL d          48.336   9.476   1.401  0.00  0.00     0.036 A 
ATOM     12  S1  MOL d          49.221   9.222  -0.010  0.00  0.00    -0.078 SA
ATOM     13  C2  MOL d          49.763   7.655   0.398  0.00  0.00     0.117 A 
ATOM     14  C3  MOL d          49.255   7.295   1.675  0.00  0.00     0.112 A 
ATOM     15  C4  MOL d          48.450   8.328   2.227  0.00  0.00     0.064 A 
ATOM     16 BR19 MOL d          47.626   8.148   3.924  0.00  0.00    -0.047 Br
BRANCH  13  17
ATOM     17  C6  MOL d          50.593   6.929  -0.485  0.00  0.00     0.219 C 
ATOM     18  O7  MOL d          50.295   5.791  -0.845  0.00  0.00    -0.643 OA
ATOM     19  O8  MOL d          51.624   7.482  -0.882  0.00  0.00    -0.643 OA
ENDBRANCH  13  17
BRANCH  14  20
ATOM     20  O20 MOL d          49.487   6.066   2.383  0.00  0.00    -0.338 OA
BRANCH  20  21
ATOM     21  C21 MOL d          50.821   5.889   2.874  0.00  0.00     0.106 C 
ATOM     22  H5  MOL d          51.525   6.425   2.220  0.00  0.00     0.091 H 
ATOM     23  H6  MOL d          51.068   4.817   2.878  0.00  0.00     0.091 H 
BRANCH  21  24
ATOM     24  C22 MOL d          50.926   6.440   4.295  0.00  0.00     0.198 C 
ATOM     25  O25 MOL d          51.403   7.575   4.471  0.00  0.00    -0.646 OA
ATOM     26  O26 MOL d          50.530   5.734   5.227  0.00  0.00    -0.646 OA
ENDBRANCH  21  24
ENDBRANCH  20  21
ENDBRANCH  14  20
ENDBRANCH   1  11
BRANCH   3  27
ATOM     27  N29 MOL d          47.335  13.453   4.179  0.00  0.00    -0.386 N 
ATOM     28  H7  MOL d          48.194  13.216   4.696  0.00  0.00     0.160 HD
BRANCH  27  29
ATOM     29  C30 MOL d          46.475  14.507   4.742  0.00  0.00     0.016 C 
ATOM     30  H8  MOL d          47.050  15.061   5.499  0.00  0.00     0.071 H 
ATOM     31  H9  MOL d          45.605  14.031   5.218  0.00  0.00     0.071 H 
BRANCH  29  32
ATOM     32  C31 MOL d          45.977  15.490   3.703  0.00  0.00    -0.041 A 
ATOM     33  C34 MOL d          46.839  16.557   3.262  0.00  0.00    -0.075 A 
ATOM     34  C35 MOL d          46.377  17.487   2.277  0.00  0.00    -0.082 A 
ATOM     35  H10 MOL d          47.836  16.654   3.676  0.00  0.00     0.084 H 
ATOM     36  C36 MOL d          45.052  17.335   1.746  0.00  0.00    -0.083 A 
ATOM     37  H11 MOL d          47.017  18.293   1.939  0.00  0.00     0.083 H 
ATOM     38  C37 MOL d          44.184  16.270   2.183  0.00  0.00    -0.082 A 
ATOM     39  H12 MOL d          44.696  18.036   0.999  0.00  0.00     0.083 H 
ATOM     40  C38 MOL d          44.653  15.339   3.170  0.00  0.00    -0.075 A 
ATOM     41  H13 MOL d          43.187  16.174   1.769  0.00  0.00     0.083 H 
ATOM     42  H14 MOL d          44.014  14.533   3.510  0.00  0.00     0.084 H 
ENDBRANCH  29  32
ENDBRANCH  27  29
ENDBRANCH   3  27
TORSDOF 8
ENDMDL
