MODEL 1
REMARK VINA RESULT:      -6.3      0.000      0.000
REMARK  11 active torsions:
REMARK  status: ('A' for Active; 'I' for Inactive)
REMARK    1  A    between atoms: C24_1  and  C23_2 
REMARK       I    between atoms: C23_2  and  N22_4 
REMARK    2  A    between atoms: N22_4  and  C19_5 
REMARK    3  A    between atoms: C16_10  and  O14_11 
REMARK    4  A    between atoms: O14_11  and  C13_12 
REMARK    5  A    between atoms: C13_12  and  C11_13 
REMARK    6  A    between atoms: C11_13  and  O11_14 
REMARK    7  A    between atoms: C11_13  and  C12_15 
REMARK    8  A    between atoms: C11_13  and  C10_16 
REMARK       I    between atoms: C10_16  and  N9_18 
REMARK    9  A    between atoms: N9_18  and  C6_19 
REMARK   10  A    between atoms: C3_23  and  N8_24 
REMARK   11  A    between atoms: C4_27  and  C7_28 
ROOT
ATOM      1  C11 B68 d          29.748   0.092   3.414  0.00  0.00     0.156 C 
ENDROOT
BRANCH   1   2
ATOM      2  C13 B68 d          28.350  -0.462   3.186  0.00  0.00     0.063 C 
ATOM      3  H9  B68 d          27.902   0.028   2.309  0.00  0.00     0.080 H 
ATOM      4  H10 B68 d          28.413  -1.546   3.008  0.00  0.00     0.080 H 
BRANCH   2   5
ATOM      5  O14 B68 d          27.528  -0.218   4.339  0.00  0.00    -0.348 OA
BRANCH   5   6
ATOM      6  C16 B68 d          26.829   0.945   4.230  0.00  0.00     0.069 A 
ATOM      7  C17 B68 d          25.695   1.016   3.426  0.00  0.00    -0.049 A 
ATOM      8  C18 B68 d          24.958   2.195   3.360  0.00  0.00    -0.054 A 
ATOM      9  H6  B68 d          25.385   0.152   2.851  0.00  0.00     0.087 H 
ATOM     10  C19 B68 d          25.343   3.313   4.098  0.00  0.00     0.034 A 
ATOM     11  H5  B68 d          24.077   2.244   2.730  0.00  0.00     0.087 H 
ATOM     12  C20 B68 d          26.476   3.235   4.903  0.00  0.00    -0.054 A 
ATOM     13  C21 B68 d          27.217   2.059   4.970  0.00  0.00    -0.049 A 
ATOM     14  H7  B68 d          26.783   4.098   5.483  0.00  0.00     0.087 H 
ATOM     15  H8  B68 d          28.098   2.010   5.600  0.00  0.00     0.087 H 
BRANCH  10  16
ATOM     16  N22 B68 d          24.675   4.466   4.046  0.00  0.00    -0.328 N 
ATOM     17  C23 B68 d          25.151   5.599   3.534  0.00  0.00     0.218 C 
ATOM     18  O23 B68 d          26.257   5.720   3.008  0.00  0.00    -0.274 OA
ATOM     19  H4  B68 d          23.748   4.480   4.420  0.00  0.00     0.169 HD
BRANCH  17  20
ATOM     20  C24 B68 d          24.189   6.787   3.608  0.00  0.00    -0.003 C 
ATOM     21  H1  B68 d          24.467   7.432   4.454  0.00  0.00     0.040 H 
ATOM     22  H2  B68 d          23.162   6.419   3.748  0.00  0.00     0.040 H 
ATOM     23  H3  B68 d          24.247   7.364   2.673  0.00  0.00     0.040 H 
ENDBRANCH  17  20
ENDBRANCH  10  16
ENDBRANCH   5   6
ENDBRANCH   2   5
ENDBRANCH   1   2
BRANCH   1  24
ATOM     24  O11 B68 d          30.661  -0.537   2.512  0.00  0.00    -0.378 OA
ATOM     25  H11 B68 d          31.251   0.115   2.154  0.00  0.00     0.211 HD
ENDBRANCH   1  24
BRANCH   1  26
ATOM     26  C12 B68 d          29.739   1.606   3.189  0.00  0.00    -0.037 C 
ATOM     27  H12 B68 d          30.327   2.097   3.978  0.00  0.00     0.032 H 
ATOM     28  H13 B68 d          28.704   1.975   3.220  0.00  0.00     0.032 H 
ATOM     29  H14 B68 d          30.180   1.832   2.208  0.00  0.00     0.032 H 
ENDBRANCH   1  26
BRANCH   1  30
ATOM     30  C10 B68 d          30.166  -0.224   4.850  0.00  0.00     0.258 C 
ATOM     31  O10 B68 d          30.852  -1.216   5.095  0.00  0.00    -0.270 OA
ATOM     32  N9  B68 d          29.755   0.663   5.755  0.00  0.00    -0.325 N 
ATOM     33  H15 B68 d          29.218   1.438   5.423  0.00  0.00     0.169 HD
BRANCH  32  34
ATOM     34  C6  B68 d          30.000   0.604   7.063  0.00  0.00     0.035 A 
ATOM     35  C5  B68 d          29.076   1.002   8.028  0.00  0.00    -0.040 A 
ATOM     36  C4  B68 d          29.316   0.891   9.397  0.00  0.00     0.083 A 
ATOM     37  H16 B68 d          28.129   1.416   7.699  0.00  0.00     0.088 H 
ATOM     38  C3  B68 d          30.540   0.346   9.802  0.00  0.00     0.118 A 
ATOM     39  C2  B68 d          31.476  -0.039   8.846  0.00  0.00    -0.048 A 
ATOM     40  C1  B68 d          31.218   0.084   7.484  0.00  0.00    -0.055 A 
ATOM     41  H18 B68 d          32.428  -0.444   9.169  0.00  0.00     0.087 H 
ATOM     42  H17 B68 d          31.961  -0.224   6.757  0.00  0.00     0.087 H 
BRANCH  36  43
ATOM     43  C7  B68 d          28.242   1.399  10.378  0.00  0.00     0.419 C 
ATOM     44  F2  B68 d          27.724   2.547   9.951  0.00  0.00    -0.166 F 
ATOM     45  F1  B68 d          27.245   0.536  10.551  0.00  0.00    -0.166 F 
ATOM     46  F3  B68 d          28.742   1.630  11.588  0.00  0.00    -0.166 F 
ENDBRANCH  36  43
BRANCH  38  47
ATOM     47  N8  B68 d          30.883   0.138  11.073  0.00  0.00    -0.115 N 
ATOM     48  O1  B68 d          30.008  -0.444  12.029  0.00  0.00    -0.532 OA
ATOM     49  O2  B68 d          32.214   0.409  11.490  0.00  0.00    -0.532 OA
ENDBRANCH  38  47
ENDBRANCH  32  34
ENDBRANCH   1  30
TORSDOF 11
ENDMDL
MODEL 2
REMARK VINA RESULT:      -4.6      1.853      4.650
REMARK  11 active torsions:
REMARK  status: ('A' for Active; 'I' for Inactive)
REMARK    1  A    between atoms: C24_1  and  C23_2 
REMARK       I    between atoms: C23_2  and  N22_4 
REMARK    2  A    between atoms: N22_4  and  C19_5 
REMARK    3  A    between atoms: C16_10  and  O14_11 
REMARK    4  A    between atoms: O14_11  and  C13_12 
REMARK    5  A    between atoms: C13_12  and  C11_13 
REMARK    6  A    between atoms: C11_13  and  O11_14 
REMARK    7  A    between atoms: C11_13  and  C12_15 
REMARK    8  A    between atoms: C11_13  and  C10_16 
REMARK       I    between atoms: C10_16  and  N9_18 
REMARK    9  A    between atoms: N9_18  and  C6_19 
REMARK   10  A    between atoms: C3_23  and  N8_24 
REMARK   11  A    between atoms: C4_27  and  C7_28 
ROOT
ATOM      1  C11 B68 d          26.518   4.372   3.727  0.00  0.00     0.156 C 
ENDROOT
BRANCH   1   2
ATOM      2  C13 B68 d          25.333   3.442   3.941  0.00  0.00     0.063 C 
ATOM      3  H9  B68 d          25.453   2.914   4.898  0.00  0.00     0.080 H 
ATOM      4  H10 B68 d          24.406   4.033   3.961  0.00  0.00     0.080 H 
BRANCH   2   5
ATOM      5  O14 B68 d          25.261   2.482   2.874  0.00  0.00    -0.348 OA
BRANCH   5   6
ATOM      6  C16 B68 d          26.194   1.500   3.007  0.00  0.00     0.069 A 
ATOM      7  C17 B68 d          26.052   0.517   3.982  0.00  0.00    -0.049 A 
ATOM      8  C18 B68 d          26.985  -0.512   4.078  0.00  0.00    -0.054 A 
ATOM      9  H6  B68 d          25.214   0.552   4.667  0.00  0.00     0.087 H 
ATOM     10  C19 B68 d          28.066  -0.571   3.200  0.00  0.00     0.034 A 
ATOM     11  H5  B68 d          26.869  -1.273   4.841  0.00  0.00     0.087 H 
ATOM     12  C20 B68 d          28.201   0.413   2.225  0.00  0.00    -0.054 A 
ATOM     13  C21 B68 d          27.272   1.445   2.127  0.00  0.00    -0.049 A 
ATOM     14  H7  B68 d          29.037   0.375   1.536  0.00  0.00     0.087 H 
ATOM     15  H8  B68 d          27.387   2.206   1.364  0.00  0.00     0.087 H 
BRANCH  10  16
ATOM     16  N22 B68 d          28.991  -1.529   3.273  0.00  0.00    -0.328 N 
ATOM     17  C23 B68 d          30.289  -1.319   3.482  0.00  0.00     0.218 C 
ATOM     18  O23 B68 d          30.799  -0.215   3.672  0.00  0.00    -0.274 OA
ATOM     19  H4  B68 d          28.687  -2.475   3.162  0.00  0.00     0.169 HD
BRANCH  17  20
ATOM     20  C24 B68 d          31.145  -2.587   3.508  0.00  0.00    -0.003 C 
ATOM     21  H1  B68 d          32.208  -2.314   3.437  0.00  0.00     0.040 H 
ATOM     22  H2  B68 d          30.875  -3.231   2.658  0.00  0.00     0.040 H 
ATOM     23  H3  B68 d          30.969  -3.129   4.449  0.00  0.00     0.040 H 
ENDBRANCH  17  20
ENDBRANCH  10  16
ENDBRANCH   5   6
ENDBRANCH   2   5
ENDBRANCH   1   2
BRANCH   1  24
ATOM     24  O11 B68 d          26.950   4.286   2.367  0.00  0.00    -0.378 OA
ATOM     25  H11 B68 d          26.807   3.404   2.046  0.00  0.00     0.211 HD
ENDBRANCH   1  24
BRANCH   1  26
ATOM     26  C12 B68 d          26.108   5.807   4.064  0.00  0.00    -0.037 C 
ATOM     27  H12 B68 d          26.047   5.924   5.155  0.00  0.00     0.032 H 
ATOM     28  H13 B68 d          25.127   6.022   3.616  0.00  0.00     0.032 H 
ATOM     29  H14 B68 d          26.856   6.505   3.661  0.00  0.00     0.032 H 
ENDBRANCH   1  26
BRANCH   1  30
ATOM     30  C10 B68 d          27.658   3.921   4.642  0.00  0.00     0.258 C 
ATOM     31  O10 B68 d          28.711   4.555   4.684  0.00  0.00    -0.270 OA
ATOM     32  N9  B68 d          27.386   2.841   5.372  0.00  0.00    -0.325 N 
ATOM     33  H15 B68 d          26.483   2.426   5.258  0.00  0.00     0.169 HD
BRANCH  32  34
ATOM     34  C6  B68 d          28.217   2.266   6.242  0.00  0.00     0.035 A 
ATOM     35  C5  B68 d          27.951   2.189   7.608  0.00  0.00    -0.040 A 
ATOM     36  C4  B68 d          28.798   1.542   8.508  0.00  0.00     0.083 A 
ATOM     37  H16 B68 d          27.046   2.650   7.988  0.00  0.00     0.088 H 
ATOM     38  C3  B68 d          29.956   0.944   7.998  0.00  0.00     0.118 A 
ATOM     39  C2  B68 d          30.238   1.031   6.637  0.00  0.00    -0.048 A 
ATOM     40  C1  B68 d          29.381   1.685   5.757  0.00  0.00    -0.055 A 
ATOM     41  H18 B68 d          31.146   0.580   6.255  0.00  0.00     0.087 H 
ATOM     42  H17 B68 d          29.620   1.739   4.701  0.00  0.00     0.087 H 
BRANCH  36  43
ATOM     43  C7  B68 d          28.429   1.550  10.004  0.00  0.00     0.419 C 
ATOM     44  F2  B68 d          27.579   0.565  10.282  0.00  0.00    -0.166 F 
ATOM     45  F1  B68 d          29.485   1.422  10.802  0.00  0.00    -0.166 F 
ATOM     46  F3  B68 d          27.833   2.683  10.363  0.00  0.00    -0.166 F 
ENDBRANCH  36  43
BRANCH  38  47
ATOM     47  N8  B68 d          30.828   0.254   8.734  0.00  0.00    -0.115 N 
ATOM     48  O1  B68 d          32.041   0.809   9.222  0.00  0.00    -0.532 OA
ATOM     49  O2  B68 d          30.504  -1.065   9.146  0.00  0.00    -0.532 OA
ENDBRANCH  38  47
ENDBRANCH  32  34
ENDBRANCH   1  30
TORSDOF 11
ENDMDL
