MODEL 1
REMARK VINA RESULT:      -5.4      0.000      0.000
REMARK WARNING: 32 MAX_TORS EXCEEDED!!!
REMARK  34 active torsions:
REMARK  status: ('A' for Active; 'I' for Inactive)
REMARK    1  A    between atoms: N_1  and  CA_2 
REMARK    2  A    between atoms: CA_2  and  CB_3 
REMARK    3  A    between atoms: CA_2  and  C_6 
REMARK    4  A    between atoms: CB_3  and  CG1_4 
REMARK    5  A    between atoms: CB_3  and  CG2_5 
REMARK       I    between atoms: C_6  and  N_8 
REMARK    6  A    between atoms: CA_9  and  C_13 
REMARK       I    between atoms: C_13  and  N_15 
REMARK    7  A    between atoms: N_15  and  CA_16 
REMARK    8  A    between atoms: CA_16  and  C_17 
REMARK       I    between atoms: C_17  and  N_19 
REMARK    9  A    between atoms: N_19  and  CA_20 
REMARK   10  A    between atoms: CA_20  and  C_21 
REMARK   11  A    between atoms: CA_20  and  CB_23 
REMARK       I    between atoms: C_21  and  N_25 
REMARK   12  A    between atoms: CB_23  and  OG_24 
REMARK   13  A    between atoms: N_25  and  CA_26 
REMARK   14  A    between atoms: CA_26  and  C_27 
REMARK   15  A    between atoms: CA_26  and  CB_29 
REMARK       I    between atoms: C_27  and  N_34 
REMARK   16  A    between atoms: CB_29  and  CG_30 
REMARK   17  A    between atoms: CG_30  and  CD_31 
REMARK       I    between atoms: CD_31  and  NE2_33 
REMARK   18  A    between atoms: N_34  and  CA_35 
REMARK   19  A    between atoms: CA_35  and  C_36 
REMARK   20  A    between atoms: CA_35  and  CB_38 
REMARK       I    between atoms: C_36  and  N_44 
REMARK   21  A    between atoms: CB_38  and  CG_39 
REMARK   22  A    between atoms: N_44  and  CA_45 
REMARK   23  A    between atoms: CA_45  and  C_46 
REMARK   24  A    between atoms: CA_45  and  CB_48 
REMARK       I    between atoms: C_46  and  N_56 
REMARK   25  A    between atoms: CB_48  and  CG_49 
REMARK   26  A    between atoms: CZ_54  and  OH_55 
REMARK   27  A    between atoms: N_56  and  CA_57 
REMARK   28  A    between atoms: CA_57  and  C_58 
REMARK   29  A    between atoms: CA_57  and  CB_60 
REMARK       I    between atoms: C_58  and  N_64 
REMARK   30  A    between atoms: CB_60  and  CG_61 
REMARK   31  A    between atoms: N_64  and  CA_65 
REMARK   32  A    between atoms: CA_65  and  C_66 
REMARK   33  A    between atoms: CA_65  and  CB_69 
REMARK   34  A    between atoms: CB_69  and  OG_70 
ROOT
ATOM      1  CA  DVA d          43.272  56.103  87.791  0.00  0.00     0.090 C 
ATOM      2  H28 DVA d          43.917  56.654  88.492  0.00  0.00     0.087 H 
ENDROOT
BRANCH   1   3
ATOM      3  N   DVA d          42.751  54.923  88.462  0.00  0.00    -0.346 N 
ATOM      4  C   DVA d          43.562  54.196  89.209  0.00  0.00     0.243 C 
ATOM      5  O   DVA d          44.736  54.485  89.371  0.00  0.00    -0.271 OA
ATOM      6  H27 DVA d          41.789  54.666  88.359  0.00  0.00     0.163 HD
BRANCH   4   7
ATOM      7  CA  DVA d          42.980  52.950  89.850  0.00  0.00     0.109 C 
ATOM      8  H23 DVA d          41.881  52.967  89.816  0.00  0.00     0.090 H 
BRANCH   7   9
ATOM      9  N   DVA d          43.440  52.907  91.220  0.00  0.00    -0.344 N 
ATOM     10  C   DVA d          42.606  52.732  92.233  0.00  0.00     0.236 C 
ATOM     11  O   DVA d          41.391  52.590  92.089  0.00  0.00    -0.272 OA
ATOM     12  H22 DVA d          44.417  53.012  91.408  0.00  0.00     0.163 HD
BRANCH  10  13
ATOM     13  CA  DVA d          43.225  52.710  93.606  0.00  0.00     0.069 C 
ATOM     14  H20 DVA d          43.963  51.897  93.674  0.00  0.00     0.078 H 
ATOM     15  H21 DVA d          43.718  53.671  93.812  0.00  0.00     0.078 H 
BRANCH  13  16
ATOM     16  N   DVA d          42.159  52.490  94.553  0.00  0.00    -0.351 N 
ATOM     17  C   DVA d          42.291  51.618  95.542  0.00  0.00     0.241 C 
ATOM     18  O   DVA d          43.316  50.955  95.731  0.00  0.00    -0.271 OA
ATOM     19  H19 DVA d          41.306  53.005  94.462  0.00  0.00     0.163 HD
BRANCH  17  20
ATOM     20  CA  DVA d          41.076  51.492  96.459  0.00  0.00     0.091 C 
ATOM     21  N   DVA d          40.363  52.776  96.546  0.00  0.00    -0.337 N 
ATOM     22  C   DVA d          39.518  53.447  95.721  0.00  0.00     0.251 C 
ATOM     23  CD  DVA d          40.665  53.429  97.835  0.00  0.00    -0.001 C 
ATOM     24  O   DVA d          39.075  54.562  96.025  0.00  0.00    -0.271 OA
ATOM     25  CG  DVA d          41.824  52.606  98.365  0.00  0.00    -0.048 C 
ATOM     26  H17 DVA d          39.802  53.380  98.515  0.00  0.00     0.064 H 
ATOM     27  H18 DVA d          40.958  54.479  97.688  0.00  0.00     0.064 H 
ATOM     28  CB  DVA d          41.483  51.233  97.903  0.00  0.00    -0.036 C 
ATOM     29  H15 DVA d          42.779  52.944  97.937  0.00  0.00     0.035 H 
ATOM     30  H16 DVA d          41.877  52.654  99.462  0.00  0.00     0.035 H 
ATOM     31  H13 DVA d          42.353  50.562  97.960  0.00  0.00     0.036 H 
ATOM     32  H14 DVA d          40.652  50.808  98.485  0.00  0.00     0.036 H 
ATOM     33  H12 DVA d          40.416  50.694  96.087  0.00  0.00     0.087 H 
BRANCH  22  34
ATOM     34  CA  DVA d          39.133  52.830  94.356  0.00  0.00     0.178 C 
ATOM     35  H4  DVA d          40.069  52.590  93.829  0.00  0.00     0.099 H 
BRANCH  34  36
ATOM     36  N   DVA d          38.394  53.845  93.554  0.00  0.00    -0.066 N 
ATOM     37  H1  DVA d          38.140  53.449  92.662  0.00  0.00     0.275 HD
ATOM     38  H2  DVA d          38.981  54.652  93.408  0.00  0.00     0.275 HD
ATOM     39  H3  DVA d          37.560  54.121  94.048  0.00  0.00     0.275 HD
ENDBRANCH  34  36
BRANCH  34  40
ATOM     40  CB  DVA d          38.313  51.528  94.445  0.00  0.00    -0.025 C 
ATOM     41  H5  DVA d          38.746  50.880  95.221  0.00  0.00     0.042 H 
BRANCH  40  42
ATOM     42  CG1 DVA d          36.870  51.837  94.808  0.00  0.00    -0.071 C 
ATOM     43  H6  DVA d          36.298  50.900  94.867  0.00  0.00     0.028 H 
ATOM     44  H7  DVA d          36.428  52.487  94.037  0.00  0.00     0.028 H 
ATOM     45  H8  DVA d          36.837  52.349  95.781  0.00  0.00     0.028 H 
ENDBRANCH  40  42
BRANCH  40  46
ATOM     46  CG2 DVA d          38.376  50.810  93.094  0.00  0.00    -0.071 C 
ATOM     47  H9  DVA d          39.424  50.592  92.843  0.00  0.00     0.028 H 
ATOM     48  H10 DVA d          37.938  51.454  92.317  0.00  0.00     0.028 H 
ATOM     49  H11 DVA d          37.809  49.870  93.153  0.00  0.00     0.028 H 
ENDBRANCH  40  46
ENDBRANCH  34  40
ENDBRANCH  22  34
ENDBRANCH  17  20
ENDBRANCH  13  16
ENDBRANCH  10  13
ENDBRANCH   7   9
BRANCH   7  50
ATOM     50  CB  DVA d          43.521  51.752  89.077  0.00  0.00     0.044 C 
ATOM     51  H24 DVA d          42.882  50.877  89.269  0.00  0.00     0.077 H 
ATOM     52  H25 DVA d          44.547  51.537  89.410  0.00  0.00     0.077 H 
BRANCH  50  53
ATOM     53  OG  DVA d          43.527  52.032  87.687  0.00  0.00    -0.398 OA
ATOM     54  H26 DVA d          43.865  51.280  87.216  0.00  0.00     0.209 HD
ENDBRANCH  50  53
ENDBRANCH   7  50
ENDBRANCH   4   7
ENDBRANCH   1   3
BRANCH   1  55
ATOM     55  C   DVA d          44.104  55.704  86.575  0.00  0.00     0.241 C 
ATOM     56  O   DVA d          44.806  56.537  85.994  0.00  0.00    -0.271 OA
ATOM     57  N   DVA d          44.022  54.429  86.192  0.00  0.00    -0.346 N 
ATOM     58  H35 DVA d          43.457  53.796  86.723  0.00  0.00     0.163 HD
BRANCH  57  59
ATOM     59  CA  DVA d          44.745  53.926  85.004  0.00  0.00     0.094 C 
ATOM     60  H36 DVA d          44.829  54.755  84.287  0.00  0.00     0.088 H 
BRANCH  59  61
ATOM     61  C   DVA d          46.114  53.391  85.306  0.00  0.00     0.241 C 
ATOM     62  O   DVA d          47.059  53.635  84.542  0.00  0.00    -0.271 OA
ATOM     63  N   DVA d          46.212  52.635  86.395  0.00  0.00    -0.346 N 
ATOM     64  H42 DVA d          45.427  52.541  87.006  0.00  0.00     0.163 HD
BRANCH  63  65
ATOM     65  CA  DVA d          47.461  51.941  86.705  0.00  0.00     0.093 C 
ATOM     66  H43 DVA d          48.127  52.056  85.836  0.00  0.00     0.088 H 
BRANCH  65  67
ATOM     67  C   DVA d          48.221  52.458  87.920  0.00  0.00     0.241 C 
ATOM     68  O   DVA d          49.429  52.232  88.033  0.00  0.00    -0.271 OA
ATOM     69  N   DVA d          47.508  53.133  88.820  0.00  0.00    -0.345 N 
ATOM     70  H51 DVA d          46.528  53.261  88.665  0.00  0.00     0.163 HD
BRANCH  69  71
ATOM     71  CA  DVA d          48.115  53.695  90.034  0.00  0.00     0.098 C 
ATOM     72  H52 DVA d          49.131  53.281  90.120  0.00  0.00     0.088 H 
BRANCH  71  73
ATOM     73  C   DVA d          48.219  55.219  90.032  0.00  0.00     0.241 C 
ATOM     74  O   DVA d          47.812  55.893  89.077  0.00  0.00    -0.271 OA
ATOM     75  N   DVA d          48.757  55.723  91.144  0.00  0.00    -0.343 N 
ATOM     76  H55 DVA d          49.059  55.067  91.836  0.00  0.00     0.163 HD
BRANCH  75  77
ATOM     77  CA  DVA d          48.950  57.142  91.451  0.00  0.00     0.116 C 
ATOM     78  H56 DVA d          49.164  57.204  92.529  0.00  0.00     0.093 H 
BRANCH  77  79
ATOM     79  C   DVA d          50.132  57.772  90.728  0.00  0.00     0.198 C 
ATOM     80  O   DVA d          49.903  58.573  89.799  0.00  0.00    -0.646 OA
ATOM     81  OXT DVA d          51.279  57.451  91.117  0.00  0.00    -0.646 OA
ENDBRANCH  77  79
BRANCH  77  82
ATOM     82  CB  DVA d          47.675  57.953  91.188  0.00  0.00     0.045 C 
ATOM     83  H57 DVA d          46.827  57.462  91.689  0.00  0.00     0.077 H 
ATOM     84  H58 DVA d          47.490  57.991  90.104  0.00  0.00     0.077 H 
BRANCH  82  85
ATOM     85  OG  DVA d          47.803  59.280  91.685  0.00  0.00    -0.398 OA
ATOM     86  H59 DVA d          48.533  59.709  91.254  0.00  0.00     0.209 HD
ENDBRANCH  82  85
ENDBRANCH  77  82
ENDBRANCH  75  77
ENDBRANCH  71  73
BRANCH  71  87
ATOM     87  CB  DVA d          47.309  53.294  91.271  0.00  0.00     0.043 C 
ATOM     88  H53 DVA d          46.334  53.801  91.235  0.00  0.00     0.052 H 
ATOM     89  H54 DVA d          47.857  53.616  92.168  0.00  0.00     0.052 H 
BRANCH  87  90
ATOM     90  CG  DVA d          47.077  51.808  91.356  0.00  0.00     0.175 C 
ATOM     91  OD1 DVA d          48.039  51.041  91.134  0.00  0.00    -0.648 OA
ATOM     92  OD2 DVA d          45.942  51.405  91.659  0.00  0.00    -0.648 OA
ENDBRANCH  87  90
ENDBRANCH  71  87
ENDBRANCH  69  71
ENDBRANCH  65  67
BRANCH  65  93
ATOM     93  CB  DVA d          47.144  50.452  86.882  0.00  0.00    -0.014 C 
ATOM     94  H44 DVA d          46.605  50.318  87.831  0.00  0.00     0.043 H 
ATOM     95  H45 DVA d          48.091  49.893  86.915  0.00  0.00     0.043 H 
BRANCH  93  96
ATOM     96  CG  DVA d          46.289  49.894  85.755  0.00  0.00    -0.056 A 
ATOM     97  CD1 DVA d          46.715  49.974  84.425  0.00  0.00    -0.074 A 
ATOM     98  CE1 DVA d          45.926  49.496  83.365  0.00  0.00    -0.051 A 
ATOM     99  H46 DVA d          47.680  50.417  84.206  0.00  0.00     0.084 H 
ATOM    100  CZ  DVA d          44.677  48.916  83.659  0.00  0.00     0.065 A 
ATOM    101  H48 DVA d          46.273  49.572  82.340  0.00  0.00     0.087 H 
ATOM    102  CE2 DVA d          44.237  48.829  84.971  0.00  0.00    -0.051 A 
ATOM    103  CD2 DVA d          45.039  49.317  86.018  0.00  0.00    -0.074 A 
ATOM    104  H49 DVA d          43.273  48.383  85.191  0.00  0.00     0.087 H 
ATOM    105  H47 DVA d          44.687  49.246  87.041  0.00  0.00     0.084 H 
BRANCH 100 106
ATOM    106  OH  DVA d          43.881  48.413  82.653  0.00  0.00    -0.361 OA
ATOM    107  H50 DVA d          44.311  48.543  81.816  0.00  0.00     0.217 HD
ENDBRANCH 100 106
ENDBRANCH  93  96
ENDBRANCH  65  93
ENDBRANCH  63  65
ENDBRANCH  59  61
BRANCH  59 108
ATOM    108  CB  DVA d          44.018  52.750  84.348  0.00  0.00     0.004 C 
ATOM    109  H37 DVA d          43.764  52.021  85.132  0.00  0.00     0.046 H 
ATOM    110  H38 DVA d          44.702  52.285  83.622  0.00  0.00     0.046 H 
BRANCH 108 111
ATOM    111  CG  DVA d          42.757  53.124  83.630  0.00  0.00     0.053 A 
ATOM    112  ND1 DVA d          42.702  53.323  82.264  0.00  0.00    -0.247 NA
ATOM    113  CE1 DVA d          41.457  53.614  81.914  0.00  0.00     0.064 A 
ATOM    114  NE2 DVA d          40.705  53.614  83.008  0.00  0.00    -0.359 N 
ATOM    115  H40 DVA d          41.111  53.817  80.902  0.00  0.00     0.143 H 
ATOM    116  CD2 DVA d          41.498  53.312  84.092  0.00  0.00     0.002 A 
ATOM    117  H41 DVA d          39.694  53.808  83.040  0.00  0.00     0.166 HD
ATOM    118  H39 DVA d          41.173  53.238  85.129  0.00  0.00     0.114 H 
ENDBRANCH 108 111
ENDBRANCH  59 108
ENDBRANCH  57  59
ENDBRANCH   1  55
BRANCH   1 119
ATOM    119  CB  DVA d          42.110  57.010  87.369  0.00  0.00    -0.030 C 
ATOM    120  H29 DVA d          41.503  56.489  86.614  0.00  0.00     0.037 H 
ATOM    121  H30 DVA d          42.516  57.938  86.938  0.00  0.00     0.037 H 
BRANCH 119 122
ATOM    122  CG  DVA d          41.213  57.366  88.581  0.00  0.00     0.011 C 
ATOM    123  H31 DVA d          41.820  57.927  89.306  0.00  0.00     0.047 H 
ATOM    124  H32 DVA d          40.866  56.428  89.040  0.00  0.00     0.047 H 
BRANCH 122 125
ATOM    125  CD  DVA d          39.980  58.215  88.225  0.00  0.00     0.215 C 
ATOM    126  OE1 DVA d          39.060  58.381  89.048  0.00  0.00    -0.274 OA
ATOM    127  NE2 DVA d          39.961  58.752  87.023  0.00  0.00    -0.370 N 
ATOM    128  H33 DVA d          39.184  59.314  86.739  0.00  0.00     0.159 HD
ATOM    129  H34 DVA d          40.724  58.599  86.395  0.00  0.00     0.159 HD
ENDBRANCH 122 125
ENDBRANCH 119 122
ENDBRANCH   1 119
TORSDOF 34
ENDMDL
