MODEL 1
REMARK VINA RESULT:      -4.5      0.000      0.000
REMARK WARNING: 32 MAX_TORS EXCEEDED!!!
REMARK  34 active torsions:
REMARK  status: ('A' for Active; 'I' for Inactive)
REMARK    1  A    between atoms: N_1  and  CA_2 
REMARK    2  A    between atoms: CA_2  and  CB_3 
REMARK    3  A    between atoms: CA_2  and  C_6 
REMARK    4  A    between atoms: CB_3  and  CG1_4 
REMARK    5  A    between atoms: CB_3  and  CG2_5 
REMARK       I    between atoms: C_6  and  N_8 
REMARK    6  A    between atoms: CA_9  and  C_13 
REMARK       I    between atoms: C_13  and  N_15 
REMARK    7  A    between atoms: N_15  and  CA_16 
REMARK    8  A    between atoms: CA_16  and  C_17 
REMARK       I    between atoms: C_17  and  N_19 
REMARK    9  A    between atoms: N_19  and  CA_20 
REMARK   10  A    between atoms: CA_20  and  C_21 
REMARK   11  A    between atoms: CA_20  and  CB_23 
REMARK       I    between atoms: C_21  and  N_25 
REMARK   12  A    between atoms: CB_23  and  OG_24 
REMARK   13  A    between atoms: N_25  and  CA_26 
REMARK   14  A    between atoms: CA_26  and  C_27 
REMARK   15  A    between atoms: CA_26  and  CB_29 
REMARK       I    between atoms: C_27  and  N_34 
REMARK   16  A    between atoms: CB_29  and  CG_30 
REMARK   17  A    between atoms: CG_30  and  CD_31 
REMARK       I    between atoms: CD_31  and  NE2_33 
REMARK   18  A    between atoms: N_34  and  CA_35 
REMARK   19  A    between atoms: CA_35  and  C_36 
REMARK   20  A    between atoms: CA_35  and  CB_38 
REMARK       I    between atoms: C_36  and  N_44 
REMARK   21  A    between atoms: CB_38  and  CG_39 
REMARK   22  A    between atoms: N_44  and  CA_45 
REMARK   23  A    between atoms: CA_45  and  C_46 
REMARK   24  A    between atoms: CA_45  and  CB_48 
REMARK       I    between atoms: C_46  and  N_56 
REMARK   25  A    between atoms: CB_48  and  CG_49 
REMARK   26  A    between atoms: CZ_54  and  OH_55 
REMARK   27  A    between atoms: N_56  and  CA_57 
REMARK   28  A    between atoms: CA_57  and  C_58 
REMARK   29  A    between atoms: CA_57  and  CB_60 
REMARK       I    between atoms: C_58  and  N_64 
REMARK   30  A    between atoms: CB_60  and  CG_61 
REMARK   31  A    between atoms: N_64  and  CA_65 
REMARK   32  A    between atoms: CA_65  and  C_66 
REMARK   33  A    between atoms: CA_65  and  CB_69 
REMARK   34  A    between atoms: CB_69  and  OG_70 
ROOT
ATOM      1  CA  DVA d          42.084  55.650  87.313  0.00  0.00     0.090 C 
ATOM      2  H28 DVA d          43.062  56.079  87.045  0.00  0.00     0.087 H 
ENDROOT
BRANCH   1   3
ATOM      3  N   DVA d          41.286  56.673  87.968  0.00  0.00    -0.346 N 
ATOM      4  C   DVA d          41.889  57.734  88.473  0.00  0.00     0.243 C 
ATOM      5  O   DVA d          43.097  57.897  88.399  0.00  0.00    -0.271 OA
ATOM      6  H27 DVA d          40.293  56.575  88.035  0.00  0.00     0.163 HD
BRANCH   4   7
ATOM      7  CA  DVA d          41.018  58.750  89.187  0.00  0.00     0.109 C 
ATOM      8  H23 DVA d          41.595  59.650  89.447  0.00  0.00     0.090 H 
BRANCH   7   9
ATOM      9  N   DVA d          40.500  58.122  90.381  0.00  0.00    -0.344 N 
ATOM     10  C   DVA d          41.086  58.268  91.559  0.00  0.00     0.236 C 
ATOM     11  O   DVA d          42.101  58.944  91.728  0.00  0.00    -0.272 OA
ATOM     12  H22 DVA d          39.675  57.561  90.315  0.00  0.00     0.163 HD
BRANCH  10  13
ATOM     13  CA  DVA d          40.438  57.554  92.716  0.00  0.00     0.069 C 
ATOM     14  H20 DVA d          39.552  58.112  93.054  0.00  0.00     0.078 H 
ATOM     15  H21 DVA d          40.139  56.540  92.413  0.00  0.00     0.078 H 
BRANCH  13  16
ATOM     16  N   DVA d          41.412  57.485  93.777  0.00  0.00    -0.351 N 
ATOM     17  C   DVA d          41.305  56.588  94.748  0.00  0.00     0.241 C 
ATOM     18  O   DVA d          40.394  55.757  94.807  0.00  0.00    -0.271 OA
ATOM     19  H19 DVA d          42.182  58.124  93.781  0.00  0.00     0.163 HD
BRANCH  17  20
ATOM     20  CA  DVA d          42.410  56.642  95.801  0.00  0.00     0.091 C 
ATOM     21  N   DVA d          42.184  55.620  96.835  0.00  0.00    -0.337 N 
ATOM     22  C   DVA d          42.365  54.274  96.892  0.00  0.00     0.251 C 
ATOM     23  CD  DVA d          41.654  56.254  98.057  0.00  0.00    -0.001 C 
ATOM     24  O   DVA d          42.050  53.627  97.897  0.00  0.00    -0.271 OA
ATOM     25  CG  DVA d          41.297  57.650  97.583  0.00  0.00    -0.048 C 
ATOM     26  H17 DVA d          42.416  56.289  98.849  0.00  0.00     0.064 H 
ATOM     27  H18 DVA d          40.765  55.721  98.426  0.00  0.00     0.064 H 
ATOM     28  CB  DVA d          42.371  57.940  96.594  0.00  0.00    -0.036 C 
ATOM     29  H15 DVA d          40.305  57.667  97.108  0.00  0.00     0.035 H 
ATOM     30  H16 DVA d          41.317  58.370  98.414  0.00  0.00     0.035 H 
ATOM     31  H13 DVA d          42.108  58.795  95.954  0.00  0.00     0.036 H 
ATOM     32  H14 DVA d          43.333  58.136  97.092  0.00  0.00     0.036 H 
ATOM     33  H12 DVA d          43.387  56.507  95.314  0.00  0.00     0.087 H 
BRANCH  22  34
ATOM     34  CA  DVA d          42.932  53.528  95.661  0.00  0.00     0.178 C 
ATOM     35  H4  DVA d          43.466  54.266  95.046  0.00  0.00     0.099 H 
BRANCH  34  36
ATOM     36  N   DVA d          41.801  52.982  94.858  0.00  0.00    -0.066 N 
ATOM     37  H1  DVA d          41.156  53.725  94.640  0.00  0.00     0.275 HD
ATOM     38  H2  DVA d          41.326  52.269  95.389  0.00  0.00     0.275 HD
ATOM     39  H3  DVA d          42.158  52.584  94.004  0.00  0.00     0.275 HD
ENDBRANCH  34  36
BRANCH  34  40
ATOM     40  CB  DVA d          43.932  52.404  95.995  0.00  0.00    -0.025 C 
ATOM     41  H5  DVA d          43.636  51.922  96.939  0.00  0.00     0.042 H 
BRANCH  40  42
ATOM     42  CG1 DVA d          43.941  51.360  94.889  0.00  0.00    -0.071 C 
ATOM     43  H6  DVA d          44.843  50.736  94.981  0.00  0.00     0.028 H 
ATOM     44  H7  DVA d          43.941  51.862  93.910  0.00  0.00     0.028 H 
ATOM     45  H8  DVA d          43.047  50.725  94.976  0.00  0.00     0.028 H 
ENDBRANCH  40  42
BRANCH  40  46
ATOM     46  CG2 DVA d          45.327  53.014  96.155  0.00  0.00    -0.071 C 
ATOM     47  H9  DVA d          45.460  53.359  97.191  0.00  0.00     0.028 H 
ATOM     48  H10 DVA d          45.436  53.866  95.468  0.00  0.00     0.028 H 
ATOM     49  H11 DVA d          46.088  52.256  95.921  0.00  0.00     0.028 H 
ENDBRANCH  40  46
ENDBRANCH  34  40
ENDBRANCH  22  34
ENDBRANCH  17  20
ENDBRANCH  13  16
ENDBRANCH  10  13
ENDBRANCH   7   9
BRANCH   7  50
ATOM     50  CB  DVA d          39.874  59.105  88.242  0.00  0.00     0.044 C 
ATOM     51  H24 DVA d          40.147  58.817  87.216  0.00  0.00     0.077 H 
ATOM     52  H25 DVA d          39.691  60.189  88.283  0.00  0.00     0.077 H 
BRANCH  50  53
ATOM     53  OG  DVA d          38.696  58.415  88.625  0.00  0.00    -0.398 OA
ATOM     54  H26 DVA d          38.154  58.987  89.156  0.00  0.00     0.209 HD
ENDBRANCH  50  53
ENDBRANCH   7  50
ENDBRANCH   4   7
ENDBRANCH   1   3
BRANCH   1  55
ATOM     55  C   DVA d          42.311  54.465  88.249  0.00  0.00     0.241 C 
ATOM     56  O   DVA d          41.352  53.863  88.743  0.00  0.00    -0.271 OA
ATOM     57  N   DVA d          43.580  54.135  88.491  0.00  0.00    -0.346 N 
ATOM     58  H35 DVA d          44.312  54.645  88.037  0.00  0.00     0.163 HD
BRANCH  57  59
ATOM     59  CA  DVA d          43.934  53.034  89.413  0.00  0.00     0.094 C 
ATOM     60  H36 DVA d          42.998  52.592  89.783  0.00  0.00     0.088 H 
BRANCH  59  61
ATOM     61  C   DVA d          44.775  51.961  88.786  0.00  0.00     0.241 C 
ATOM     62  O   DVA d          44.236  50.996  88.226  0.00  0.00    -0.271 OA
ATOM     63  N   DVA d          46.090  52.110  88.911  0.00  0.00    -0.346 N 
ATOM     64  H42 DVA d          46.458  52.950  89.309  0.00  0.00     0.163 HD
BRANCH  63  65
ATOM     65  CA  DVA d          47.001  51.055  88.471  0.00  0.00     0.093 C 
ATOM     66  H43 DVA d          46.421  50.121  88.414  0.00  0.00     0.088 H 
BRANCH  65  67
ATOM     67  C   DVA d          47.643  51.263  87.105  0.00  0.00     0.241 C 
ATOM     68  O   DVA d          48.028  50.291  86.450  0.00  0.00    -0.271 OA
ATOM     69  N   DVA d          47.764  52.525  86.695  0.00  0.00    -0.345 N 
ATOM     70  H51 DVA d          47.442  53.261  87.291  0.00  0.00     0.163 HD
BRANCH  69  71
ATOM     71  CA  DVA d          48.356  52.869  85.395  0.00  0.00     0.098 C 
ATOM     72  H52 DVA d          49.101  52.096  85.153  0.00  0.00     0.088 H 
BRANCH  71  73
ATOM     73  C   DVA d          47.349  52.938  84.248  0.00  0.00     0.241 C 
ATOM     74  O   DVA d          46.908  54.020  83.840  0.00  0.00    -0.271 OA
ATOM     75  N   DVA d          47.028  51.746  83.743  0.00  0.00    -0.343 N 
ATOM     76  H55 DVA d          47.445  50.946  84.174  0.00  0.00     0.163 HD
BRANCH  75  77
ATOM     77  CA  DVA d          46.124  51.494  82.618  0.00  0.00     0.116 C 
ATOM     78  H56 DVA d          45.410  52.330  82.594  0.00  0.00     0.093 H 
BRANCH  77  79
ATOM     79  C   DVA d          46.820  51.466  81.265  0.00  0.00     0.198 C 
ATOM     80  O   DVA d          47.399  50.417  80.914  0.00  0.00    -0.646 OA
ATOM     81  OXT DVA d          46.765  52.508  80.571  0.00  0.00    -0.646 OA
ENDBRANCH  77  79
BRANCH  77  82
ATOM     82  CB  DVA d          45.316  50.207  82.823  0.00  0.00     0.045 C 
ATOM     83  H57 DVA d          45.446  49.556  81.946  0.00  0.00     0.077 H 
ATOM     84  H58 DVA d          44.252  50.464  82.935  0.00  0.00     0.077 H 
BRANCH  82  85
ATOM     85  OG  DVA d          45.750  49.511  83.986  0.00  0.00    -0.398 OA
ATOM     86  H59 DVA d          45.992  50.138  84.657  0.00  0.00     0.209 HD
ENDBRANCH  82  85
ENDBRANCH  77  82
ENDBRANCH  75  77
ENDBRANCH  71  73
BRANCH  71  87
ATOM     87  CB  DVA d          49.057  54.228  85.469  0.00  0.00     0.043 C 
ATOM     88  H53 DVA d          48.716  54.845  84.625  0.00  0.00     0.052 H 
ATOM     89  H54 DVA d          50.142  54.068  85.393  0.00  0.00     0.052 H 
BRANCH  87  90
ATOM     90  CG  DVA d          48.766  54.961  86.752  0.00  0.00     0.175 C 
ATOM     91  OD1 DVA d          49.589  54.873  87.689  0.00  0.00    -0.648 OA
ATOM     92  OD2 DVA d          47.727  55.638  86.821  0.00  0.00    -0.648 OA
ENDBRANCH  87  90
ENDBRANCH  71  87
ENDBRANCH  69  71
ENDBRANCH  65  67
BRANCH  65  93
ATOM     93  CB  DVA d          48.087  50.890  89.539  0.00  0.00    -0.014 C 
ATOM     94  H44 DVA d          48.349  51.884  89.930  0.00  0.00     0.043 H 
ATOM     95  H45 DVA d          48.972  50.434  89.072  0.00  0.00     0.043 H 
BRANCH  93  96
ATOM     96  CG  DVA d          47.643  50.012  90.699  0.00  0.00    -0.056 A 
ATOM     97  CD1 DVA d          47.070  50.574  91.845  0.00  0.00    -0.074 A 
ATOM     98  CE1 DVA d          46.685  49.786  92.942  0.00  0.00    -0.051 A 
ATOM     99  H46 DVA d          46.919  51.647  91.887  0.00  0.00     0.084 H 
ATOM    100  CZ  DVA d          46.878  48.393  92.876  0.00  0.00     0.065 A 
ATOM    101  H48 DVA d          46.247  50.242  93.823  0.00  0.00     0.087 H 
ATOM    102  CE2 DVA d          47.446  47.817  91.749  0.00  0.00    -0.051 A 
ATOM    103  CD2 DVA d          47.829  48.624  90.662  0.00  0.00    -0.074 A 
ATOM    104  H49 DVA d          47.594  46.744  91.705  0.00  0.00     0.087 H 
ATOM    105  H47 DVA d          48.273  48.165  89.785  0.00  0.00     0.084 H 
BRANCH 100 106
ATOM    106  OH  DVA d          46.494  47.580  93.919  0.00  0.00    -0.361 OA
ATOM    107  H50 DVA d          46.451  48.091  94.718  0.00  0.00     0.217 HD
ENDBRANCH 100 106
ENDBRANCH  93  96
ENDBRANCH  65  93
ENDBRANCH  63  65
ENDBRANCH  59  61
BRANCH  59 108
ATOM    108  CB  DVA d          44.772  53.526  90.596  0.00  0.00     0.004 C 
ATOM    109  H37 DVA d          45.793  53.133  90.480  0.00  0.00     0.046 H 
ATOM    110  H38 DVA d          44.329  53.128  91.521  0.00  0.00     0.046 H 
BRANCH 108 111
ATOM    111  CG  DVA d          44.854  55.017  90.720  0.00  0.00     0.053 A 
ATOM    112  ND1 DVA d          45.860  55.764  90.138  0.00  0.00    -0.247 NA
ATOM    113  CE1 DVA d          45.656  57.048  90.394  0.00  0.00     0.064 A 
ATOM    114  NE2 DVA d          44.554  57.158  91.126  0.00  0.00    -0.359 N 
ATOM    115  H40 DVA d          46.285  57.873  90.061  0.00  0.00     0.143 H 
ATOM    116  CD2 DVA d          44.038  55.899  91.343  0.00  0.00     0.002 A 
ATOM    117  H41 DVA d          44.151  58.039  91.475  0.00  0.00     0.166 HD
ATOM    118  H39 DVA d          43.140  55.658  91.911  0.00  0.00     0.114 H 
ENDBRANCH 108 111
ENDBRANCH  59 108
ENDBRANCH  57  59
ENDBRANCH   1  55
BRANCH   1 119
ATOM    119  CB  DVA d          41.378  55.189  86.031  0.00  0.00    -0.030 C 
ATOM    120  H29 DVA d          41.342  56.028  85.320  0.00  0.00     0.037 H 
ATOM    121  H30 DVA d          40.353  54.874  86.279  0.00  0.00     0.037 H 
BRANCH 119 122
ATOM    122  CG  DVA d          42.129  54.003  85.377  0.00  0.00     0.011 C 
ATOM    123  H31 DVA d          41.500  53.600  84.570  0.00  0.00     0.047 H 
ATOM    124  H32 DVA d          42.283  53.228  86.143  0.00  0.00     0.047 H 
BRANCH 122 125
ATOM    125  CD  DVA d          43.499  54.374  84.783  0.00  0.00     0.215 C 
ATOM    126  OE1 DVA d          44.357  54.957  85.470  0.00  0.00    -0.274 OA
ATOM    127  NE2 DVA d          43.708  54.033  83.528  0.00  0.00    -0.370 N 
ATOM    128  H33 DVA d          44.581  54.249  83.090  0.00  0.00     0.159 HD
ATOM    129  H34 DVA d          42.994  53.559  83.013  0.00  0.00     0.159 HD
ENDBRANCH 122 125
ENDBRANCH 119 122
ENDBRANCH   1 119
TORSDOF 34
ENDMDL
MODEL 2
REMARK VINA RESULT:      -4.1      2.536      4.256
REMARK WARNING: 32 MAX_TORS EXCEEDED!!!
REMARK  34 active torsions:
REMARK  status: ('A' for Active; 'I' for Inactive)
REMARK    1  A    between atoms: N_1  and  CA_2 
REMARK    2  A    between atoms: CA_2  and  CB_3 
REMARK    3  A    between atoms: CA_2  and  C_6 
REMARK    4  A    between atoms: CB_3  and  CG1_4 
REMARK    5  A    between atoms: CB_3  and  CG2_5 
REMARK       I    between atoms: C_6  and  N_8 
REMARK    6  A    between atoms: CA_9  and  C_13 
REMARK       I    between atoms: C_13  and  N_15 
REMARK    7  A    between atoms: N_15  and  CA_16 
REMARK    8  A    between atoms: CA_16  and  C_17 
REMARK       I    between atoms: C_17  and  N_19 
REMARK    9  A    between atoms: N_19  and  CA_20 
REMARK   10  A    between atoms: CA_20  and  C_21 
REMARK   11  A    between atoms: CA_20  and  CB_23 
REMARK       I    between atoms: C_21  and  N_25 
REMARK   12  A    between atoms: CB_23  and  OG_24 
REMARK   13  A    between atoms: N_25  and  CA_26 
REMARK   14  A    between atoms: CA_26  and  C_27 
REMARK   15  A    between atoms: CA_26  and  CB_29 
REMARK       I    between atoms: C_27  and  N_34 
REMARK   16  A    between atoms: CB_29  and  CG_30 
REMARK   17  A    between atoms: CG_30  and  CD_31 
REMARK       I    between atoms: CD_31  and  NE2_33 
REMARK   18  A    between atoms: N_34  and  CA_35 
REMARK   19  A    between atoms: CA_35  and  C_36 
REMARK   20  A    between atoms: CA_35  and  CB_38 
REMARK       I    between atoms: C_36  and  N_44 
REMARK   21  A    between atoms: CB_38  and  CG_39 
REMARK   22  A    between atoms: N_44  and  CA_45 
REMARK   23  A    between atoms: CA_45  and  C_46 
REMARK   24  A    between atoms: CA_45  and  CB_48 
REMARK       I    between atoms: C_46  and  N_56 
REMARK   25  A    between atoms: CB_48  and  CG_49 
REMARK   26  A    between atoms: CZ_54  and  OH_55 
REMARK   27  A    between atoms: N_56  and  CA_57 
REMARK   28  A    between atoms: CA_57  and  C_58 
REMARK   29  A    between atoms: CA_57  and  CB_60 
REMARK       I    between atoms: C_58  and  N_64 
REMARK   30  A    between atoms: CB_60  and  CG_61 
REMARK   31  A    between atoms: N_64  and  CA_65 
REMARK   32  A    between atoms: CA_65  and  C_66 
REMARK   33  A    between atoms: CA_65  and  CB_69 
REMARK   34  A    between atoms: CB_69  and  OG_70 
ROOT
ATOM      1  CA  DVA d          42.445  56.211  90.143  0.00  0.00     0.090 C 
ATOM      2  H28 DVA d          43.246  56.965  90.169  0.00  0.00     0.087 H 
ENDROOT
BRANCH   1   3
ATOM      3  N   DVA d          41.507  56.485  91.220  0.00  0.00    -0.346 N 
ATOM      4  C   DVA d          41.825  57.380  92.138  0.00  0.00     0.243 C 
ATOM      5  O   DVA d          42.875  58.000  92.110  0.00  0.00    -0.271 OA
ATOM      6  H27 DVA d          40.632  56.002  91.264  0.00  0.00     0.163 HD
BRANCH   4   7
ATOM      7  CA  DVA d          40.833  57.596  93.265  0.00  0.00     0.109 C 
ATOM      8  H23 DVA d          41.352  57.773  94.218  0.00  0.00     0.090 H 
BRANCH   7   9
ATOM      9  N   DVA d          40.006  56.414  93.355  0.00  0.00    -0.344 N 
ATOM     10  C   DVA d          39.628  55.912  94.519  0.00  0.00     0.236 C 
ATOM     11  O   DVA d          39.942  56.408  95.602  0.00  0.00    -0.272 OA
ATOM     12  H22 DVA d          39.712  55.962  92.512  0.00  0.00     0.163 HD
BRANCH  10  13
ATOM     13  CA  DVA d          38.770  54.674  94.462  0.00  0.00     0.069 C 
ATOM     14  H20 DVA d          37.716  54.939  94.632  0.00  0.00     0.078 H 
ATOM     15  H21 DVA d          38.873  54.191  93.480  0.00  0.00     0.078 H 
BRANCH  13  16
ATOM     16  N   DVA d          39.230  53.785  95.501  0.00  0.00    -0.351 N 
ATOM     17  C   DVA d          39.347  52.482  95.285  0.00  0.00     0.241 C 
ATOM     18  O   DVA d          39.091  51.948  94.202  0.00  0.00    -0.271 OA
ATOM     19  H19 DVA d          39.465  54.158  96.399  0.00  0.00     0.163 HD
BRANCH  17  20
ATOM     20  CA  DVA d          39.841  51.672  96.481  0.00  0.00     0.091 C 
ATOM     21  N   DVA d          41.056  50.922  96.127  0.00  0.00    -0.337 N 
ATOM     22  C   DVA d          42.364  51.257  95.970  0.00  0.00     0.251 C 
ATOM     23  CD  DVA d          40.722  49.500  95.915  0.00  0.00    -0.001 C 
ATOM     24  O   DVA d          43.204  50.419  95.621  0.00  0.00    -0.271 OA
ATOM     25  CG  DVA d          39.206  49.515  95.867  0.00  0.00    -0.048 C 
ATOM     26  H17 DVA d          41.086  48.880  96.747  0.00  0.00     0.064 H 
ATOM     27  H18 DVA d          41.145  49.131  94.969  0.00  0.00     0.064 H 
ATOM     28  CB  DVA d          38.862  50.570  96.859  0.00  0.00    -0.036 C 
ATOM     29  H15 DVA d          38.843  49.781  94.863  0.00  0.00     0.035 H 
ATOM     30  H16 DVA d          38.790  48.541  96.162  0.00  0.00     0.035 H 
ATOM     31  H13 DVA d          37.820  50.902  96.747  0.00  0.00     0.036 H 
ATOM     32  H14 DVA d          39.027  50.221  97.890  0.00  0.00     0.036 H 
ATOM     33  H12 DVA d          40.023  52.346  97.331  0.00  0.00     0.087 H 
BRANCH  22  34
ATOM     34  CA  DVA d          42.807  52.723  96.188  0.00  0.00     0.178 C 
ATOM     35  H4  DVA d          42.030  53.370  95.754  0.00  0.00     0.099 H 
BRANCH  34  36
ATOM     36  N   DVA d          44.078  52.963  95.449  0.00  0.00    -0.066 N 
ATOM     37  H1  DVA d          44.677  53.563  95.995  0.00  0.00     0.275 HD
ATOM     38  H2  DVA d          43.876  53.404  94.565  0.00  0.00     0.275 HD
ATOM     39  H3  DVA d          44.543  52.083  95.285  0.00  0.00     0.275 HD
ENDBRANCH  34  36
BRANCH  34  40
ATOM     40  CB  DVA d          42.970  53.134  97.664  0.00  0.00    -0.025 C 
ATOM     41  H5  DVA d          42.302  52.522  98.287  0.00  0.00     0.042 H 
BRANCH  40  42
ATOM     42  CG1 DVA d          44.405  52.917  98.118  0.00  0.00    -0.071 C 
ATOM     43  H6  DVA d          44.419  52.225  98.972  0.00  0.00     0.028 H 
ATOM     44  H7  DVA d          44.845  53.880  98.418  0.00  0.00     0.028 H 
ATOM     45  H8  DVA d          44.990  52.489  97.290  0.00  0.00     0.028 H 
ENDBRANCH  40  42
BRANCH  40  46
ATOM     46  CG2 DVA d          42.588  54.610  97.812  0.00  0.00    -0.071 C 
ATOM     47  H9  DVA d          42.183  54.981  96.859  0.00  0.00     0.028 H 
ATOM     48  H10 DVA d          43.479  55.193  98.085  0.00  0.00     0.028 H 
ATOM     49  H11 DVA d          41.827  54.713  98.599  0.00  0.00     0.028 H 
ENDBRANCH  40  46
ENDBRANCH  34  40
ENDBRANCH  22  34
ENDBRANCH  17  20
ENDBRANCH  13  16
ENDBRANCH  10  13
ENDBRANCH   7   9
BRANCH   7  50
ATOM     50  CB  DVA d          39.981  58.804  92.889  0.00  0.00     0.044 C 
ATOM     51  H24 DVA d          40.208  59.636  93.572  0.00  0.00     0.077 H 
ATOM     52  H25 DVA d          38.917  58.539  92.974  0.00  0.00     0.077 H 
BRANCH  50  53
ATOM     53  OG  DVA d          40.261  59.202  91.557  0.00  0.00    -0.398 OA
ATOM     54  H26 DVA d          39.457  59.193  91.050  0.00  0.00     0.209 HD
ENDBRANCH  50  53
ENDBRANCH   7  50
ENDBRANCH   4   7
ENDBRANCH   1   3
BRANCH   1  55
ATOM     55  C   DVA d          43.071  54.829  90.316  0.00  0.00     0.241 C 
ATOM     56  O   DVA d          42.386  53.873  90.693  0.00  0.00    -0.271 OA
ATOM     57  N   DVA d          44.372  54.728  90.041  0.00  0.00    -0.346 N 
ATOM     58  H35 DVA d          44.864  55.535  89.712  0.00  0.00     0.163 HD
BRANCH  57  59
ATOM     59  CA  DVA d          45.105  53.455  90.209  0.00  0.00     0.094 C 
ATOM     60  H36 DVA d          44.382  52.691  90.529  0.00  0.00     0.088 H 
BRANCH  59  61
ATOM     61  C   DVA d          45.803  52.985  88.965  0.00  0.00     0.241 C 
ATOM     62  O   DVA d          45.247  52.178  88.208  0.00  0.00    -0.271 OA
ATOM     63  N   DVA d          47.029  53.462  88.776  0.00  0.00    -0.346 N 
ATOM     64  H42 DVA d          47.387  54.168  89.387  0.00  0.00     0.163 HD
BRANCH  63  65
ATOM     65  CA  DVA d          47.858  52.961  87.681  0.00  0.00     0.093 C 
ATOM     66  H43 DVA d          47.560  51.919  87.492  0.00  0.00     0.088 H 
BRANCH  65  67
ATOM     67  C   DVA d          47.729  53.708  86.360  0.00  0.00     0.241 C 
ATOM     68  O   DVA d          48.606  53.592  85.498  0.00  0.00    -0.271 OA
ATOM     69  N   DVA d          46.650  54.475  86.216  0.00  0.00    -0.345 N 
ATOM     70  H51 DVA d          45.992  54.530  86.967  0.00  0.00     0.163 HD
BRANCH  69  71
ATOM     71  CA  DVA d          46.396  55.243  84.990  0.00  0.00     0.098 C 
ATOM     72  H52 DVA d          47.361  55.387  84.481  0.00  0.00     0.088 H 
BRANCH  71  73
ATOM     73  C   DVA d          45.439  54.562  84.013  0.00  0.00     0.241 C 
ATOM     74  O   DVA d          45.638  54.584  82.792  0.00  0.00    -0.271 OA
ATOM     75  N   DVA d          44.413  53.947  84.605  0.00  0.00    -0.343 N 
ATOM     76  H55 DVA d          44.360  54.017  85.601  0.00  0.00     0.163 HD
BRANCH  75  77
ATOM     77  CA  DVA d          43.359  53.178  83.940  0.00  0.00     0.116 C 
ATOM     78  H56 DVA d          43.330  53.522  82.896  0.00  0.00     0.093 H 
BRANCH  77  79
ATOM     79  C   DVA d          43.619  51.679  83.906  0.00  0.00     0.198 C 
ATOM     80  O   DVA d          43.160  51.016  82.954  0.00  0.00    -0.646 OA
ATOM     81  OXT DVA d          44.292  51.193  84.845  0.00  0.00    -0.646 OA
ENDBRANCH  77  79
BRANCH  77  82
ATOM     82  CB  DVA d          41.983  53.463  84.555  0.00  0.00     0.045 C 
ATOM     83  H57 DVA d          41.279  53.731  83.752  0.00  0.00     0.077 H 
ATOM     84  H58 DVA d          42.071  54.301  85.262  0.00  0.00     0.077 H 
BRANCH  82  85
ATOM     85  OG  DVA d          41.487  52.322  85.245  0.00  0.00    -0.398 OA
ATOM     86  H59 DVA d          40.866  52.600  85.908  0.00  0.00     0.209 HD
ENDBRANCH  82  85
ENDBRANCH  77  82
ENDBRANCH  75  77
ENDBRANCH  71  73
BRANCH  71  87
ATOM     87  CB  DVA d          45.803  56.612  85.329  0.00  0.00     0.043 C 
ATOM     88  H53 DVA d          44.772  56.653  84.949  0.00  0.00     0.052 H 
ATOM     89  H54 DVA d          46.407  57.389  84.836  0.00  0.00     0.052 H 
BRANCH  87  90
ATOM     90  CG  DVA d          45.783  56.885  86.810  0.00  0.00     0.175 C 
ATOM     91  OD1 DVA d          44.893  56.347  87.504  0.00  0.00    -0.648 OA
ATOM     92  OD2 DVA d          46.663  57.621  87.286  0.00  0.00    -0.648 OA
ENDBRANCH  87  90
ENDBRANCH  71  87
ENDBRANCH  69  71
ENDBRANCH  65  67
BRANCH  65  93
ATOM     93  CB  DVA d          49.317  52.973  88.148  0.00  0.00    -0.014 C 
ATOM     94  H44 DVA d          49.607  54.010  88.368  0.00  0.00     0.043 H 
ATOM     95  H45 DVA d          49.949  52.580  87.337  0.00  0.00     0.043 H 
BRANCH  93  96
ATOM     96  CG  DVA d          49.545  52.129  89.392  0.00  0.00    -0.056 A 
ATOM     97  CD1 DVA d          49.370  50.741  89.360  0.00  0.00    -0.074 A 
ATOM     98  CE1 DVA d          49.541  49.947  90.506  0.00  0.00    -0.051 A 
ATOM     99  H46 DVA d          49.096  50.266  88.425  0.00  0.00     0.084 H 
ATOM    100  CZ  DVA d          49.905  50.571  91.715  0.00  0.00     0.065 A 
ATOM    101  H48 DVA d          49.397  48.873  90.460  0.00  0.00     0.087 H 
ATOM    102  CE2 DVA d          50.082  51.946  91.767  0.00  0.00    -0.051 A 
ATOM    103  CD2 DVA d          49.901  52.725  90.610  0.00  0.00    -0.074 A 
ATOM    104  H49 DVA d          50.359  52.421  92.701  0.00  0.00     0.087 H 
ATOM    105  H47 DVA d          50.040  53.799  90.660  0.00  0.00     0.084 H 
BRANCH 100 106
ATOM    106  OH  DVA d          50.106  49.829  92.857  0.00  0.00    -0.361 OA
ATOM    107  H50 DVA d          49.998  50.386  93.618  0.00  0.00     0.217 HD
ENDBRANCH 100 106
ENDBRANCH  93  96
ENDBRANCH  65  93
ENDBRANCH  63  65
ENDBRANCH  59  61
BRANCH  59 108
ATOM    108  CB  DVA d          46.224  53.572  91.246  0.00  0.00     0.004 C 
ATOM    109  H37 DVA d          46.002  54.430  91.897  0.00  0.00     0.046 H 
ATOM    110  H38 DVA d          47.170  53.751  90.714  0.00  0.00     0.046 H 
BRANCH 108 111
ATOM    111  CG  DVA d          46.396  52.360  92.112  0.00  0.00     0.053 A 
ATOM    112  ND1 DVA d          46.696  52.437  93.458  0.00  0.00    -0.247 NA
ATOM    113  CE1 DVA d          46.758  51.213  93.962  0.00  0.00     0.064 A 
ATOM    114  NE2 DVA d          46.514  50.346  92.987  0.00  0.00    -0.359 N 
ATOM    115  H40 DVA d          46.973  50.961  95.000  0.00  0.00     0.143 H 
ATOM    116  CD2 DVA d          46.287  51.043  91.820  0.00  0.00     0.002 A 
ATOM    117  H41 DVA d          46.497  49.321  93.085  0.00  0.00     0.166 HD
ATOM    118  H39 DVA d          46.061  50.613  90.845  0.00  0.00     0.114 H 
ENDBRANCH 108 111
ENDBRANCH  59 108
ENDBRANCH  57  59
ENDBRANCH   1  55
BRANCH   1 119
ATOM    119  CB  DVA d          41.721  56.303  88.794  0.00  0.00    -0.030 C 
ATOM    120  H29 DVA d          41.640  55.296  88.360  0.00  0.00     0.037 H 
ATOM    121  H30 DVA d          42.301  56.950  88.119  0.00  0.00     0.037 H 
BRANCH 119 122
ATOM    122  CG  DVA d          40.300  56.895  88.965  0.00  0.00     0.011 C 
ATOM    123  H31 DVA d          40.159  57.154  90.025  0.00  0.00     0.047 H 
ATOM    124  H32 DVA d          39.568  56.126  88.675  0.00  0.00     0.047 H 
BRANCH 122 125
ATOM    125  CD  DVA d          40.036  58.156  88.122  0.00  0.00     0.215 C 
ATOM    126  OE1 DVA d          40.562  58.298  87.003  0.00  0.00    -0.274 OA
ATOM    127  NE2 DVA d          39.226  59.054  88.644  0.00  0.00    -0.370 N 
ATOM    128  H33 DVA d          39.019  59.893  88.140  0.00  0.00     0.159 HD
ATOM    129  H34 DVA d          38.819  58.897  89.544  0.00  0.00     0.159 HD
ENDBRANCH 122 125
ENDBRANCH 119 122
ENDBRANCH   1 119
TORSDOF 34
ENDMDL
MODEL 3
REMARK VINA RESULT:      -4.0      2.269      4.652
REMARK WARNING: 32 MAX_TORS EXCEEDED!!!
REMARK  34 active torsions:
REMARK  status: ('A' for Active; 'I' for Inactive)
REMARK    1  A    between atoms: N_1  and  CA_2 
REMARK    2  A    between atoms: CA_2  and  CB_3 
REMARK    3  A    between atoms: CA_2  and  C_6 
REMARK    4  A    between atoms: CB_3  and  CG1_4 
REMARK    5  A    between atoms: CB_3  and  CG2_5 
REMARK       I    between atoms: C_6  and  N_8 
REMARK    6  A    between atoms: CA_9  and  C_13 
REMARK       I    between atoms: C_13  and  N_15 
REMARK    7  A    between atoms: N_15  and  CA_16 
REMARK    8  A    between atoms: CA_16  and  C_17 
REMARK       I    between atoms: C_17  and  N_19 
REMARK    9  A    between atoms: N_19  and  CA_20 
REMARK   10  A    between atoms: CA_20  and  C_21 
REMARK   11  A    between atoms: CA_20  and  CB_23 
REMARK       I    between atoms: C_21  and  N_25 
REMARK   12  A    between atoms: CB_23  and  OG_24 
REMARK   13  A    between atoms: N_25  and  CA_26 
REMARK   14  A    between atoms: CA_26  and  C_27 
REMARK   15  A    between atoms: CA_26  and  CB_29 
REMARK       I    between atoms: C_27  and  N_34 
REMARK   16  A    between atoms: CB_29  and  CG_30 
REMARK   17  A    between atoms: CG_30  and  CD_31 
REMARK       I    between atoms: CD_31  and  NE2_33 
REMARK   18  A    between atoms: N_34  and  CA_35 
REMARK   19  A    between atoms: CA_35  and  C_36 
REMARK   20  A    between atoms: CA_35  and  CB_38 
REMARK       I    between atoms: C_36  and  N_44 
REMARK   21  A    between atoms: CB_38  and  CG_39 
REMARK   22  A    between atoms: N_44  and  CA_45 
REMARK   23  A    between atoms: CA_45  and  C_46 
REMARK   24  A    between atoms: CA_45  and  CB_48 
REMARK       I    between atoms: C_46  and  N_56 
REMARK   25  A    between atoms: CB_48  and  CG_49 
REMARK   26  A    between atoms: CZ_54  and  OH_55 
REMARK   27  A    between atoms: N_56  and  CA_57 
REMARK   28  A    between atoms: CA_57  and  C_58 
REMARK   29  A    between atoms: CA_57  and  CB_60 
REMARK       I    between atoms: C_58  and  N_64 
REMARK   30  A    between atoms: CB_60  and  CG_61 
REMARK   31  A    between atoms: N_64  and  CA_65 
REMARK   32  A    between atoms: CA_65  and  C_66 
REMARK   33  A    between atoms: CA_65  and  CB_69 
REMARK   34  A    between atoms: CB_69  and  OG_70 
ROOT
ATOM      1  CA  DVA d          43.618  55.343  88.056  0.00  0.00     0.090 C 
ATOM      2  H28 DVA d          44.538  55.793  88.460  0.00  0.00     0.087 H 
ENDROOT
BRANCH   1   3
ATOM      3  N   DVA d          42.478  55.867  88.792  0.00  0.00    -0.346 N 
ATOM      4  C   DVA d          42.663  56.859  89.644  0.00  0.00     0.243 C 
ATOM      5  O   DVA d          43.758  57.367  89.829  0.00  0.00    -0.271 OA
ATOM      6  H27 DVA d          41.566  55.481  88.654  0.00  0.00     0.163 HD
BRANCH   4   7
ATOM      7  CA  DVA d          41.451  57.339  90.420  0.00  0.00     0.109 C 
ATOM      8  H23 DVA d          41.729  58.123  91.139  0.00  0.00     0.090 H 
BRANCH   7   9
ATOM      9  N   DVA d          40.894  56.198  91.112  0.00  0.00    -0.344 N 
ATOM     10  C   DVA d          41.065  56.017  92.412  0.00  0.00     0.236 C 
ATOM     11  O   DVA d          41.699  56.795  93.124  0.00  0.00    -0.272 OA
ATOM     12  H22 DVA d          40.364  55.527  90.593  0.00  0.00     0.163 HD
BRANCH  10  13
ATOM     13  CA  DVA d          40.430  54.783  92.999  0.00  0.00     0.069 C 
ATOM     14  H20 DVA d          39.362  54.963  93.188  0.00  0.00     0.078 H 
ATOM     15  H21 DVA d          40.543  53.936  92.306  0.00  0.00     0.078 H 
BRANCH  13  16
ATOM     16  N   DVA d          41.110  54.500  94.239  0.00  0.00    -0.351 N 
ATOM     17  C   DVA d          41.174  53.266  94.719  0.00  0.00     0.241 C 
ATOM     18  O   DVA d          40.682  52.289  94.147  0.00  0.00    -0.271 OA
ATOM     19  H19 DVA d          41.541  55.247  94.746  0.00  0.00     0.163 HD
BRANCH  17  20
ATOM     20  CA  DVA d          41.923  53.125  96.043  0.00  0.00     0.091 C 
ATOM     21  N   DVA d          43.365  53.336  95.842  0.00  0.00    -0.337 N 
ATOM     22  C   DVA d          44.146  54.432  95.658  0.00  0.00     0.251 C 
ATOM     23  CD  DVA d          44.067  52.037  95.862  0.00  0.00    -0.001 C 
ATOM     24  O   DVA d          45.364  54.329  95.469  0.00  0.00    -0.271 OA
ATOM     25  CG  DVA d          42.927  51.039  95.782  0.00  0.00    -0.048 C 
ATOM     26  H17 DVA d          44.639  51.910  96.793  0.00  0.00     0.064 H 
ATOM     27  H18 DVA d          44.742  51.938  94.999  0.00  0.00     0.064 H 
ATOM     28  CB  DVA d          41.860  51.702  96.579  0.00  0.00    -0.036 C 
ATOM     29  H15 DVA d          42.608  50.883  94.741  0.00  0.00     0.035 H 
ATOM     30  H16 DVA d          43.212  50.074  96.226  0.00  0.00     0.035 H 
ATOM     31  H13 DVA d          40.876  51.246  96.392  0.00  0.00     0.036 H 
ATOM     32  H14 DVA d          42.082  51.668  97.656  0.00  0.00     0.036 H 
ATOM     33  H12 DVA d          41.514  53.840  96.773  0.00  0.00     0.087 H 
BRANCH  22  34
ATOM     34  CA  DVA d          43.497  55.836  95.638  0.00  0.00     0.178 C 
ATOM     35  H4  DVA d          42.584  55.768  95.028  0.00  0.00     0.099 H 
BRANCH  34  36
ATOM     36  N   DVA d          44.428  56.794  94.979  0.00  0.00    -0.066 N 
ATOM     37  H1  DVA d          43.901  57.556  94.581  0.00  0.00     0.275 HD
ATOM     38  H2  DVA d          44.937  56.320  94.249  0.00  0.00     0.275 HD
ATOM     39  H3  DVA d          45.077  57.155  95.661  0.00  0.00     0.275 HD
ENDBRANCH  34  36
BRANCH  34  40
ATOM     40  CB  DVA d          43.081  56.373  97.022  0.00  0.00    -0.025 C 
ATOM     41  H5  DVA d          42.327  55.701  97.460  0.00  0.00     0.042 H 
BRANCH  40  42
ATOM     42  CG1 DVA d          44.285  56.436  97.948  0.00  0.00    -0.071 C 
ATOM     43  H6  DVA d          44.384  55.481  98.486  0.00  0.00     0.028 H 
ATOM     44  H7  DVA d          44.148  57.252  98.673  0.00  0.00     0.028 H 
ATOM     45  H8  DVA d          45.194  56.619  97.356  0.00  0.00     0.028 H 
ENDBRANCH  40  42
BRANCH  40  46
ATOM     46  CG2 DVA d          42.474  57.768  96.850  0.00  0.00    -0.071 C 
ATOM     47  H9  DVA d          42.650  58.121  95.823  0.00  0.00     0.028 H 
ATOM     48  H10 DVA d          42.944  58.462  97.562  0.00  0.00     0.028 H 
ATOM     49  H11 DVA d          41.393  57.724  97.042  0.00  0.00     0.028 H 
ENDBRANCH  40  46
ENDBRANCH  34  40
ENDBRANCH  22  34
ENDBRANCH  17  20
ENDBRANCH  13  16
ENDBRANCH  10  13
ENDBRANCH   7   9
BRANCH   7  50
ATOM     50  CB  DVA d          40.449  57.876  89.404  0.00  0.00     0.044 C 
ATOM     51  H24 DVA d          40.990  58.402  88.603  0.00  0.00     0.077 H 
ATOM     52  H25 DVA d          39.763  58.575  89.904  0.00  0.00     0.077 H 
BRANCH  50  53
ATOM     53  OG  DVA d          39.705  56.808  88.842  0.00  0.00    -0.398 OA
ATOM     54  H26 DVA d          39.351  56.269  89.540  0.00  0.00     0.209 HD
ENDBRANCH  50  53
ENDBRANCH   7  50
ENDBRANCH   4   7
ENDBRANCH   1   3
BRANCH   1  55
ATOM     55  C   DVA d          43.706  53.827  88.213  0.00  0.00     0.241 C 
ATOM     56  O   DVA d          42.691  53.128  88.139  0.00  0.00    -0.271 OA
ATOM     57  N   DVA d          44.922  53.324  88.430  0.00  0.00    -0.346 N 
ATOM     58  H35 DVA d          45.709  53.941  88.451  0.00  0.00     0.163 HD
BRANCH  57  59
ATOM     59  CA  DVA d          45.137  51.875  88.641  0.00  0.00     0.094 C 
ATOM     60  H36 DVA d          44.163  51.423  88.877  0.00  0.00     0.088 H 
BRANCH  59  61
ATOM     61  C   DVA d          45.737  51.170  87.459  0.00  0.00     0.241 C 
ATOM     62  O   DVA d          45.207  50.143  87.014  0.00  0.00    -0.271 OA
ATOM     63  N   DVA d          46.857  51.700  86.979  0.00  0.00    -0.346 N 
ATOM     64  H42 DVA d          47.188  52.571  87.338  0.00  0.00     0.163 HD
BRANCH  63  65
ATOM     65  CA  DVA d          47.608  51.015  85.927  0.00  0.00     0.093 C 
ATOM     66  H43 DVA d          47.816  49.995  86.282  0.00  0.00     0.088 H 
BRANCH  65  67
ATOM     67  C   DVA d          46.897  50.885  84.586  0.00  0.00     0.241 C 
ATOM     68  O   DVA d          46.951  49.822  83.961  0.00  0.00    -0.271 OA
ATOM     69  N   DVA d          46.252  51.966  84.151  0.00  0.00    -0.345 N 
ATOM     70  H51 DVA d          46.268  52.796  84.707  0.00  0.00     0.163 HD
BRANCH  69  71
ATOM     71  CA  DVA d          45.517  51.976  82.878  0.00  0.00     0.098 C 
ATOM     72  H52 DVA d          45.758  51.043  82.347  0.00  0.00     0.088 H 
BRANCH  71  73
ATOM     73  C   DVA d          44.000  52.059  83.034  0.00  0.00     0.241 C 
ATOM     74  O   DVA d          43.286  51.051  82.954  0.00  0.00    -0.271 OA
ATOM     75  N   DVA d          43.550  53.292  83.277  0.00  0.00    -0.343 N 
ATOM     76  H55 DVA d          44.232  54.023  83.303  0.00  0.00     0.163 HD
BRANCH  75  77
ATOM     77  CA  DVA d          42.158  53.679  83.511  0.00  0.00     0.116 C 
ATOM     78  H56 DVA d          42.176  54.723  83.859  0.00  0.00     0.093 H 
BRANCH  77  79
ATOM     79  C   DVA d          41.292  53.644  82.260  0.00  0.00     0.198 C 
ATOM     80  O   DVA d          40.051  53.610  82.395  0.00  0.00    -0.646 OA
ATOM     81  OXT DVA d          41.881  53.657  81.155  0.00  0.00    -0.646 OA
ENDBRANCH  77  79
BRANCH  77  82
ATOM     82  CB  DVA d          41.518  52.836  84.621  0.00  0.00     0.045 C 
ATOM     83  H57 DVA d          40.927  52.028  84.164  0.00  0.00     0.077 H 
ATOM     84  H58 DVA d          40.858  53.478  85.225  0.00  0.00     0.077 H 
BRANCH  82  85
ATOM     85  OG  DVA d          42.510  52.266  85.465  0.00  0.00    -0.398 OA
ATOM     86  H59 DVA d          43.274  52.831  85.482  0.00  0.00     0.209 HD
ENDBRANCH  82  85
ENDBRANCH  77  82
ENDBRANCH  75  77
ENDBRANCH  71  73
BRANCH  71  87
ATOM     87  CB  DVA d          45.953  53.164  82.018  0.00  0.00     0.043 C 
ATOM     88  H53 DVA d          46.412  53.922  82.671  0.00  0.00     0.052 H 
ATOM     89  H54 DVA d          45.064  53.590  81.530  0.00  0.00     0.052 H 
BRANCH  87  90
ATOM     90  CG  DVA d          46.947  52.776  80.955  0.00  0.00     0.175 C 
ATOM     91  OD1 DVA d          47.039  51.571  80.636  0.00  0.00    -0.648 OA
ATOM     92  OD2 DVA d          47.625  53.673  80.427  0.00  0.00    -0.648 OA
ENDBRANCH  87  90
ENDBRANCH  71  87
ENDBRANCH  69  71
ENDBRANCH  65  67
BRANCH  65  93
ATOM     93  CB  DVA d          48.940  51.749  85.743  0.00  0.00    -0.014 C 
ATOM     94  H44 DVA d          49.260  51.639  84.696  0.00  0.00     0.043 H 
ATOM     95  H45 DVA d          49.689  51.290  86.406  0.00  0.00     0.043 H 
BRANCH  93  96
ATOM     96  CG  DVA d          48.847  53.231  86.069  0.00  0.00    -0.056 A 
ATOM     97  CD1 DVA d          48.798  53.671  87.396  0.00  0.00    -0.074 A 
ATOM     98  CE1 DVA d          48.677  55.033  87.720  0.00  0.00    -0.051 A 
ATOM     99  H46 DVA d          48.856  52.942  88.196  0.00  0.00     0.084 H 
ATOM    100  CZ  DVA d          48.610  55.975  86.675  0.00  0.00     0.065 A 
ATOM    101  H48 DVA d          48.637  55.353  88.756  0.00  0.00     0.087 H 
ATOM    102  CE2 DVA d          48.655  55.557  85.353  0.00  0.00    -0.051 A 
ATOM    103  CD2 DVA d          48.772  54.189  85.049  0.00  0.00    -0.074 A 
ATOM    104  H49 DVA d          48.601  56.287  84.553  0.00  0.00     0.087 H 
ATOM    105  H47 DVA d          48.806  53.872  84.012  0.00  0.00     0.084 H 
BRANCH 100 106
ATOM    106  OH  DVA d          48.515  57.321  86.947  0.00  0.00    -0.361 OA
ATOM    107  H50 DVA d          49.214  57.783  86.501  0.00  0.00     0.217 HD
ENDBRANCH 100 106
ENDBRANCH  93  96
ENDBRANCH  65  93
ENDBRANCH  63  65
ENDBRANCH  59  61
BRANCH  59 108
ATOM    108  CB  DVA d          46.120  51.603  89.781  0.00  0.00     0.004 C 
ATOM    109  H37 DVA d          47.136  51.573  89.359  0.00  0.00     0.046 H 
ATOM    110  H38 DVA d          45.876  50.624  90.220  0.00  0.00     0.046 H 
BRANCH 108 111
ATOM    111  CG  DVA d          46.099  52.626  90.876  0.00  0.00     0.053 A 
ATOM    112  ND1 DVA d          46.921  53.735  90.883  0.00  0.00    -0.247 NA
ATOM    113  CE1 DVA d          46.659  54.468  91.956  0.00  0.00     0.064 A 
ATOM    114  NE2 DVA d          45.697  53.868  92.646  0.00  0.00    -0.359 N 
ATOM    115  H40 DVA d          47.148  55.403  92.225  0.00  0.00     0.143 H 
ATOM    116  CD2 DVA d          45.333  52.713  91.990  0.00  0.00     0.002 A 
ATOM    117  H41 DVA d          45.289  54.210  93.528  0.00  0.00     0.166 HD
ATOM    118  H39 DVA d          44.572  52.002  92.307  0.00  0.00     0.114 H 
ENDBRANCH 108 111
ENDBRANCH  59 108
ENDBRANCH  57  59
ENDBRANCH   1  55
BRANCH   1 119
ATOM    119  CB  DVA d          43.491  55.720  86.575  0.00  0.00    -0.030 C 
ATOM    120  H29 DVA d          42.852  56.612  86.485  0.00  0.00     0.037 H 
ATOM    121  H30 DVA d          43.031  54.882  86.029  0.00  0.00     0.037 H 
BRANCH 119 122
ATOM    122  CG  DVA d          44.877  56.026  85.958  0.00  0.00     0.011 C 
ATOM    123  H31 DVA d          44.861  55.717  84.902  0.00  0.00     0.047 H 
ATOM    124  H32 DVA d          45.634  55.440  86.500  0.00  0.00     0.047 H 
BRANCH 122 125
ATOM    125  CD  DVA d          45.282  57.510  86.019  0.00  0.00     0.215 C 
ATOM    126  OE1 DVA d          45.013  58.205  87.016  0.00  0.00    -0.274 OA
ATOM    127  NE2 DVA d          45.928  57.988  84.975  0.00  0.00    -0.370 N 
ATOM    128  H33 DVA d          46.215  58.945  84.961  0.00  0.00     0.159 HD
ATOM    129  H34 DVA d          46.130  57.393  84.197  0.00  0.00     0.159 HD
ENDBRANCH 122 125
ENDBRANCH 119 122
ENDBRANCH   1 119
TORSDOF 34
ENDMDL
MODEL 4
REMARK VINA RESULT:      -3.8      3.048      8.816
REMARK WARNING: 32 MAX_TORS EXCEEDED!!!
REMARK  34 active torsions:
REMARK  status: ('A' for Active; 'I' for Inactive)
REMARK    1  A    between atoms: N_1  and  CA_2 
REMARK    2  A    between atoms: CA_2  and  CB_3 
REMARK    3  A    between atoms: CA_2  and  C_6 
REMARK    4  A    between atoms: CB_3  and  CG1_4 
REMARK    5  A    between atoms: CB_3  and  CG2_5 
REMARK       I    between atoms: C_6  and  N_8 
REMARK    6  A    between atoms: CA_9  and  C_13 
REMARK       I    between atoms: C_13  and  N_15 
REMARK    7  A    between atoms: N_15  and  CA_16 
REMARK    8  A    between atoms: CA_16  and  C_17 
REMARK       I    between atoms: C_17  and  N_19 
REMARK    9  A    between atoms: N_19  and  CA_20 
REMARK   10  A    between atoms: CA_20  and  C_21 
REMARK   11  A    between atoms: CA_20  and  CB_23 
REMARK       I    between atoms: C_21  and  N_25 
REMARK   12  A    between atoms: CB_23  and  OG_24 
REMARK   13  A    between atoms: N_25  and  CA_26 
REMARK   14  A    between atoms: CA_26  and  C_27 
REMARK   15  A    between atoms: CA_26  and  CB_29 
REMARK       I    between atoms: C_27  and  N_34 
REMARK   16  A    between atoms: CB_29  and  CG_30 
REMARK   17  A    between atoms: CG_30  and  CD_31 
REMARK       I    between atoms: CD_31  and  NE2_33 
REMARK   18  A    between atoms: N_34  and  CA_35 
REMARK   19  A    between atoms: CA_35  and  C_36 
REMARK   20  A    between atoms: CA_35  and  CB_38 
REMARK       I    between atoms: C_36  and  N_44 
REMARK   21  A    between atoms: CB_38  and  CG_39 
REMARK   22  A    between atoms: N_44  and  CA_45 
REMARK   23  A    between atoms: CA_45  and  C_46 
REMARK   24  A    between atoms: CA_45  and  CB_48 
REMARK       I    between atoms: C_46  and  N_56 
REMARK   25  A    between atoms: CB_48  and  CG_49 
REMARK   26  A    between atoms: CZ_54  and  OH_55 
REMARK   27  A    between atoms: N_56  and  CA_57 
REMARK   28  A    between atoms: CA_57  and  C_58 
REMARK   29  A    between atoms: CA_57  and  CB_60 
REMARK       I    between atoms: C_58  and  N_64 
REMARK   30  A    between atoms: CB_60  and  CG_61 
REMARK   31  A    between atoms: N_64  and  CA_65 
REMARK   32  A    between atoms: CA_65  and  C_66 
REMARK   33  A    between atoms: CA_65  and  CB_69 
REMARK   34  A    between atoms: CB_69  and  OG_70 
ROOT
ATOM      1  CA  DVA d          40.622  53.390  92.551  0.00  0.00     0.090 C 
ATOM      2  H28 DVA d          41.222  52.537  92.201  0.00  0.00     0.087 H 
ENDROOT
BRANCH   1   3
ATOM      3  N   DVA d          40.735  54.472  91.586  0.00  0.00    -0.346 N 
ATOM      4  C   DVA d          41.073  54.190  90.341  0.00  0.00     0.243 C 
ATOM      5  O   DVA d          41.279  53.049  89.961  0.00  0.00    -0.271 OA
ATOM      6  H27 DVA d          40.561  55.417  91.863  0.00  0.00     0.163 HD
BRANCH   4   7
ATOM      7  CA  DVA d          41.223  55.358  89.384  0.00  0.00     0.109 C 
ATOM      8  H23 DVA d          40.305  55.506  88.797  0.00  0.00     0.090 H 
BRANCH   7   9
ATOM      9  N   DVA d          42.337  55.069  88.511  0.00  0.00    -0.344 N 
ATOM     10  C   DVA d          42.405  55.550  87.279  0.00  0.00     0.236 C 
ATOM     11  O   DVA d          41.537  56.275  86.790  0.00  0.00    -0.272 OA
ATOM     12  H22 DVA d          43.079  54.489  88.846  0.00  0.00     0.163 HD
BRANCH  10  13
ATOM     13  CA  DVA d          43.623  55.164  86.481  0.00  0.00     0.069 C 
ATOM     14  H20 DVA d          44.105  56.065  86.072  0.00  0.00     0.078 H 
ATOM     15  H21 DVA d          44.336  54.625  87.121  0.00  0.00     0.078 H 
BRANCH  13  16
ATOM     16  N   DVA d          43.179  54.310  85.407  0.00  0.00    -0.351 N 
ATOM     17  C   DVA d          43.026  53.006  85.587  0.00  0.00     0.241 C 
ATOM     18  O   DVA d          43.234  52.441  86.666  0.00  0.00    -0.271 OA
ATOM     19  H19 DVA d          42.982  54.709  84.511  0.00  0.00     0.163 HD
BRANCH  17  20
ATOM     20  CA  DVA d          42.555  52.234  84.357  0.00  0.00     0.091 C 
ATOM     21  N   DVA d          43.635  52.143  83.363  0.00  0.00    -0.337 N 
ATOM     22  C   DVA d          44.759  51.388  83.253  0.00  0.00     0.251 C 
ATOM     23  CD  DVA d          43.385  53.096  82.264  0.00  0.00    -0.001 C 
ATOM     24  O   DVA d          45.543  51.538  82.308  0.00  0.00    -0.271 OA
ATOM     25  CG  DVA d          42.267  53.960  82.817  0.00  0.00    -0.048 C 
ATOM     26  H17 DVA d          43.066  52.574  81.350  0.00  0.00     0.064 H 
ATOM     27  H18 DVA d          44.281  53.697  82.050  0.00  0.00     0.064 H 
ATOM     28  CB  DVA d          41.465  52.985  83.604  0.00  0.00    -0.036 C 
ATOM     29  H15 DVA d          42.664  54.759  83.460  0.00  0.00     0.035 H 
ATOM     30  H16 DVA d          41.670  54.404  82.007  0.00  0.00     0.035 H 
ATOM     31  H13 DVA d          40.778  53.495  84.296  0.00  0.00     0.036 H 
ATOM     32  H14 DVA d          40.893  52.312  82.948  0.00  0.00     0.036 H 
ATOM     33  H12 DVA d          42.207  51.236  84.661  0.00  0.00     0.087 H 
BRANCH  22  34
ATOM     34  CA  DVA d          45.092  50.350  84.351  0.00  0.00     0.178 C 
ATOM     35  H4  DVA d          45.682  49.551  83.879  0.00  0.00     0.099 H 
BRANCH  34  36
ATOM     36  N   DVA d          43.825  49.757  84.861  0.00  0.00    -0.066 N 
ATOM     37  H1  DVA d          43.153  50.490  85.025  0.00  0.00     0.275 HD
ATOM     38  H2  DVA d          44.007  49.268  85.724  0.00  0.00     0.275 HD
ATOM     39  H3  DVA d          43.458  49.111  84.180  0.00  0.00     0.275 HD
ENDBRANCH  34  36
BRANCH  34  40
ATOM     40  CB  DVA d          45.928  50.900  85.524  0.00  0.00    -0.025 C 
ATOM     41  H5  DVA d          45.545  51.892  85.808  0.00  0.00     0.042 H 
BRANCH  40  42
ATOM     42  CG1 DVA d          45.830  49.970  86.723  0.00  0.00    -0.071 C 
ATOM     43  H6  DVA d          45.362  50.503  87.563  0.00  0.00     0.028 H 
ATOM     44  H7  DVA d          46.838  49.640  87.014  0.00  0.00     0.028 H 
ATOM     45  H8  DVA d          45.219  49.094  86.459  0.00  0.00     0.028 H 
ENDBRANCH  40  42
BRANCH  40  46
ATOM     46  CG2 DVA d          47.385  51.031  85.075  0.00  0.00    -0.071 C 
ATOM     47  H9  DVA d          47.640  50.194  84.408  0.00  0.00     0.028 H 
ATOM     48  H10 DVA d          48.043  51.012  85.957  0.00  0.00     0.028 H 
ATOM     49  H11 DVA d          47.520  51.981  84.539  0.00  0.00     0.028 H 
ENDBRANCH  40  46
ENDBRANCH  34  40
ENDBRANCH  22  34
ENDBRANCH  17  20
ENDBRANCH  13  16
ENDBRANCH  10  13
ENDBRANCH   7   9
BRANCH   7  50
ATOM     50  CB  DVA d          41.523  56.594  90.226  0.00  0.00     0.044 C 
ATOM     51  H24 DVA d          42.294  57.198  89.724  0.00  0.00     0.077 H 
ATOM     52  H25 DVA d          41.888  56.280  91.215  0.00  0.00     0.077 H 
BRANCH  50  53
ATOM     53  OG  DVA d          40.348  57.372  90.385  0.00  0.00    -0.398 OA
ATOM     54  H26 DVA d          40.543  58.281  90.190  0.00  0.00     0.209 HD
ENDBRANCH  50  53
ENDBRANCH   7  50
ENDBRANCH   4   7
ENDBRANCH   1   3
BRANCH   1  55
ATOM     55  C   DVA d          41.148  53.831  93.915  0.00  0.00     0.241 C 
ATOM     56  O   DVA d          40.443  53.728  94.923  0.00  0.00    -0.271 OA
ATOM     57  N   DVA d          42.389  54.320  93.941  0.00  0.00    -0.346 N 
ATOM     58  H35 DVA d          42.920  54.350  93.094  0.00  0.00     0.163 HD
BRANCH  57  59
ATOM     59  CA  DVA d          43.000  54.820  95.192  0.00  0.00     0.094 C 
ATOM     60  H36 DVA d          42.186  55.145  95.856  0.00  0.00     0.088 H 
BRANCH  59  61
ATOM     61  C   DVA d          43.846  53.805  95.905  0.00  0.00     0.241 C 
ATOM     62  O   DVA d          43.420  53.250  96.927  0.00  0.00    -0.271 OA
ATOM     63  N   DVA d          45.051  53.592  95.388  0.00  0.00    -0.346 N 
ATOM     64  H42 DVA d          45.300  54.018  94.519  0.00  0.00     0.163 HD
BRANCH  63  65
ATOM     65  CA  DVA d          46.014  52.737  96.081  0.00  0.00     0.093 C 
ATOM     66  H43 DVA d          45.549  52.416  97.025  0.00  0.00     0.088 H 
BRANCH  65  67
ATOM     67  C   DVA d          46.433  51.475  95.337  0.00  0.00     0.241 C 
ATOM     68  O   DVA d          46.004  50.376  95.700  0.00  0.00    -0.271 OA
ATOM     69  N   DVA d          47.273  51.641  94.317  0.00  0.00    -0.345 N 
ATOM     70  H51 DVA d          47.589  52.564  94.095  0.00  0.00     0.163 HD
BRANCH  69  71
ATOM     71  CA  DVA d          47.751  50.512  93.508  0.00  0.00     0.098 C 
ATOM     72  H52 DVA d          47.599  49.594  94.096  0.00  0.00     0.088 H 
BRANCH  71  73
ATOM     73  C   DVA d          47.026  50.348  92.174  0.00  0.00     0.241 C 
ATOM     74  O   DVA d          46.551  49.259  91.825  0.00  0.00    -0.271 OA
ATOM     75  N   DVA d          46.947  51.475  91.462  0.00  0.00    -0.343 N 
ATOM     76  H55 DVA d          47.386  52.285  91.852  0.00  0.00     0.163 HD
BRANCH  75  77
ATOM     77  CA  DVA d          46.282  51.642  90.169  0.00  0.00     0.116 C 
ATOM     78  H56 DVA d          46.302  50.658  89.676  0.00  0.00     0.093 H 
BRANCH  77  79
ATOM     79  C   DVA d          44.821  52.054  90.278  0.00  0.00     0.198 C 
ATOM     80  O   DVA d          44.013  51.612  89.436  0.00  0.00    -0.646 OA
ATOM     81  OXT DVA d          44.510  52.818  91.221  0.00  0.00    -0.646 OA
ENDBRANCH  77  79
BRANCH  77  82
ATOM     82  CB  DVA d          47.042  52.622  89.267  0.00  0.00     0.045 C 
ATOM     83  H57 DVA d          47.522  52.061  88.450  0.00  0.00     0.077 H 
ATOM     84  H58 DVA d          47.813  53.135  89.862  0.00  0.00     0.077 H 
BRANCH  82  85
ATOM     85  OG  DVA d          46.163  53.591  88.711  0.00  0.00    -0.398 OA
ATOM     86  H59 DVA d          45.582  53.917  89.389  0.00  0.00     0.209 HD
ENDBRANCH  82  85
ENDBRANCH  77  82
ENDBRANCH  75  77
ENDBRANCH  71  73
BRANCH  71  87
ATOM     87  CB  DVA d          49.242  50.665  93.202  0.00  0.00     0.043 C 
ATOM     88  H53 DVA d          49.356  51.339  92.340  0.00  0.00     0.052 H 
ATOM     89  H54 DVA d          49.653  49.676  92.951  0.00  0.00     0.052 H 
BRANCH  87  90
ATOM     90  CG  DVA d          50.017  51.230  94.362  0.00  0.00     0.175 C 
ATOM     91  OD1 DVA d          50.107  52.473  94.472  0.00  0.00    -0.648 OA
ATOM     92  OD2 DVA d          50.523  50.438  95.175  0.00  0.00    -0.648 OA
ENDBRANCH  87  90
ENDBRANCH  71  87
ENDBRANCH  69  71
ENDBRANCH  65  67
BRANCH  65  93
ATOM     93  CB  DVA d          47.248  53.584  96.409  0.00  0.00    -0.014 C 
ATOM     94  H44 DVA d          48.148  53.006  96.155  0.00  0.00     0.043 H 
ATOM     95  H45 DVA d          47.245  53.806  97.486  0.00  0.00     0.043 H 
BRANCH  93  96
ATOM     96  CG  DVA d          47.282  54.897  95.642  0.00  0.00    -0.056 A 
ATOM     97  CD1 DVA d          47.451  54.913  94.254  0.00  0.00    -0.074 A 
ATOM     98  CE1 DVA d          47.520  56.115  93.530  0.00  0.00    -0.051 A 
ATOM     99  H46 DVA d          47.532  53.972  93.722  0.00  0.00     0.084 H 
ATOM    100  CZ  DVA d          47.407  57.333  94.228  0.00  0.00     0.065 A 
ATOM    101  H48 DVA d          47.657  56.105  92.454  0.00  0.00     0.087 H 
ATOM    102  CE2 DVA d          47.239  57.338  95.605  0.00  0.00    -0.051 A 
ATOM    103  CD2 DVA d          47.177  56.124  96.312  0.00  0.00    -0.074 A 
ATOM    104  H49 DVA d          47.155  58.279  96.136  0.00  0.00     0.087 H 
ATOM    105  H47 DVA d          47.047  56.138  97.389  0.00  0.00     0.084 H 
BRANCH 100 106
ATOM    106  OH  DVA d          47.445  58.534  93.556  0.00  0.00    -0.361 OA
ATOM    107  H50 DVA d          46.599  58.698  93.155  0.00  0.00     0.217 HD
ENDBRANCH 100 106
ENDBRANCH  93  96
ENDBRANCH  65  93
ENDBRANCH  63  65
ENDBRANCH  59  61
BRANCH  59 108
ATOM    108  CB  DVA d          43.953  55.989  94.935  0.00  0.00     0.004 C 
ATOM    109  H37 DVA d          44.768  55.634  94.288  0.00  0.00     0.046 H 
ATOM    110  H38 DVA d          44.367  56.314  95.901  0.00  0.00     0.046 H 
BRANCH 108 111
ATOM    111  CG  DVA d          43.316  57.176  94.277  0.00  0.00     0.053 A 
ATOM    112  ND1 DVA d          41.961  57.250  94.015  0.00  0.00    -0.247 NA
ATOM    113  CE1 DVA d          41.688  58.421  93.457  0.00  0.00     0.064 A 
ATOM    114  NE2 DVA d          42.820  59.105  93.344  0.00  0.00    -0.359 N 
ATOM    115  H40 DVA d          40.702  58.763  93.144  0.00  0.00     0.143 H 
ATOM    116  CD2 DVA d          43.851  58.343  93.849  0.00  0.00     0.002 A 
ATOM    117  H41 DVA d          42.913  60.049  92.944  0.00  0.00     0.166 HD
ATOM    118  H39 DVA d          44.901  58.628  93.895  0.00  0.00     0.114 H 
ENDBRANCH 108 111
ENDBRANCH  59 108
ENDBRANCH  57  59
ENDBRANCH   1  55
BRANCH   1 119
ATOM    119  CB  DVA d          39.156  52.952  92.661  0.00  0.00    -0.030 C 
ATOM    120  H29 DVA d          38.549  53.550  91.965  0.00  0.00     0.037 H 
ATOM    121  H30 DVA d          38.807  53.120  93.691  0.00  0.00     0.037 H 
BRANCH 119 122
ATOM    122  CG  DVA d          38.996  51.452  92.312  0.00  0.00     0.011 C 
ATOM    123  H31 DVA d          39.998  51.020  92.180  0.00  0.00     0.047 H 
ATOM    124  H32 DVA d          38.437  51.375  91.367  0.00  0.00     0.047 H 
BRANCH 122 125
ATOM    125  CD  DVA d          38.253  50.630  93.380  0.00  0.00     0.215 C 
ATOM    126  OE1 DVA d          38.084  51.080  94.529  0.00  0.00    -0.274 OA
ATOM    127  NE2 DVA d          37.806  49.449  93.009  0.00  0.00    -0.370 N 
ATOM    128  H33 DVA d          37.316  48.872  93.662  0.00  0.00     0.159 HD
ATOM    129  H34 DVA d          37.957  49.128  92.074  0.00  0.00     0.159 HD
ENDBRANCH 122 125
ENDBRANCH 119 122
ENDBRANCH   1 119
TORSDOF 34
ENDMDL
MODEL 5
REMARK VINA RESULT:      -3.0      2.687      6.953
REMARK WARNING: 32 MAX_TORS EXCEEDED!!!
REMARK  34 active torsions:
REMARK  status: ('A' for Active; 'I' for Inactive)
REMARK    1  A    between atoms: N_1  and  CA_2 
REMARK    2  A    between atoms: CA_2  and  CB_3 
REMARK    3  A    between atoms: CA_2  and  C_6 
REMARK    4  A    between atoms: CB_3  and  CG1_4 
REMARK    5  A    between atoms: CB_3  and  CG2_5 
REMARK       I    between atoms: C_6  and  N_8 
REMARK    6  A    between atoms: CA_9  and  C_13 
REMARK       I    between atoms: C_13  and  N_15 
REMARK    7  A    between atoms: N_15  and  CA_16 
REMARK    8  A    between atoms: CA_16  and  C_17 
REMARK       I    between atoms: C_17  and  N_19 
REMARK    9  A    between atoms: N_19  and  CA_20 
REMARK   10  A    between atoms: CA_20  and  C_21 
REMARK   11  A    between atoms: CA_20  and  CB_23 
REMARK       I    between atoms: C_21  and  N_25 
REMARK   12  A    between atoms: CB_23  and  OG_24 
REMARK   13  A    between atoms: N_25  and  CA_26 
REMARK   14  A    between atoms: CA_26  and  C_27 
REMARK   15  A    between atoms: CA_26  and  CB_29 
REMARK       I    between atoms: C_27  and  N_34 
REMARK   16  A    between atoms: CB_29  and  CG_30 
REMARK   17  A    between atoms: CG_30  and  CD_31 
REMARK       I    between atoms: CD_31  and  NE2_33 
REMARK   18  A    between atoms: N_34  and  CA_35 
REMARK   19  A    between atoms: CA_35  and  C_36 
REMARK   20  A    between atoms: CA_35  and  CB_38 
REMARK       I    between atoms: C_36  and  N_44 
REMARK   21  A    between atoms: CB_38  and  CG_39 
REMARK   22  A    between atoms: N_44  and  CA_45 
REMARK   23  A    between atoms: CA_45  and  C_46 
REMARK   24  A    between atoms: CA_45  and  CB_48 
REMARK       I    between atoms: C_46  and  N_56 
REMARK   25  A    between atoms: CB_48  and  CG_49 
REMARK   26  A    between atoms: CZ_54  and  OH_55 
REMARK   27  A    between atoms: N_56  and  CA_57 
REMARK   28  A    between atoms: CA_57  and  C_58 
REMARK   29  A    between atoms: CA_57  and  CB_60 
REMARK       I    between atoms: C_58  and  N_64 
REMARK   30  A    between atoms: CB_60  and  CG_61 
REMARK   31  A    between atoms: N_64  and  CA_65 
REMARK   32  A    between atoms: CA_65  and  C_66 
REMARK   33  A    between atoms: CA_65  and  CB_69 
REMARK   34  A    between atoms: CB_69  and  OG_70 
ROOT
ATOM      1  CA  DVA d          44.643  52.782  85.970  0.00  0.00     0.090 C 
ATOM      2  H28 DVA d          45.452  53.417  85.578  0.00  0.00     0.087 H 
ENDROOT
BRANCH   1   3
ATOM      3  N   DVA d          43.471  53.608  86.205  0.00  0.00    -0.346 N 
ATOM      4  C   DVA d          43.630  54.838  86.660  0.00  0.00     0.243 C 
ATOM      5  O   DVA d          44.732  55.316  86.878  0.00  0.00    -0.271 OA
ATOM      6  H27 DVA d          42.554  53.250  86.024  0.00  0.00     0.163 HD
BRANCH   4   7
ATOM      7  CA  DVA d          42.374  55.643  86.932  0.00  0.00     0.109 C 
ATOM      8  H23 DVA d          42.368  56.574  86.346  0.00  0.00     0.090 H 
BRANCH   7   9
ATOM      9  N   DVA d          42.341  55.940  88.346  0.00  0.00    -0.344 N 
ATOM     10  C   DVA d          42.201  57.176  88.799  0.00  0.00     0.236 C 
ATOM     11  O   DVA d          42.084  58.155  88.061  0.00  0.00    -0.272 OA
ATOM     12  H22 DVA d          42.427  55.190  89.002  0.00  0.00     0.163 HD
BRANCH  10  13
ATOM     13  CA  DVA d          42.186  57.337  90.296  0.00  0.00     0.069 C 
ATOM     14  H20 DVA d          43.217  57.365  90.682  0.00  0.00     0.078 H 
ATOM     15  H21 DVA d          41.668  58.268  90.570  0.00  0.00     0.078 H 
BRANCH  13  16
ATOM     16  N   DVA d          41.485  56.202  90.843  0.00  0.00    -0.351 N 
ATOM     17  C   DVA d          41.716  55.785  92.081  0.00  0.00     0.241 C 
ATOM     18  O   DVA d          42.517  56.334  92.843  0.00  0.00    -0.271 OA
ATOM     19  H19 DVA d          40.814  55.720  90.280  0.00  0.00     0.163 HD
BRANCH  17  20
ATOM     20  CA  DVA d          40.900  54.570  92.516  0.00  0.00     0.091 C 
ATOM     21  N   DVA d          41.602  53.834  93.578  0.00  0.00    -0.337 N 
ATOM     22  C   DVA d          41.781  54.035  94.910  0.00  0.00     0.251 C 
ATOM     23  CD  DVA d          42.219  52.615  93.019  0.00  0.00    -0.001 C 
ATOM     24  O   DVA d          42.467  53.262  95.590  0.00  0.00    -0.271 OA
ATOM     25  CG  DVA d          42.099  52.835  91.523  0.00  0.00    -0.048 C 
ATOM     26  H17 DVA d          41.672  51.714  93.332  0.00  0.00     0.064 H 
ATOM     27  H18 DVA d          43.273  52.529  93.324  0.00  0.00     0.064 H 
ATOM     28  CB  DVA d          40.792  53.536  91.403  0.00  0.00    -0.036 C 
ATOM     29  H15 DVA d          42.921  53.461  91.145  0.00  0.00     0.035 H 
ATOM     30  H16 DVA d          42.088  51.879  90.980  0.00  0.00     0.035 H 
ATOM     31  H13 DVA d          40.681  54.015  90.419  0.00  0.00     0.036 H 
ATOM     32  H14 DVA d          39.950  52.849  91.574  0.00  0.00     0.036 H 
ATOM     33  H12 DVA d          39.904  54.897  92.848  0.00  0.00     0.087 H 
BRANCH  22  34
ATOM     34  CA  DVA d          41.156  55.279  95.585  0.00  0.00     0.178 C 
ATOM     35  H4  DVA d          40.883  55.984  94.786  0.00  0.00     0.099 H 
BRANCH  34  36
ATOM     36  N   DVA d          42.179  55.929  96.451  0.00  0.00    -0.066 N 
ATOM     37  H1  DVA d          42.893  55.259  96.690  0.00  0.00     0.275 HD
ATOM     38  H2  DVA d          41.740  56.266  97.294  0.00  0.00     0.275 HD
ATOM     39  H3  DVA d          42.595  56.702  95.957  0.00  0.00     0.275 HD
ENDBRANCH  34  36
BRANCH  34  40
ATOM     40  CB  DVA d          39.878  54.996  96.399  0.00  0.00    -0.025 C 
ATOM     41  H5  DVA d          39.507  53.989  96.153  0.00  0.00     0.042 H 
BRANCH  40  42
ATOM     42  CG1 DVA d          40.175  55.064  97.888  0.00  0.00    -0.071 C 
ATOM     43  H6  DVA d          40.228  54.045  98.298  0.00  0.00     0.028 H 
ATOM     44  H7  DVA d          39.375  55.622  98.397  0.00  0.00     0.028 H 
ATOM     45  H8  DVA d          41.136  55.574  98.048  0.00  0.00     0.028 H 
ENDBRANCH  40  42
BRANCH  40  46
ATOM     46  CG2 DVA d          38.814  56.031  96.025  0.00  0.00    -0.071 C 
ATOM     47  H9  DVA d          38.383  56.462  96.942  0.00  0.00     0.028 H 
ATOM     48  H10 DVA d          38.020  55.546  95.440  0.00  0.00     0.028 H 
ATOM     49  H11 DVA d          39.274  56.830  95.426  0.00  0.00     0.028 H 
ENDBRANCH  40  46
ENDBRANCH  34  40
ENDBRANCH  22  34
ENDBRANCH  17  20
ENDBRANCH  13  16
ENDBRANCH  10  13
ENDBRANCH   7   9
BRANCH   7  50
ATOM     50  CB  DVA d          41.186  54.766  86.553  0.00  0.00     0.044 C 
ATOM     51  H24 DVA d          41.549  53.774  86.244  0.00  0.00     0.077 H 
ATOM     52  H25 DVA d          40.640  55.232  85.719  0.00  0.00     0.077 H 
BRANCH  50  53
ATOM     53  OG  DVA d          40.314  54.621  87.662  0.00  0.00    -0.398 OA
ATOM     54  H26 DVA d          39.418  54.763  87.379  0.00  0.00     0.209 HD
ENDBRANCH  50  53
ENDBRANCH   7  50
ENDBRANCH   4   7
ENDBRANCH   1   3
BRANCH   1  55
ATOM     55  C   DVA d          45.115  52.138  87.271  0.00  0.00     0.241 C 
ATOM     56  O   DVA d          44.452  51.242  87.804  0.00  0.00    -0.271 OA
ATOM     57  N   DVA d          46.259  52.597  87.779  0.00  0.00    -0.346 N 
ATOM     58  H35 DVA d          46.764  53.305  87.284  0.00  0.00     0.163 HD
BRANCH  57  59
ATOM     59  CA  DVA d          46.803  52.086  89.057  0.00  0.00     0.094 C 
ATOM     60  H36 DVA d          47.859  52.387  89.117  0.00  0.00     0.088 H 
BRANCH  59  61
ATOM     61  C   DVA d          46.075  52.585  90.271  0.00  0.00     0.241 C 
ATOM     62  O   DVA d          45.366  51.813  90.932  0.00  0.00    -0.271 OA
ATOM     63  N   DVA d          46.223  53.877  90.542  0.00  0.00    -0.346 N 
ATOM     64  H42 DVA d          46.870  54.425  90.012  0.00  0.00     0.163 HD
BRANCH  63  65
ATOM     65  CA  DVA d          45.446  54.504  91.611  0.00  0.00     0.093 C 
ATOM     66  H43 DVA d          44.398  54.195  91.480  0.00  0.00     0.088 H 
BRANCH  65  67
ATOM     67  C   DVA d          45.849  54.125  93.030  0.00  0.00     0.241 C 
ATOM     68  O   DVA d          45.146  54.472  93.983  0.00  0.00    -0.271 OA
ATOM     69  N   DVA d          46.978  53.431  93.159  0.00  0.00    -0.345 N 
ATOM     70  H51 DVA d          47.502  53.201  92.339  0.00  0.00     0.163 HD
BRANCH  69  71
ATOM     71  CA  DVA d          47.479  52.992  94.469  0.00  0.00     0.098 C 
ATOM     72  H52 DVA d          47.179  53.748  95.210  0.00  0.00     0.088 H 
BRANCH  71  73
ATOM     73  C   DVA d          46.939  51.637  94.922  0.00  0.00     0.241 C 
ATOM     74  O   DVA d          45.996  51.552  95.720  0.00  0.00    -0.271 OA
ATOM     75  N   DVA d          47.562  50.596  94.367  0.00  0.00    -0.343 N 
ATOM     76  H55 DVA d          48.320  50.802  93.748  0.00  0.00     0.163 HD
BRANCH  75  77
ATOM     77  CA  DVA d          47.245  49.182  94.573  0.00  0.00     0.116 C 
ATOM     78  H56 DVA d          46.592  49.131  95.458  0.00  0.00     0.093 H 
BRANCH  77  79
ATOM     79  C   DVA d          46.478  48.549  93.421  0.00  0.00     0.198 C 
ATOM     80  O   DVA d          46.662  48.991  92.269  0.00  0.00    -0.646 OA
ATOM     81  OXT DVA d          45.702  47.605  93.699  0.00  0.00    -0.646 OA
ENDBRANCH  77  79
BRANCH  77  82
ATOM     82  CB  DVA d          48.503  48.362  94.885  0.00  0.00     0.045 C 
ATOM     83  H57 DVA d          48.800  47.803  93.985  0.00  0.00     0.077 H 
ATOM     84  H58 DVA d          48.280  47.656  95.699  0.00  0.00     0.077 H 
BRANCH  82  85
ATOM     85  OG  DVA d          49.576  49.206  95.282  0.00  0.00    -0.398 OA
ATOM     86  H59 DVA d          50.193  49.292  94.564  0.00  0.00     0.209 HD
ENDBRANCH  82  85
ENDBRANCH  77  82
ENDBRANCH  75  77
ENDBRANCH  71  73
BRANCH  71  87
ATOM     87  CB  DVA d          49.006  52.892  94.452  0.00  0.00     0.043 C 
ATOM     88  H53 DVA d          49.300  51.924  94.885  0.00  0.00     0.052 H 
ATOM     89  H54 DVA d          49.419  53.708  95.063  0.00  0.00     0.052 H 
BRANCH  87  90
ATOM     90  CG  DVA d          49.578  52.992  93.063  0.00  0.00     0.175 C 
ATOM     91  OD1 DVA d          50.158  54.049  92.731  0.00  0.00    -0.648 OA
ATOM     92  OD2 DVA d          49.465  52.013  92.306  0.00  0.00    -0.648 OA
ENDBRANCH  87  90
ENDBRANCH  71  87
ENDBRANCH  69  71
ENDBRANCH  65  67
BRANCH  65  93
ATOM     93  CB  DVA d          45.533  56.023  91.431  0.00  0.00    -0.014 C 
ATOM     94  H44 DVA d          45.438  56.499  92.418  0.00  0.00     0.043 H 
ATOM     95  H45 DVA d          44.704  56.348  90.785  0.00  0.00     0.043 H 
BRANCH  93  96
ATOM     96  CG  DVA d          46.844  56.467  90.801  0.00  0.00    -0.056 A 
ATOM     97  CD1 DVA d          46.920  56.756  89.434  0.00  0.00    -0.074 A 
ATOM     98  CE1 DVA d          48.128  57.136  88.825  0.00  0.00    -0.051 A 
ATOM     99  H46 DVA d          46.023  56.686  88.830  0.00  0.00     0.084 H 
ATOM    100  CZ  DVA d          49.287  57.231  89.619  0.00  0.00     0.065 A 
ATOM    101  H48 DVA d          48.167  57.351  87.763  0.00  0.00     0.087 H 
ATOM    102  CE2 DVA d          49.231  56.947  90.976  0.00  0.00    -0.051 A 
ATOM    103  CD2 DVA d          48.013  56.565  91.567  0.00  0.00    -0.074 A 
ATOM    104  H49 DVA d          50.127  57.021  91.582  0.00  0.00     0.087 H 
ATOM    105  H47 DVA d          47.979  56.344  92.628  0.00  0.00     0.084 H 
BRANCH 100 106
ATOM    106  OH  DVA d          50.487  57.622  89.068  0.00  0.00    -0.361 OA
ATOM    107  H50 DVA d          50.688  57.066  88.324  0.00  0.00     0.217 HD
ENDBRANCH 100 106
ENDBRANCH  93  96
ENDBRANCH  65  93
ENDBRANCH  63  65
ENDBRANCH  59  61
BRANCH  59 108
ATOM    108  CB  DVA d          46.696  50.562  89.155  0.00  0.00     0.004 C 
ATOM    109  H37 DVA d          45.832  50.239  88.556  0.00  0.00     0.046 H 
ATOM    110  H38 DVA d          46.531  50.296  90.209  0.00  0.00     0.046 H 
BRANCH 108 111
ATOM    111  CG  DVA d          47.906  49.824  88.669  0.00  0.00     0.053 A 
ATOM    112  ND1 DVA d          48.796  49.199  89.521  0.00  0.00    -0.247 NA
ATOM    113  CE1 DVA d          49.744  48.609  88.807  0.00  0.00     0.064 A 
ATOM    114  NE2 DVA d          49.501  48.835  87.521  0.00  0.00    -0.359 N 
ATOM    115  H40 DVA d          50.580  48.037  89.207  0.00  0.00     0.143 H 
ATOM    116  CD2 DVA d          48.357  49.594  87.413  0.00  0.00     0.002 A 
ATOM    117  H41 DVA d          50.074  48.498  86.735  0.00  0.00     0.166 HD
ATOM    118  H39 DVA d          47.900  49.945  86.488  0.00  0.00     0.114 H 
ENDBRANCH 108 111
ENDBRANCH  59 108
ENDBRANCH  57  59
ENDBRANCH   1  55
BRANCH   1 119
ATOM    119  CB  DVA d          44.312  51.704  84.930  0.00  0.00    -0.030 C 
ATOM    120  H29 DVA d          44.160  50.743  85.445  0.00  0.00     0.037 H 
ATOM    121  H30 DVA d          45.153  51.614  84.226  0.00  0.00     0.037 H 
BRANCH 119 122
ATOM    122  CG  DVA d          43.029  52.065  84.143  0.00  0.00     0.011 C 
ATOM    123  H31 DVA d          42.335  52.573  84.829  0.00  0.00     0.047 H 
ATOM    124  H32 DVA d          42.570  51.132  83.783  0.00  0.00     0.047 H 
BRANCH 122 125
ATOM    125  CD  DVA d          43.268  52.984  82.932  0.00  0.00     0.215 C 
ATOM    126  OE1 DVA d          44.335  52.933  82.293  0.00  0.00    -0.274 OA
ATOM    127  NE2 DVA d          42.289  53.805  82.613  0.00  0.00    -0.370 N 
ATOM    128  H33 DVA d          42.391  54.425  81.835  0.00  0.00     0.159 HD
ATOM    129  H34 DVA d          41.446  53.809  83.149  0.00  0.00     0.159 HD
ENDBRANCH 122 125
ENDBRANCH 119 122
ENDBRANCH   1 119
TORSDOF 34
ENDMDL
MODEL 6
REMARK VINA RESULT:      -3.0      2.839      5.604
REMARK WARNING: 32 MAX_TORS EXCEEDED!!!
REMARK  34 active torsions:
REMARK  status: ('A' for Active; 'I' for Inactive)
REMARK    1  A    between atoms: N_1  and  CA_2 
REMARK    2  A    between atoms: CA_2  and  CB_3 
REMARK    3  A    between atoms: CA_2  and  C_6 
REMARK    4  A    between atoms: CB_3  and  CG1_4 
REMARK    5  A    between atoms: CB_3  and  CG2_5 
REMARK       I    between atoms: C_6  and  N_8 
REMARK    6  A    between atoms: CA_9  and  C_13 
REMARK       I    between atoms: C_13  and  N_15 
REMARK    7  A    between atoms: N_15  and  CA_16 
REMARK    8  A    between atoms: CA_16  and  C_17 
REMARK       I    between atoms: C_17  and  N_19 
REMARK    9  A    between atoms: N_19  and  CA_20 
REMARK   10  A    between atoms: CA_20  and  C_21 
REMARK   11  A    between atoms: CA_20  and  CB_23 
REMARK       I    between atoms: C_21  and  N_25 
REMARK   12  A    between atoms: CB_23  and  OG_24 
REMARK   13  A    between atoms: N_25  and  CA_26 
REMARK   14  A    between atoms: CA_26  and  C_27 
REMARK   15  A    between atoms: CA_26  and  CB_29 
REMARK       I    between atoms: C_27  and  N_34 
REMARK   16  A    between atoms: CB_29  and  CG_30 
REMARK   17  A    between atoms: CG_30  and  CD_31 
REMARK       I    between atoms: CD_31  and  NE2_33 
REMARK   18  A    between atoms: N_34  and  CA_35 
REMARK   19  A    between atoms: CA_35  and  C_36 
REMARK   20  A    between atoms: CA_35  and  CB_38 
REMARK       I    between atoms: C_36  and  N_44 
REMARK   21  A    between atoms: CB_38  and  CG_39 
REMARK   22  A    between atoms: N_44  and  CA_45 
REMARK   23  A    between atoms: CA_45  and  C_46 
REMARK   24  A    between atoms: CA_45  and  CB_48 
REMARK       I    between atoms: C_46  and  N_56 
REMARK   25  A    between atoms: CB_48  and  CG_49 
REMARK   26  A    between atoms: CZ_54  and  OH_55 
REMARK   27  A    between atoms: N_56  and  CA_57 
REMARK   28  A    between atoms: CA_57  and  C_58 
REMARK   29  A    between atoms: CA_57  and  CB_60 
REMARK       I    between atoms: C_58  and  N_64 
REMARK   30  A    between atoms: CB_60  and  CG_61 
REMARK   31  A    between atoms: N_64  and  CA_65 
REMARK   32  A    between atoms: CA_65  and  C_66 
REMARK   33  A    between atoms: CA_65  and  CB_69 
REMARK   34  A    between atoms: CB_69  and  OG_70 
ROOT
ATOM      1  CA  DVA d          41.909  55.938  90.619  0.00  0.00     0.090 C 
ATOM      2  H28 DVA d          42.822  56.467  90.304  0.00  0.00     0.087 H 
ENDROOT
BRANCH   1   3
ATOM      3  N   DVA d          41.842  55.941  92.071  0.00  0.00    -0.346 N 
ATOM      4  C   DVA d          42.962  55.871  92.767  0.00  0.00     0.243 C 
ATOM      5  O   DVA d          44.060  55.818  92.236  0.00  0.00    -0.271 OA
ATOM      6  H27 DVA d          40.959  55.996  92.536  0.00  0.00     0.163 HD
BRANCH   4   7
ATOM      7  CA  DVA d          42.836  55.831  94.278  0.00  0.00     0.109 C 
ATOM      8  H23 DVA d          43.418  54.999  94.700  0.00  0.00     0.090 H 
BRANCH   7   9
ATOM      9  N   DVA d          41.434  55.676  94.597  0.00  0.00    -0.344 N 
ATOM     10  C   DVA d          40.996  54.690  95.363  0.00  0.00     0.236 C 
ATOM     11  O   DVA d          41.738  53.842  95.861  0.00  0.00    -0.272 OA
ATOM     12  H22 DVA d          40.777  56.333  94.228  0.00  0.00     0.163 HD
BRANCH  10  13
ATOM     13  CA  DVA d          39.510  54.650  95.609  0.00  0.00     0.069 C 
ATOM     14  H20 DVA d          39.273  55.142  96.564  0.00  0.00     0.078 H 
ATOM     15  H21 DVA d          38.980  55.161  94.793  0.00  0.00     0.078 H 
BRANCH  13  16
ATOM     16  N   DVA d          39.121  53.262  95.658  0.00  0.00    -0.351 N 
ATOM     17  C   DVA d          38.423  52.782  96.678  0.00  0.00     0.241 C 
ATOM     18  O   DVA d          38.050  53.473  97.631  0.00  0.00    -0.271 OA
ATOM     19  H19 DVA d          39.383  52.651  94.911  0.00  0.00     0.163 HD
BRANCH  17  20
ATOM     20  CA  DVA d          38.091  51.294  96.590  0.00  0.00     0.091 C 
ATOM     21  N   DVA d          39.176  50.564  95.917  0.00  0.00    -0.337 N 
ATOM     22  C   DVA d          40.409  50.140  96.297  0.00  0.00     0.251 C 
ATOM     23  CD  DVA d          38.778  50.241  94.533  0.00  0.00    -0.001 C 
ATOM     24  O   DVA d          41.163  49.563  95.503  0.00  0.00    -0.271 OA
ATOM     25  CG  DVA d          37.531  51.083  94.338  0.00  0.00    -0.048 C 
ATOM     26  H17 DVA d          38.554  49.170  94.424  0.00  0.00     0.064 H 
ATOM     27  H18 DVA d          39.564  50.526  93.818  0.00  0.00     0.064 H 
ATOM     28  CB  DVA d          36.896  51.036  95.683  0.00  0.00    -0.036 C 
ATOM     29  H15 DVA d          37.787  52.114  94.055  0.00  0.00     0.035 H 
ATOM     30  H16 DVA d          36.873  50.646  93.572  0.00  0.00     0.035 H 
ATOM     31  H13 DVA d          36.131  51.819  95.793  0.00  0.00     0.036 H 
ATOM     32  H14 DVA d          36.446  50.052  95.881  0.00  0.00     0.036 H 
ATOM     33  H12 DVA d          37.910  50.898  97.601  0.00  0.00     0.087 H 
BRANCH  22  34
ATOM     34  CA  DVA d          40.903  50.420  97.736  0.00  0.00     0.178 C 
ATOM     35  H4  DVA d          40.028  50.364  98.400  0.00  0.00     0.099 H 
BRANCH  34  36
ATOM     36  N   DVA d          41.452  51.804  97.802  0.00  0.00    -0.066 N 
ATOM     37  H1  DVA d          42.138  51.858  98.539  0.00  0.00     0.275 HD
ATOM     38  H2  DVA d          40.704  52.453  97.991  0.00  0.00     0.275 HD
ATOM     39  H3  DVA d          41.885  52.036  96.922  0.00  0.00     0.275 HD
ENDBRANCH  34  36
BRANCH  34  40
ATOM     40  CB  DVA d          41.943  49.414  98.268  0.00  0.00    -0.025 C 
ATOM     41  H5  DVA d          42.407  48.889  97.419  0.00  0.00     0.042 H 
BRANCH  40  42
ATOM     42  CG1 DVA d          43.026  50.139  99.051  0.00  0.00    -0.071 C 
ATOM     43  H6  DVA d          44.011  49.900  98.623  0.00  0.00     0.028 H 
ATOM     44  H7  DVA d          42.996  49.817 100.103  0.00  0.00     0.028 H 
ATOM     45  H8  DVA d          42.856  51.224  98.995  0.00  0.00     0.028 H 
ENDBRANCH  40  42
BRANCH  40  46
ATOM     46  CG2 DVA d          41.234  48.397  99.165  0.00  0.00    -0.071 C 
ATOM     47  H9  DVA d          41.678  48.424 100.172  0.00  0.00     0.028 H 
ATOM     48  H10 DVA d          41.350  47.389  98.740  0.00  0.00     0.028 H 
ATOM     49  H11 DVA d          40.165  48.647  99.229  0.00  0.00     0.028 H 
ENDBRANCH  40  46
ENDBRANCH  34  40
ENDBRANCH  22  34
ENDBRANCH  17  20
ENDBRANCH  13  16
ENDBRANCH  10  13
ENDBRANCH   7   9
BRANCH   7  50
ATOM     50  CB  DVA d          43.349  57.166  94.808  0.00  0.00     0.044 C 
ATOM     51  H24 DVA d          44.426  57.250  94.599  0.00  0.00     0.077 H 
ATOM     52  H25 DVA d          43.182  57.215  95.894  0.00  0.00     0.077 H 
BRANCH  50  53
ATOM     53  OG  DVA d          42.664  58.236  94.179  0.00  0.00    -0.398 OA
ATOM     54  H26 DVA d          41.827  58.370  94.607  0.00  0.00     0.209 HD
ENDBRANCH  50  53
ENDBRANCH   7  50
ENDBRANCH   4   7
ENDBRANCH   1   3
BRANCH   1  55
ATOM     55  C   DVA d          41.967  54.508  90.088  0.00  0.00     0.241 C 
ATOM     56  O   DVA d          41.009  53.743  90.238  0.00  0.00    -0.271 OA
ATOM     57  N   DVA d          43.092  54.150  89.467  0.00  0.00    -0.346 N 
ATOM     58  H35 DVA d          43.822  54.825  89.352  0.00  0.00     0.163 HD
BRANCH  57  59
ATOM     59  CA  DVA d          43.290  52.781  88.945  0.00  0.00     0.094 C 
ATOM     60  H36 DVA d          42.305  52.389  88.650  0.00  0.00     0.088 H 
BRANCH  59  61
ATOM     61  C   DVA d          44.224  52.704  87.773  0.00  0.00     0.241 C 
ATOM     62  O   DVA d          44.398  51.627  87.185  0.00  0.00    -0.271 OA
ATOM     63  N   DVA d          44.849  53.834  87.458  0.00  0.00    -0.346 N 
ATOM     64  H42 DVA d          44.606  54.683  87.926  0.00  0.00     0.163 HD
BRANCH  63  65
ATOM     65  CA  DVA d          45.891  53.843  86.432  0.00  0.00     0.093 C 
ATOM     66  H43 DVA d          46.570  53.005  86.644  0.00  0.00     0.088 H 
BRANCH  65  67
ATOM     67  C   DVA d          45.407  53.673  84.998  0.00  0.00     0.241 C 
ATOM     68  O   DVA d          44.766  54.576  84.452  0.00  0.00    -0.271 OA
ATOM     69  N   DVA d          45.703  52.517  84.407  0.00  0.00    -0.345 N 
ATOM     70  H51 DVA d          46.212  51.827  84.920  0.00  0.00     0.163 HD
BRANCH  69  71
ATOM     71  CA  DVA d          45.306  52.224  83.023  0.00  0.00     0.098 C 
ATOM     72  H52 DVA d          44.291  52.624  82.876  0.00  0.00     0.088 H 
BRANCH  71  73
ATOM     73  C   DVA d          46.220  52.841  81.966  0.00  0.00     0.241 C 
ATOM     74  O   DVA d          45.804  53.116  80.832  0.00  0.00    -0.271 OA
ATOM     75  N   DVA d          47.465  53.060  82.393  0.00  0.00    -0.343 N 
ATOM     76  H55 DVA d          47.676  52.779  83.329  0.00  0.00     0.163 HD
BRANCH  75  77
ATOM     77  CA  DVA d          48.551  53.674  81.627  0.00  0.00     0.116 C 
ATOM     78  H56 DVA d          48.224  53.692  80.577  0.00  0.00     0.093 H 
BRANCH  77  79
ATOM     79  C   DVA d          48.847  55.113  82.025  0.00  0.00     0.198 C 
ATOM     80  O   DVA d          47.948  55.967  81.885  0.00  0.00    -0.646 OA
ATOM     81  OXT DVA d          49.989  55.358  82.479  0.00  0.00    -0.646 OA
ENDBRANCH  77  79
BRANCH  77  82
ATOM     82  CB  DVA d          49.832  52.833  81.694  0.00  0.00     0.045 C 
ATOM     83  H57 DVA d          50.019  52.544  82.739  0.00  0.00     0.077 H 
ATOM     84  H58 DVA d          50.676  53.432  81.322  0.00  0.00     0.077 H 
BRANCH  82  85
ATOM     85  OG  DVA d          49.712  51.657  80.902  0.00  0.00    -0.398 OA
ATOM     86  H59 DVA d          49.713  51.895  79.982  0.00  0.00     0.209 HD
ENDBRANCH  82  85
ENDBRANCH  77  82
ENDBRANCH  75  77
ENDBRANCH  71  73
BRANCH  71  87
ATOM     87  CB  DVA d          45.284  50.713  82.781  0.00  0.00     0.043 C 
ATOM     88  H53 DVA d          46.321  50.352  82.712  0.00  0.00     0.052 H 
ATOM     89  H54 DVA d          44.763  50.516  81.832  0.00  0.00     0.052 H 
BRANCH  87  90
ATOM     90  CG  DVA d          44.582  49.960  83.880  0.00  0.00     0.175 C 
ATOM     91  OD1 DVA d          43.334  50.008  83.934  0.00  0.00    -0.648 OA
ATOM     92  OD2 DVA d          45.272  49.306  84.680  0.00  0.00    -0.648 OA
ENDBRANCH  87  90
ENDBRANCH  71  87
ENDBRANCH  69  71
ENDBRANCH  65  67
BRANCH  65  93
ATOM     93  CB  DVA d          46.676  55.152  86.566  0.00  0.00    -0.014 C 
ATOM     94  H44 DVA d          46.631  55.689  85.606  0.00  0.00     0.043 H 
ATOM     95  H45 DVA d          47.723  54.912  86.803  0.00  0.00     0.043 H 
BRANCH  93  96
ATOM     96  CG  DVA d          46.127  56.060  87.656  0.00  0.00    -0.056 A 
ATOM     97  CD1 DVA d          45.027  56.888  87.412  0.00  0.00    -0.074 A 
ATOM     98  CE1 DVA d          44.524  57.759  88.394  0.00  0.00    -0.051 A 
ATOM     99  H46 DVA d          44.549  56.858  86.440  0.00  0.00     0.084 H 
ATOM    100  CZ  DVA d          45.146  57.787  89.657  0.00  0.00     0.065 A 
ATOM    101  H48 DVA d          43.673  58.397  88.183  0.00  0.00     0.087 H 
ATOM    102  CE2 DVA d          46.239  56.973  89.917  0.00  0.00    -0.051 A 
ATOM    103  CD2 DVA d          46.730  56.111  88.920  0.00  0.00    -0.074 A 
ATOM    104  H49 DVA d          46.715  57.001  90.891  0.00  0.00     0.087 H 
ATOM    105  H47 DVA d          47.586  55.480  89.132  0.00  0.00     0.084 H 
BRANCH 100 106
ATOM    106  OH  DVA d          44.673  58.608  90.656  0.00  0.00    -0.361 OA
ATOM    107  H50 DVA d          44.304  58.077  91.352  0.00  0.00     0.217 HD
ENDBRANCH 100 106
ENDBRANCH  93  96
ENDBRANCH  65  93
ENDBRANCH  63  65
ENDBRANCH  59  61
BRANCH  59 108
ATOM    108  CB  DVA d          43.920  51.856  89.988  0.00  0.00     0.004 C 
ATOM    109  H37 DVA d          43.848  50.822  89.620  0.00  0.00     0.046 H 
ATOM    110  H38 DVA d          43.349  51.952  90.924  0.00  0.00     0.046 H 
BRANCH 108 111
ATOM    111  CG  DVA d          45.359  52.148  90.287  0.00  0.00     0.053 A 
ATOM    112  ND1 DVA d          45.782  53.333  90.856  0.00  0.00    -0.247 NA
ATOM    113  CE1 DVA d          47.096  53.294  91.025  0.00  0.00     0.064 A 
ATOM    114  NE2 DVA d          47.539  52.124  90.580  0.00  0.00    -0.359 N 
ATOM    115  H40 DVA d          47.708  54.085  91.456  0.00  0.00     0.143 H 
ATOM    116  CD2 DVA d          46.470  51.393  90.112  0.00  0.00     0.002 A 
ATOM    117  H41 DVA d          48.521  51.814  90.584  0.00  0.00     0.166 HD
ATOM    118  H39 DVA d          46.510  50.393  89.682  0.00  0.00     0.114 H 
ENDBRANCH 108 111
ENDBRANCH  59 108
ENDBRANCH  57  59
ENDBRANCH   1  55
BRANCH   1 119
ATOM    119  CB  DVA d          40.690  56.671  90.046  0.00  0.00    -0.030 C 
ATOM    120  H29 DVA d          40.022  56.956  90.872  0.00  0.00     0.037 H 
ATOM    121  H30 DVA d          40.157  55.999  89.357  0.00  0.00     0.037 H 
BRANCH 119 122
ATOM    122  CG  DVA d          41.117  57.946  89.278  0.00  0.00     0.011 C 
ATOM    123  H31 DVA d          42.200  57.890  89.092  0.00  0.00     0.047 H 
ATOM    124  H32 DVA d          40.899  58.820  89.911  0.00  0.00     0.047 H 
BRANCH 122 125
ATOM    125  CD  DVA d          40.405  58.139  87.928  0.00  0.00     0.215 C 
ATOM    126  OE1 DVA d          39.323  58.751  87.857  0.00  0.00    -0.274 OA
ATOM    127  NE2 DVA d          41.003  57.634  86.869  0.00  0.00    -0.370 N 
ATOM    128  H33 DVA d          40.585  57.729  85.965  0.00  0.00     0.159 HD
ATOM    129  H34 DVA d          41.875  57.155  86.968  0.00  0.00     0.159 HD
ENDBRANCH 122 125
ENDBRANCH 119 122
ENDBRANCH   1 119
TORSDOF 34
ENDMDL
MODEL 7
REMARK VINA RESULT:      -2.6      2.533      5.696
REMARK WARNING: 32 MAX_TORS EXCEEDED!!!
REMARK  34 active torsions:
REMARK  status: ('A' for Active; 'I' for Inactive)
REMARK    1  A    between atoms: N_1  and  CA_2 
REMARK    2  A    between atoms: CA_2  and  CB_3 
REMARK    3  A    between atoms: CA_2  and  C_6 
REMARK    4  A    between atoms: CB_3  and  CG1_4 
REMARK    5  A    between atoms: CB_3  and  CG2_5 
REMARK       I    between atoms: C_6  and  N_8 
REMARK    6  A    between atoms: CA_9  and  C_13 
REMARK       I    between atoms: C_13  and  N_15 
REMARK    7  A    between atoms: N_15  and  CA_16 
REMARK    8  A    between atoms: CA_16  and  C_17 
REMARK       I    between atoms: C_17  and  N_19 
REMARK    9  A    between atoms: N_19  and  CA_20 
REMARK   10  A    between atoms: CA_20  and  C_21 
REMARK   11  A    between atoms: CA_20  and  CB_23 
REMARK       I    between atoms: C_21  and  N_25 
REMARK   12  A    between atoms: CB_23  and  OG_24 
REMARK   13  A    between atoms: N_25  and  CA_26 
REMARK   14  A    between atoms: CA_26  and  C_27 
REMARK   15  A    between atoms: CA_26  and  CB_29 
REMARK       I    between atoms: C_27  and  N_34 
REMARK   16  A    between atoms: CB_29  and  CG_30 
REMARK   17  A    between atoms: CG_30  and  CD_31 
REMARK       I    between atoms: CD_31  and  NE2_33 
REMARK   18  A    between atoms: N_34  and  CA_35 
REMARK   19  A    between atoms: CA_35  and  C_36 
REMARK   20  A    between atoms: CA_35  and  CB_38 
REMARK       I    between atoms: C_36  and  N_44 
REMARK   21  A    between atoms: CB_38  and  CG_39 
REMARK   22  A    between atoms: N_44  and  CA_45 
REMARK   23  A    between atoms: CA_45  and  C_46 
REMARK   24  A    between atoms: CA_45  and  CB_48 
REMARK       I    between atoms: C_46  and  N_56 
REMARK   25  A    between atoms: CB_48  and  CG_49 
REMARK   26  A    between atoms: CZ_54  and  OH_55 
REMARK   27  A    between atoms: N_56  and  CA_57 
REMARK   28  A    between atoms: CA_57  and  C_58 
REMARK   29  A    between atoms: CA_57  and  CB_60 
REMARK       I    between atoms: C_58  and  N_64 
REMARK   30  A    between atoms: CB_60  and  CG_61 
REMARK   31  A    between atoms: N_64  and  CA_65 
REMARK   32  A    between atoms: CA_65  and  C_66 
REMARK   33  A    between atoms: CA_65  and  CB_69 
REMARK   34  A    between atoms: CB_69  and  OG_70 
ROOT
ATOM      1  CA  DVA d          44.542  53.159  91.479  0.00  0.00     0.090 C 
ATOM      2  H28 DVA d          43.631  52.609  91.762  0.00  0.00     0.087 H 
ENDROOT
BRANCH   1   3
ATOM      3  N   DVA d          44.881  54.084  92.548  0.00  0.00    -0.346 N 
ATOM      4  C   DVA d          46.037  54.722  92.504  0.00  0.00     0.243 C 
ATOM      5  O   DVA d          46.830  54.576  91.588  0.00  0.00    -0.271 OA
ATOM      6  H27 DVA d          44.247  54.235  93.307  0.00  0.00     0.163 HD
BRANCH   4   7
ATOM      7  CA  DVA d          46.364  55.641  93.666  0.00  0.00     0.109 C 
ATOM      8  H23 DVA d          47.384  55.461  94.035  0.00  0.00     0.090 H 
BRANCH   7   9
ATOM      9  N   DVA d          45.398  55.387  94.711  0.00  0.00    -0.344 N 
ATOM     10  C   DVA d          45.668  55.624  95.985  0.00  0.00     0.236 C 
ATOM     11  O   DVA d          46.745  56.078  96.373  0.00  0.00    -0.272 OA
ATOM     12  H22 DVA d          44.501  55.020  94.465  0.00  0.00     0.163 HD
BRANCH  10  13
ATOM     13  CA  DVA d          44.569  55.309  96.966  0.00  0.00     0.069 C 
ATOM     14  H20 DVA d          44.775  54.352  97.468  0.00  0.00     0.078 H 
ATOM     15  H21 DVA d          44.496  56.108  97.718  0.00  0.00     0.078 H 
BRANCH  13  16
ATOM     16  N   DVA d          43.339  55.221  96.219  0.00  0.00    -0.351 N 
ATOM     17  C   DVA d          42.351  56.082  96.420  0.00  0.00     0.241 C 
ATOM     18  O   DVA d          42.415  57.010  97.232  0.00  0.00    -0.271 OA
ATOM     19  H19 DVA d          43.229  54.497  95.537  0.00  0.00     0.163 HD
BRANCH  17  20
ATOM     20  CA  DVA d          41.112  55.857  95.557  0.00  0.00     0.091 C 
ATOM     21  N   DVA d          40.349  57.106  95.418  0.00  0.00    -0.337 N 
ATOM     22  C   DVA d          40.507  58.235  94.679  0.00  0.00     0.251 C 
ATOM     23  CD  DVA d          39.157  57.063  96.288  0.00  0.00    -0.001 C 
ATOM     24  O   DVA d          39.719  59.183  94.779  0.00  0.00    -0.271 OA
ATOM     25  CG  DVA d          39.427  55.856  97.166  0.00  0.00    -0.048 C 
ATOM     26  H17 DVA d          38.240  56.926  95.698  0.00  0.00     0.064 H 
ATOM     27  H18 DVA d          39.074  57.980  96.890  0.00  0.00     0.064 H 
ATOM     28  CB  DVA d          40.116  54.925  96.232  0.00  0.00    -0.036 C 
ATOM     29  H15 DVA d          40.074  56.118  98.016  0.00  0.00     0.035 H 
ATOM     30  H16 DVA d          38.489  55.420  97.541  0.00  0.00     0.035 H 
ATOM     31  H13 DVA d          40.627  54.116  96.775  0.00  0.00     0.036 H 
ATOM     32  H14 DVA d          39.413  54.492  95.504  0.00  0.00     0.036 H 
ATOM     33  H12 DVA d          41.416  55.464  94.575  0.00  0.00     0.087 H 
BRANCH  22  34
ATOM     34  CA  DVA d          41.720  58.361  93.727  0.00  0.00     0.178 C 
ATOM     35  H4  DVA d          42.062  57.341  93.495  0.00  0.00     0.099 H 
BRANCH  34  36
ATOM     36  N   DVA d          42.821  59.074  94.431  0.00  0.00    -0.066 N 
ATOM     37  H1  DVA d          42.606  59.137  95.414  0.00  0.00     0.275 HD
ATOM     38  H2  DVA d          42.919  60.002  94.049  0.00  0.00     0.275 HD
ATOM     39  H3  DVA d          43.683  58.567  94.308  0.00  0.00     0.275 HD
ENDBRANCH  34  36
BRANCH  34  40
ATOM     40  CB  DVA d          41.415  59.055  92.384  0.00  0.00    -0.025 C 
ATOM     41  H5  DVA d          41.005  60.057  92.579  0.00  0.00     0.042 H 
BRANCH  40  42
ATOM     42  CG1 DVA d          42.686  59.192  91.561  0.00  0.00    -0.071 C 
ATOM     43  H6  DVA d          43.480  59.631  92.182  0.00  0.00     0.028 H 
ATOM     44  H7  DVA d          42.494  59.844  90.696  0.00  0.00     0.028 H 
ATOM     45  H8  DVA d          43.003  58.199  91.208  0.00  0.00     0.028 H 
ENDBRANCH  40  42
BRANCH  40  46
ATOM     46  CG2 DVA d          40.379  58.225  91.622  0.00  0.00    -0.071 C 
ATOM     47  H9  DVA d          40.432  58.468  90.550  0.00  0.00     0.028 H 
ATOM     48  H10 DVA d          39.373  58.455  92.002  0.00  0.00     0.028 H 
ATOM     49  H11 DVA d          40.589  57.155  91.765  0.00  0.00     0.028 H 
ENDBRANCH  40  46
ENDBRANCH  34  40
ENDBRANCH  22  34
ENDBRANCH  17  20
ENDBRANCH  13  16
ENDBRANCH  10  13
ENDBRANCH   7   9
BRANCH   7  50
ATOM     50  CB  DVA d          46.224  57.073  93.160  0.00  0.00     0.044 C 
ATOM     51  H24 DVA d          47.222  57.524  93.063  0.00  0.00     0.077 H 
ATOM     52  H25 DVA d          45.626  57.655  93.877  0.00  0.00     0.077 H 
BRANCH  50  53
ATOM     53  OG  DVA d          45.581  57.082  91.896  0.00  0.00    -0.398 OA
ATOM     54  H26 DVA d          46.237  57.092  91.209  0.00  0.00     0.209 HD
ENDBRANCH  50  53
ENDBRANCH   7  50
ENDBRANCH   4   7
ENDBRANCH   1   3
BRANCH   1  55
ATOM     55  C   DVA d          44.272  53.915  90.181  0.00  0.00     0.241 C 
ATOM     56  O   DVA d          44.026  55.125  90.198  0.00  0.00    -0.271 OA
ATOM     57  N   DVA d          44.318  53.198  89.056  0.00  0.00    -0.346 N 
ATOM     58  H35 DVA d          44.552  52.226  89.107  0.00  0.00     0.163 HD
BRANCH  57  59
ATOM     59  CA  DVA d          44.034  53.803  87.737  0.00  0.00     0.094 C 
ATOM     60  H36 DVA d          44.261  54.877  87.805  0.00  0.00     0.088 H 
BRANCH  59  61
ATOM     61  C   DVA d          44.821  53.202  86.609  0.00  0.00     0.241 C 
ATOM     62  O   DVA d          45.059  53.869  85.592  0.00  0.00    -0.271 OA
ATOM     63  N   DVA d          45.190  51.936  86.773  0.00  0.00    -0.346 N 
ATOM     64  H42 DVA d          45.029  51.481  87.649  0.00  0.00     0.163 HD
BRANCH  63  65
ATOM     65  CA  DVA d          45.829  51.203  85.681  0.00  0.00     0.093 C 
ATOM     66  H43 DVA d          45.701  50.130  85.884  0.00  0.00     0.088 H 
BRANCH  65  67
ATOM     67  C   DVA d          45.264  51.464  84.290  0.00  0.00     0.241 C 
ATOM     68  O   DVA d          44.176  50.980  83.966  0.00  0.00    -0.271 OA
ATOM     69  N   DVA d          46.010  52.213  83.479  0.00  0.00    -0.345 N 
ATOM     70  H51 DVA d          46.889  52.557  83.809  0.00  0.00     0.163 HD
BRANCH  69  71
ATOM     71  CA  DVA d          45.581  52.551  82.115  0.00  0.00     0.098 C 
ATOM     72  H52 DVA d          44.527  52.252  82.014  0.00  0.00     0.088 H 
BRANCH  71  73
ATOM     73  C   DVA d          45.692  54.036  81.775  0.00  0.00     0.241 C 
ATOM     74  O   DVA d          45.234  54.493  80.719  0.00  0.00    -0.271 OA
ATOM     75  N   DVA d          46.297  54.761  82.718  0.00  0.00    -0.343 N 
ATOM     76  H55 DVA d          46.635  54.266  83.518  0.00  0.00     0.163 HD
BRANCH  75  77
ATOM     77  CA  DVA d          46.514  56.208  82.696  0.00  0.00     0.116 C 
ATOM     78  H56 DVA d          45.562  56.665  82.386  0.00  0.00     0.093 H 
BRANCH  77  79
ATOM     79  C   DVA d          46.866  56.798  84.054  0.00  0.00     0.198 C 
ATOM     80  O   DVA d          48.043  57.159  84.260  0.00  0.00    -0.646 OA
ATOM     81  OXT DVA d          45.942  56.892  84.894  0.00  0.00    -0.646 OA
ENDBRANCH  77  79
BRANCH  77  82
ATOM     82  CB  DVA d          47.572  56.603  81.658  0.00  0.00     0.045 C 
ATOM     83  H57 DVA d          48.236  55.745  81.476  0.00  0.00     0.077 H 
ATOM     84  H58 DVA d          48.160  57.447  82.047  0.00  0.00     0.077 H 
BRANCH  82  85
ATOM     85  OG  DVA d          46.964  56.988  80.431  0.00  0.00    -0.398 OA
ATOM     86  H59 DVA d          47.627  57.333  79.844  0.00  0.00     0.209 HD
ENDBRANCH  82  85
ENDBRANCH  77  82
ENDBRANCH  75  77
ENDBRANCH  71  73
BRANCH  71  87
ATOM     87  CB  DVA d          46.416  51.784  81.087  0.00  0.00     0.043 C 
ATOM     88  H53 DVA d          46.174  52.165  80.083  0.00  0.00     0.052 H 
ATOM     89  H54 DVA d          46.155  50.717  81.147  0.00  0.00     0.052 H 
BRANCH  87  90
ATOM     90  CG  DVA d          47.897  51.931  81.316  0.00  0.00     0.175 C 
ATOM     91  OD1 DVA d          48.287  52.707  82.216  0.00  0.00    -0.648 OA
ATOM     92  OD2 DVA d          48.671  51.263  80.612  0.00  0.00    -0.648 OA
ENDBRANCH  87  90
ENDBRANCH  71  87
ENDBRANCH  69  71
ENDBRANCH  65  67
BRANCH  65  93
ATOM     93  CB  DVA d          47.326  51.528  85.705  0.00  0.00    -0.014 C 
ATOM     94  H44 DVA d          47.448  52.621  85.749  0.00  0.00     0.043 H 
ATOM     95  H45 DVA d          47.784  51.145  84.781  0.00  0.00     0.043 H 
BRANCH  93  96
ATOM     96  CG  DVA d          48.044  50.911  86.896  0.00  0.00    -0.056 A 
ATOM     97  CD1 DVA d          48.719  49.692  86.772  0.00  0.00    -0.074 A 
ATOM     98  CE1 DVA d          49.360  49.087  87.867  0.00  0.00    -0.051 A 
ATOM     99  H46 DVA d          48.750  49.202  85.806  0.00  0.00     0.084 H 
ATOM    100  CZ  DVA d          49.321  49.734  89.117  0.00  0.00     0.065 A 
ATOM    101  H48 DVA d          49.874  48.139  87.751  0.00  0.00     0.087 H 
ATOM    102  CE2 DVA d          48.655  50.943  89.259  0.00  0.00    -0.051 A 
ATOM    103  CD2 DVA d          48.016  51.531  88.152  0.00  0.00    -0.074 A 
ATOM    104  H49 DVA d          48.627  51.435  90.225  0.00  0.00     0.087 H 
ATOM    105  H47 DVA d          47.497  52.475  88.273  0.00  0.00     0.084 H 
BRANCH 100 106
ATOM    106  OH  DVA d          49.955  49.189  90.211  0.00  0.00    -0.361 OA
ATOM    107  H50 DVA d          49.954  49.818  90.922  0.00  0.00     0.217 HD
ENDBRANCH 100 106
ENDBRANCH  93  96
ENDBRANCH  65  93
ENDBRANCH  63  65
ENDBRANCH  59  61
BRANCH  59 108
ATOM    108  CB  DVA d          42.574  53.611  87.322  0.00  0.00     0.004 C 
ATOM    109  H37 DVA d          42.269  52.592  87.601  0.00  0.00     0.046 H 
ATOM    110  H38 DVA d          42.508  53.727  86.230  0.00  0.00     0.046 H 
BRANCH 108 111
ATOM    111  CG  DVA d          41.618  54.576  87.954  0.00  0.00     0.053 A 
ATOM    112  ND1 DVA d          41.684  55.940  87.749  0.00  0.00    -0.247 NA
ATOM    113  CE1 DVA d          40.699  56.530  88.410  0.00  0.00     0.064 A 
ATOM    114  NE2 DVA d          39.998  55.594  89.040  0.00  0.00    -0.359 N 
ATOM    115  H40 DVA d          40.497  57.601  88.433  0.00  0.00     0.143 H 
ATOM    116  CD2 DVA d          40.558  54.365  88.770  0.00  0.00     0.002 A 
ATOM    117  H41 DVA d          39.173  55.760  89.633  0.00  0.00     0.166 HD
ATOM    118  H39 DVA d          40.212  53.402  89.143  0.00  0.00     0.114 H 
ENDBRANCH 108 111
ENDBRANCH  59 108
ENDBRANCH  57  59
ENDBRANCH   1  55
BRANCH   1 119
ATOM    119  CB  DVA d          45.686  52.156  91.285  0.00  0.00    -0.030 C 
ATOM    120  H29 DVA d          46.594  52.700  90.988  0.00  0.00     0.037 H 
ATOM    121  H30 DVA d          45.409  51.444  90.493  0.00  0.00     0.037 H 
BRANCH 119 122
ATOM    122  CG  DVA d          45.969  51.374  92.592  0.00  0.00     0.011 C 
ATOM    123  H31 DVA d          45.017  50.966  92.962  0.00  0.00     0.047 H 
ATOM    124  H32 DVA d          46.379  52.077  93.333  0.00  0.00     0.047 H 
BRANCH 122 125
ATOM    125  CD  DVA d          46.963  50.211  92.429  0.00  0.00     0.215 C 
ATOM    126  OE1 DVA d          46.769  49.319  91.583  0.00  0.00    -0.274 OA
ATOM    127  NE2 DVA d          48.017  50.222  93.219  0.00  0.00    -0.370 N 
ATOM    128  H33 DVA d          48.696  49.491  93.157  0.00  0.00     0.159 HD
ATOM    129  H34 DVA d          48.138  50.962  93.880  0.00  0.00     0.159 HD
ENDBRANCH 122 125
ENDBRANCH 119 122
ENDBRANCH   1 119
TORSDOF 34
ENDMDL
MODEL 8
REMARK VINA RESULT:      -2.1      3.232      5.998
REMARK WARNING: 32 MAX_TORS EXCEEDED!!!
REMARK  34 active torsions:
REMARK  status: ('A' for Active; 'I' for Inactive)
REMARK    1  A    between atoms: N_1  and  CA_2 
REMARK    2  A    between atoms: CA_2  and  CB_3 
REMARK    3  A    between atoms: CA_2  and  C_6 
REMARK    4  A    between atoms: CB_3  and  CG1_4 
REMARK    5  A    between atoms: CB_3  and  CG2_5 
REMARK       I    between atoms: C_6  and  N_8 
REMARK    6  A    between atoms: CA_9  and  C_13 
REMARK       I    between atoms: C_13  and  N_15 
REMARK    7  A    between atoms: N_15  and  CA_16 
REMARK    8  A    between atoms: CA_16  and  C_17 
REMARK       I    between atoms: C_17  and  N_19 
REMARK    9  A    between atoms: N_19  and  CA_20 
REMARK   10  A    between atoms: CA_20  and  C_21 
REMARK   11  A    between atoms: CA_20  and  CB_23 
REMARK       I    between atoms: C_21  and  N_25 
REMARK   12  A    between atoms: CB_23  and  OG_24 
REMARK   13  A    between atoms: N_25  and  CA_26 
REMARK   14  A    between atoms: CA_26  and  C_27 
REMARK   15  A    between atoms: CA_26  and  CB_29 
REMARK       I    between atoms: C_27  and  N_34 
REMARK   16  A    between atoms: CB_29  and  CG_30 
REMARK   17  A    between atoms: CG_30  and  CD_31 
REMARK       I    between atoms: CD_31  and  NE2_33 
REMARK   18  A    between atoms: N_34  and  CA_35 
REMARK   19  A    between atoms: CA_35  and  C_36 
REMARK   20  A    between atoms: CA_35  and  CB_38 
REMARK       I    between atoms: C_36  and  N_44 
REMARK   21  A    between atoms: CB_38  and  CG_39 
REMARK   22  A    between atoms: N_44  and  CA_45 
REMARK   23  A    between atoms: CA_45  and  C_46 
REMARK   24  A    between atoms: CA_45  and  CB_48 
REMARK       I    between atoms: C_46  and  N_56 
REMARK   25  A    between atoms: CB_48  and  CG_49 
REMARK   26  A    between atoms: CZ_54  and  OH_55 
REMARK   27  A    between atoms: N_56  and  CA_57 
REMARK   28  A    between atoms: CA_57  and  C_58 
REMARK   29  A    between atoms: CA_57  and  CB_60 
REMARK       I    between atoms: C_58  and  N_64 
REMARK   30  A    between atoms: CB_60  and  CG_61 
REMARK   31  A    between atoms: N_64  and  CA_65 
REMARK   32  A    between atoms: CA_65  and  C_66 
REMARK   33  A    between atoms: CA_65  and  CB_69 
REMARK   34  A    between atoms: CB_69  and  OG_70 
ROOT
ATOM      1  CA  DVA d          45.523  53.972  94.387  0.00  0.00     0.090 C 
ATOM      2  H28 DVA d          44.925  53.801  95.295  0.00  0.00     0.087 H 
ENDROOT
BRANCH   1   3
ATOM      3  N   DVA d          44.968  55.107  93.668  0.00  0.00    -0.346 N 
ATOM      4  C   DVA d          44.008  55.819  94.230  0.00  0.00     0.243 C 
ATOM      5  O   DVA d          43.576  55.570  95.345  0.00  0.00    -0.271 OA
ATOM      6  H27 DVA d          45.309  55.345  92.758  0.00  0.00     0.163 HD
BRANCH   4   7
ATOM      7  CA  DVA d          43.431  56.964  93.420  0.00  0.00     0.109 C 
ATOM      8  H23 DVA d          43.980  57.898  93.612  0.00  0.00     0.090 H 
BRANCH   7   9
ATOM      9  N   DVA d          42.043  57.111  93.796  0.00  0.00    -0.344 N 
ATOM     10  C   DVA d          41.129  56.214  93.462  0.00  0.00     0.236 C 
ATOM     11  O   DVA d          41.387  55.196  92.819  0.00  0.00    -0.272 OA
ATOM     12  H22 DVA d          41.765  57.915  94.323  0.00  0.00     0.163 HD
BRANCH  10  13
ATOM     13  CA  DVA d          39.722  56.498  93.918  0.00  0.00     0.069 C 
ATOM     14  H20 DVA d          39.717  57.347  94.618  0.00  0.00     0.078 H 
ATOM     15  H21 DVA d          39.086  56.734  93.052  0.00  0.00     0.078 H 
BRANCH  13  16
ATOM     16  N   DVA d          39.237  55.311  94.578  0.00  0.00    -0.351 N 
ATOM     17  C   DVA d          38.659  55.377  95.769  0.00  0.00     0.241 C 
ATOM     18  O   DVA d          38.483  56.435  96.380  0.00  0.00    -0.271 OA
ATOM     19  H19 DVA d          39.339  54.423  94.129  0.00  0.00     0.163 HD
BRANCH  17  20
ATOM     20  CA  DVA d          38.202  54.037  96.341  0.00  0.00     0.091 C 
ATOM     21  N   DVA d          38.500  52.948  95.398  0.00  0.00    -0.337 N 
ATOM     22  C   DVA d          39.629  52.276  95.052  0.00  0.00     0.251 C 
ATOM     23  CD  DVA d          37.262  52.529  94.711  0.00  0.00    -0.001 C 
ATOM     24  O   DVA d          39.614  51.403  94.177  0.00  0.00    -0.271 OA
ATOM     25  CG  DVA d          36.285  53.630  95.079  0.00  0.00    -0.048 C 
ATOM     26  H17 DVA d          36.915  51.553  95.081  0.00  0.00     0.064 H 
ATOM     27  H18 DVA d          37.410  52.478  93.622  0.00  0.00     0.064 H 
ATOM     28  CB  DVA d          36.687  53.966  96.472  0.00  0.00    -0.036 C 
ATOM     29  H15 DVA d          36.396  54.499  94.413  0.00  0.00     0.035 H 
ATOM     30  H16 DVA d          35.247  53.269  95.042  0.00  0.00     0.035 H 
ATOM     31  H13 DVA d          36.267  54.932  96.790  0.00  0.00     0.036 H 
ATOM     32  H14 DVA d          36.381  53.181  97.180  0.00  0.00     0.036 H 
ATOM     33  H12 DVA d          38.690  53.867  97.312  0.00  0.00     0.087 H 
BRANCH  22  34
ATOM     34  CA  DVA d          40.970  52.638  95.733  0.00  0.00     0.178 C 
ATOM     35  H4  DVA d          40.812  53.569  96.296  0.00  0.00     0.099 H 
BRANCH  34  36
ATOM     36  N   DVA d          41.996  52.895  94.683  0.00  0.00    -0.066 N 
ATOM     37  H1  DVA d          41.650  53.588  94.038  0.00  0.00     0.275 HD
ATOM     38  H2  DVA d          42.188  52.039  94.185  0.00  0.00     0.275 HD
ATOM     39  H3  DVA d          42.842  53.230  95.115  0.00  0.00     0.275 HD
ENDBRANCH  34  36
BRANCH  34  40
ATOM     40  CB  DVA d          41.490  51.585  96.732  0.00  0.00    -0.025 C 
ATOM     41  H5  DVA d          40.638  51.021  97.140  0.00  0.00     0.042 H 
BRANCH  40  42
ATOM     42  CG1 DVA d          42.436  50.619  96.036  0.00  0.00    -0.071 C 
ATOM     43  H6  DVA d          43.017  50.068  96.790  0.00  0.00     0.028 H 
ATOM     44  H7  DVA d          43.121  51.181  95.384  0.00  0.00     0.028 H 
ATOM     45  H8  DVA d          41.853  49.908  95.430  0.00  0.00     0.028 H 
ENDBRANCH  40  42
BRANCH  40  46
ATOM     46  CG2 DVA d          42.215  52.302  97.874  0.00  0.00    -0.071 C 
ATOM     47  H9  DVA d          42.707  53.207  97.486  0.00  0.00     0.028 H 
ATOM     48  H10 DVA d          42.971  51.630  98.307  0.00  0.00     0.028 H 
ATOM     49  H11 DVA d          41.489  52.584  98.649  0.00  0.00     0.028 H 
ENDBRANCH  40  46
ENDBRANCH  34  40
ENDBRANCH  22  34
ENDBRANCH  17  20
ENDBRANCH  13  16
ENDBRANCH  10  13
ENDBRANCH   7   9
BRANCH   7  50
ATOM     50  CB  DVA d          43.538  56.574  91.950  0.00  0.00     0.044 C 
ATOM     51  H24 DVA d          42.705  57.026  91.391  0.00  0.00     0.077 H 
ATOM     52  H25 DVA d          43.488  55.479  91.859  0.00  0.00     0.077 H 
BRANCH  50  53
ATOM     53  OG  DVA d          44.767  57.034  91.412  0.00  0.00    -0.398 OA
ATOM     54  H26 DVA d          44.593  57.658  90.717  0.00  0.00     0.209 HD
ENDBRANCH  50  53
ENDBRANCH   7  50
ENDBRANCH   4   7
ENDBRANCH   1   3
BRANCH   1  55
ATOM     55  C   DVA d          45.473  52.714  93.525  0.00  0.00     0.241 C 
ATOM     56  O   DVA d          44.719  51.781  93.819  0.00  0.00    -0.271 OA
ATOM     57  N   DVA d          46.278  52.692  92.461  0.00  0.00    -0.346 N 
ATOM     58  H35 DVA d          46.844  53.492  92.261  0.00  0.00     0.163 HD
BRANCH  57  59
ATOM     59  CA  DVA d          46.354  51.514  91.570  0.00  0.00     0.094 C 
ATOM     60  H36 DVA d          45.517  50.847  91.822  0.00  0.00     0.088 H 
BRANCH  59  61
ATOM     61  C   DVA d          46.295  51.851  90.108  0.00  0.00     0.241 C 
ATOM     62  O   DVA d          47.143  52.604  89.609  0.00  0.00    -0.271 OA
ATOM     63  N   DVA d          45.277  51.325  89.435  0.00  0.00    -0.346 N 
ATOM     64  H42 DVA d          44.673  50.667  89.883  0.00  0.00     0.163 HD
BRANCH  63  65
ATOM     65  CA  DVA d          45.034  51.704  88.044  0.00  0.00     0.093 C 
ATOM     66  H43 DVA d          44.055  51.293  87.756  0.00  0.00     0.088 H 
BRANCH  65  67
ATOM     67  C   DVA d          44.990  53.201  87.764  0.00  0.00     0.241 C 
ATOM     68  O   DVA d          43.958  53.839  87.990  0.00  0.00    -0.271 OA
ATOM     69  N   DVA d          46.099  53.742  87.265  0.00  0.00    -0.345 N 
ATOM     70  H51 DVA d          46.891  53.156  87.094  0.00  0.00     0.163 HD
BRANCH  69  71
ATOM     71  CA  DVA d          46.197  55.176  86.957  0.00  0.00     0.098 C 
ATOM     72  H52 DVA d          47.254  55.466  87.056  0.00  0.00     0.088 H 
BRANCH  71  73
ATOM     73  C   DVA d          45.729  55.547  85.551  0.00  0.00     0.241 C 
ATOM     74  O   DVA d          44.547  55.832  85.318  0.00  0.00    -0.271 OA
ATOM     75  N   DVA d          46.706  55.549  84.642  0.00  0.00    -0.343 N 
ATOM     76  H55 DVA d          47.617  55.285  84.959  0.00  0.00     0.163 HD
BRANCH  75  77
ATOM     77  CA  DVA d          46.575  55.899  83.226  0.00  0.00     0.116 C 
ATOM     78  H56 DVA d          45.559  56.299  83.094  0.00  0.00     0.093 H 
BRANCH  77  79
ATOM     79  C   DVA d          47.541  56.983  82.770  0.00  0.00     0.198 C 
ATOM     80  O   DVA d          48.677  57.025  83.285  0.00  0.00    -0.646 OA
ATOM     81  OXT DVA d          47.136  57.776  81.888  0.00  0.00    -0.646 OA
ENDBRANCH  77  79
BRANCH  77  82
ATOM     82  CB  DVA d          46.703  54.664  82.326  0.00  0.00     0.045 C 
ATOM     83  H57 DVA d          45.737  54.477  81.834  0.00  0.00     0.077 H 
ATOM     84  H58 DVA d          46.975  53.795  82.944  0.00  0.00     0.077 H 
BRANCH  82  85
ATOM     85  OG  DVA d          47.701  54.858  81.332  0.00  0.00    -0.398 OA
ATOM     86  H59 DVA d          47.529  55.668  80.865  0.00  0.00     0.209 HD
ENDBRANCH  82  85
ENDBRANCH  77  82
ENDBRANCH  75  77
ENDBRANCH  71  73
BRANCH  71  87
ATOM     87  CB  DVA d          45.364  55.994  87.946  0.00  0.00     0.043 C 
ATOM     88  H53 DVA d          45.422  55.516  88.935  0.00  0.00     0.052 H 
ATOM     89  H54 DVA d          44.318  56.001  87.603  0.00  0.00     0.052 H 
BRANCH  87  90
ATOM     90  CG  DVA d          45.840  57.417  88.068  0.00  0.00     0.175 C 
ATOM     91  OD1 DVA d          47.052  57.623  88.297  0.00  0.00    -0.648 OA
ATOM     92  OD2 DVA d          45.012  58.331  87.919  0.00  0.00    -0.648 OA
ENDBRANCH  87  90
ENDBRANCH  71  87
ENDBRANCH  69  71
ENDBRANCH  65  67
BRANCH  65  93
ATOM     93  CB  DVA d          46.112  51.043  87.178  0.00  0.00    -0.014 C 
ATOM     94  H44 DVA d          46.638  50.291  87.785  0.00  0.00     0.043 H 
ATOM     95  H45 DVA d          46.825  51.816  86.853  0.00  0.00     0.043 H 
BRANCH  93  96
ATOM     96  CG  DVA d          45.541  50.359  85.946  0.00  0.00    -0.056 A 
ATOM     97  CD1 DVA d          45.848  50.823  84.662  0.00  0.00    -0.074 A 
ATOM     98  CE1 DVA d          45.305  50.228  83.511  0.00  0.00    -0.051 A 
ATOM     99  H46 DVA d          46.524  51.663  84.552  0.00  0.00     0.084 H 
ATOM    100  CZ  DVA d          44.433  49.132  83.662  0.00  0.00     0.065 A 
ATOM    101  H48 DVA d          45.552  50.606  82.525  0.00  0.00     0.087 H 
ATOM    102  CE2 DVA d          44.116  48.659  84.927  0.00  0.00    -0.051 A 
ATOM    103  CD2 DVA d          44.667  49.270  86.067  0.00  0.00    -0.074 A 
ATOM    104  H49 DVA d          43.443  47.816  85.037  0.00  0.00     0.087 H 
ATOM    105  H47 DVA d          44.413  48.895  87.052  0.00  0.00     0.084 H 
BRANCH 100 106
ATOM    106  OH  DVA d          43.896  48.504  82.561  0.00  0.00    -0.361 OA
ATOM    107  H50 DVA d          43.279  49.087  82.135  0.00  0.00     0.217 HD
ENDBRANCH 100 106
ENDBRANCH  93  96
ENDBRANCH  65  93
ENDBRANCH  63  65
ENDBRANCH  59  61
BRANCH  59 108
ATOM    108  CB  DVA d          47.677  50.762  91.728  0.00  0.00     0.004 C 
ATOM    109  H37 DVA d          48.113  50.618  90.728  0.00  0.00     0.046 H 
ATOM    110  H38 DVA d          47.464  49.782  92.179  0.00  0.00     0.046 H 
BRANCH 108 111
ATOM    111  CG  DVA d          48.689  51.461  92.584  0.00  0.00     0.053 A 
ATOM    112  ND1 DVA d          49.318  52.630  92.200  0.00  0.00    -0.247 NA
ATOM    113  CE1 DVA d          50.134  53.025  93.166  0.00  0.00     0.064 A 
ATOM    114  NE2 DVA d          50.059  52.150  94.162  0.00  0.00    -0.359 N 
ATOM    115  H40 DVA d          50.760  53.917  93.147  0.00  0.00     0.143 H 
ATOM    116  CD2 DVA d          49.162  51.163  93.818  0.00  0.00     0.002 A 
ATOM    117  H41 DVA d          50.584  52.201  95.046  0.00  0.00     0.166 HD
ATOM    118  H39 DVA d          48.885  50.302  94.424  0.00  0.00     0.114 H 
ENDBRANCH 108 111
ENDBRANCH  59 108
ENDBRANCH  57  59
ENDBRANCH   1  55
BRANCH   1 119
ATOM    119  CB  DVA d          46.968  54.281  94.798  0.00  0.00    -0.030 C 
ATOM    120  H29 DVA d          47.608  53.426  94.533  0.00  0.00     0.037 H 
ATOM    121  H30 DVA d          47.006  54.445  95.886  0.00  0.00     0.037 H 
BRANCH 119 122
ATOM    122  CG  DVA d          47.493  55.548  94.078  0.00  0.00     0.011 C 
ATOM    123  H31 DVA d          46.676  55.962  93.469  0.00  0.00     0.047 H 
ATOM    124  H32 DVA d          48.325  55.252  93.422  0.00  0.00     0.047 H 
BRANCH 122 125
ATOM    125  CD  DVA d          47.995  56.651  95.026  0.00  0.00     0.215 C 
ATOM    126  OE1 DVA d          49.213  56.843  95.194  0.00  0.00    -0.274 OA
ATOM    127  NE2 DVA d          47.073  57.372  95.630  0.00  0.00    -0.370 N 
ATOM    128  H33 DVA d          47.343  58.103  96.257  0.00  0.00     0.159 HD
ATOM    129  H34 DVA d          46.105  57.190  95.461  0.00  0.00     0.159 HD
ENDBRANCH 122 125
ENDBRANCH 119 122
ENDBRANCH   1 119
TORSDOF 34
ENDMDL
MODEL 9
REMARK VINA RESULT:      -2.0      2.709      6.232
REMARK WARNING: 32 MAX_TORS EXCEEDED!!!
REMARK  34 active torsions:
REMARK  status: ('A' for Active; 'I' for Inactive)
REMARK    1  A    between atoms: N_1  and  CA_2 
REMARK    2  A    between atoms: CA_2  and  CB_3 
REMARK    3  A    between atoms: CA_2  and  C_6 
REMARK    4  A    between atoms: CB_3  and  CG1_4 
REMARK    5  A    between atoms: CB_3  and  CG2_5 
REMARK       I    between atoms: C_6  and  N_8 
REMARK    6  A    between atoms: CA_9  and  C_13 
REMARK       I    between atoms: C_13  and  N_15 
REMARK    7  A    between atoms: N_15  and  CA_16 
REMARK    8  A    between atoms: CA_16  and  C_17 
REMARK       I    between atoms: C_17  and  N_19 
REMARK    9  A    between atoms: N_19  and  CA_20 
REMARK   10  A    between atoms: CA_20  and  C_21 
REMARK   11  A    between atoms: CA_20  and  CB_23 
REMARK       I    between atoms: C_21  and  N_25 
REMARK   12  A    between atoms: CB_23  and  OG_24 
REMARK   13  A    between atoms: N_25  and  CA_26 
REMARK   14  A    between atoms: CA_26  and  C_27 
REMARK   15  A    between atoms: CA_26  and  CB_29 
REMARK       I    between atoms: C_27  and  N_34 
REMARK   16  A    between atoms: CB_29  and  CG_30 
REMARK   17  A    between atoms: CG_30  and  CD_31 
REMARK       I    between atoms: CD_31  and  NE2_33 
REMARK   18  A    between atoms: N_34  and  CA_35 
REMARK   19  A    between atoms: CA_35  and  C_36 
REMARK   20  A    between atoms: CA_35  and  CB_38 
REMARK       I    between atoms: C_36  and  N_44 
REMARK   21  A    between atoms: CB_38  and  CG_39 
REMARK   22  A    between atoms: N_44  and  CA_45 
REMARK   23  A    between atoms: CA_45  and  C_46 
REMARK   24  A    between atoms: CA_45  and  CB_48 
REMARK       I    between atoms: C_46  and  N_56 
REMARK   25  A    between atoms: CB_48  and  CG_49 
REMARK   26  A    between atoms: CZ_54  and  OH_55 
REMARK   27  A    between atoms: N_56  and  CA_57 
REMARK   28  A    between atoms: CA_57  and  C_58 
REMARK   29  A    between atoms: CA_57  and  CB_60 
REMARK       I    between atoms: C_58  and  N_64 
REMARK   30  A    between atoms: CB_60  and  CG_61 
REMARK   31  A    between atoms: N_64  and  CA_65 
REMARK   32  A    between atoms: CA_65  and  C_66 
REMARK   33  A    between atoms: CA_65  and  CB_69 
REMARK   34  A    between atoms: CB_69  and  OG_70 
ROOT
ATOM      1  CA  DVA d          47.607  56.681  90.363  0.00  0.00     0.090 C 
ATOM      2  H28 DVA d          48.529  57.253  90.182  0.00  0.00     0.087 H 
ENDROOT
BRANCH   1   3
ATOM      3  N   DVA d          47.392  56.580  91.797  0.00  0.00    -0.346 N 
ATOM      4  C   DVA d          48.394  56.834  92.618  0.00  0.00     0.243 C 
ATOM      5  O   DVA d          49.498  57.167  92.219  0.00  0.00    -0.271 OA
ATOM      6  H27 DVA d          46.495  56.320  92.157  0.00  0.00     0.163 HD
BRANCH   4   7
ATOM      7  CA  DVA d          48.131  56.669  94.103  0.00  0.00     0.109 C 
ATOM      8  H23 DVA d          48.963  57.073  94.698  0.00  0.00     0.090 H 
BRANCH   7   9
ATOM      9  N   DVA d          47.964  55.258  94.365  0.00  0.00    -0.344 N 
ATOM     10  C   DVA d          48.077  54.754  95.584  0.00  0.00     0.236 C 
ATOM     11  O   DVA d          48.325  55.440  96.577  0.00  0.00    -0.272 OA
ATOM     12  H22 DVA d          47.759  54.643  93.603  0.00  0.00     0.163 HD
BRANCH  10  13
ATOM     13  CA  DVA d          47.882  53.266  95.709  0.00  0.00     0.069 C 
ATOM     14  H20 DVA d          48.230  52.762  94.794  0.00  0.00     0.078 H 
ATOM     15  H21 DVA d          48.444  52.883  96.573  0.00  0.00     0.078 H 
BRANCH  13  16
ATOM     16  N   DVA d          46.471  53.032  95.895  0.00  0.00    -0.351 N 
ATOM     17  C   DVA d          45.685  52.734  94.869  0.00  0.00     0.241 C 
ATOM     18  O   DVA d          46.095  52.621  93.710  0.00  0.00    -0.271 OA
ATOM     19  H19 DVA d          46.078  53.097  96.812  0.00  0.00     0.163 HD
BRANCH  17  20
ATOM     20  CA  DVA d          44.215  52.519  95.223  0.00  0.00     0.091 C 
ATOM     21  N   DVA d          43.962  52.901  96.621  0.00  0.00    -0.337 N 
ATOM     22  C   DVA d          43.818  54.086  97.268  0.00  0.00     0.251 C 
ATOM     23  CD  DVA d          43.840  51.689  97.455  0.00  0.00    -0.001 C 
ATOM     24  O   DVA d          43.645  54.133  98.492  0.00  0.00    -0.271 OA
ATOM     25  CG  DVA d          44.335  50.593  96.530  0.00  0.00    -0.048 C 
ATOM     26  H17 DVA d          42.795  51.515  97.751  0.00  0.00     0.064 H 
ATOM     27  H18 DVA d          44.469  51.762  98.355  0.00  0.00     0.064 H 
ATOM     28  CB  DVA d          43.839  51.045  95.201  0.00  0.00    -0.036 C 
ATOM     29  H15 DVA d          45.433  50.527  96.543  0.00  0.00     0.035 H 
ATOM     30  H16 DVA d          43.906  49.618  96.803  0.00  0.00     0.035 H 
ATOM     31  H13 DVA d          44.345  50.513  94.381  0.00  0.00     0.036 H 
ATOM     32  H14 DVA d          42.751  50.909  95.110  0.00  0.00     0.036 H 
ATOM     33  H12 DVA d          43.584  53.098  94.532  0.00  0.00     0.087 H 
BRANCH  22  34
ATOM     34  CA  DVA d          43.915  55.408  96.470  0.00  0.00     0.178 C 
ATOM     35  H4  DVA d          44.598  55.233  95.626  0.00  0.00     0.099 H 
BRANCH  34  36
ATOM     36  N   DVA d          44.510  56.460  97.341  0.00  0.00    -0.066 N 
ATOM     37  H1  DVA d          44.790  56.051  98.218  0.00  0.00     0.275 HD
ATOM     38  H2  DVA d          43.827  57.183  97.509  0.00  0.00     0.275 HD
ATOM     39  H3  DVA d          45.315  56.859  96.884  0.00  0.00     0.275 HD
ENDBRANCH  34  36
BRANCH  34  40
ATOM     40  CB  DVA d          42.580  55.904  95.880  0.00  0.00    -0.025 C 
ATOM     41  H5  DVA d          42.278  56.829  96.394  0.00  0.00     0.042 H 
BRANCH  40  42
ATOM     42  CG1 DVA d          42.733  56.191  94.395  0.00  0.00    -0.071 C 
ATOM     43  H6  DVA d          42.114  55.488  93.820  0.00  0.00     0.028 H 
ATOM     44  H7  DVA d          43.788  56.072  94.105  0.00  0.00     0.028 H 
ATOM     45  H8  DVA d          42.409  57.222  94.185  0.00  0.00     0.028 H 
ENDBRANCH  40  42
BRANCH  40  46
ATOM     46  CG2 DVA d          41.511  54.830  96.102  0.00  0.00    -0.071 C 
ATOM     47  H9  DVA d          40.879  54.751  95.206  0.00  0.00     0.028 H 
ATOM     48  H10 DVA d          40.890  55.105  96.967  0.00  0.00     0.028 H 
ATOM     49  H11 DVA d          41.998  53.863  96.294  0.00  0.00     0.028 H 
ENDBRANCH  40  46
ENDBRANCH  34  40
ENDBRANCH  22  34
ENDBRANCH  17  20
ENDBRANCH  13  16
ENDBRANCH  10  13
ENDBRANCH   7   9
BRANCH   7  50
ATOM     50  CB  DVA d          46.839  57.416  94.417  0.00  0.00     0.044 C 
ATOM     51  H24 DVA d          46.041  56.690  94.631  0.00  0.00     0.077 H 
ATOM     52  H25 DVA d          46.553  58.029  93.549  0.00  0.00     0.077 H 
BRANCH  50  53
ATOM     53  OG  DVA d          47.023  58.256  95.544  0.00  0.00    -0.398 OA
ATOM     54  H26 DVA d          46.871  57.757  96.338  0.00  0.00     0.209 HD
ENDBRANCH  50  53
ENDBRANCH   7  50
ENDBRANCH   4   7
ENDBRANCH   1   3
BRANCH   1  55
ATOM     55  C   DVA d          47.765  55.294  89.745  0.00  0.00     0.241 C 
ATOM     56  O   DVA d          48.513  55.119  88.778  0.00  0.00    -0.271 OA
ATOM     57  N   DVA d          47.058  54.311  90.305  0.00  0.00    -0.346 N 
ATOM     58  H35 DVA d          46.492  54.512  91.105  0.00  0.00     0.163 HD
BRANCH  57  59
ATOM     59  CA  DVA d          47.090  52.931  89.774  0.00  0.00     0.094 C 
ATOM     60  H36 DVA d          47.472  52.274  90.569  0.00  0.00     0.088 H 
BRANCH  59  61
ATOM     61  C   DVA d          45.755  52.424  89.312  0.00  0.00     0.241 C 
ATOM     62  O   DVA d          45.490  51.216  89.384  0.00  0.00    -0.271 OA
ATOM     63  N   DVA d          44.933  53.339  88.809  0.00  0.00    -0.346 N 
ATOM     64  H42 DVA d          45.181  54.306  88.851  0.00  0.00     0.163 HD
BRANCH  63  65
ATOM     65  CA  DVA d          43.668  52.940  88.194  0.00  0.00     0.093 C 
ATOM     66  H43 DVA d          43.015  53.825  88.179  0.00  0.00     0.088 H 
BRANCH  65  67
ATOM     67  C   DVA d          43.762  52.431  86.761  0.00  0.00     0.241 C 
ATOM     68  O   DVA d          42.795  52.544  86.002  0.00  0.00    -0.271 OA
ATOM     69  N   DVA d          44.915  51.866  86.408  0.00  0.00    -0.345 N 
ATOM     70  H51 DVA d          45.647  51.796  87.085  0.00  0.00     0.163 HD
BRANCH  69  71
ATOM     71  CA  DVA d          45.145  51.341  85.055  0.00  0.00     0.098 C 
ATOM     72  H52 DVA d          44.286  51.636  84.433  0.00  0.00     0.088 H 
BRANCH  71  73
ATOM     73  C   DVA d          46.418  51.862  84.390  0.00  0.00     0.241 C 
ATOM     74  O   DVA d          47.524  51.359  84.628  0.00  0.00    -0.271 OA
ATOM     75  N   DVA d          46.208  52.870  83.541  0.00  0.00    -0.343 N 
ATOM     76  H55 DVA d          45.266  53.194  83.451  0.00  0.00     0.163 HD
BRANCH  75  77
ATOM     77  CA  DVA d          47.220  53.548  82.730  0.00  0.00     0.116 C 
ATOM     78  H56 DVA d          48.199  53.220  83.108  0.00  0.00     0.093 H 
BRANCH  77  79
ATOM     79  C   DVA d          47.170  53.182  81.253  0.00  0.00     0.198 C 
ATOM     80  O   DVA d          46.948  51.994  80.941  0.00  0.00    -0.646 OA
ATOM     81  OXT DVA d          47.351  54.107  80.427  0.00  0.00    -0.646 OA
ENDBRANCH  77  79
BRANCH  77  82
ATOM     82  CB  DVA d          47.150  55.071  82.899  0.00  0.00     0.045 C 
ATOM     83  H57 DVA d          46.772  55.520  81.968  0.00  0.00     0.077 H 
ATOM     84  H58 DVA d          48.158  55.456  83.110  0.00  0.00     0.077 H 
BRANCH  82  85
ATOM     85  OG  DVA d          46.284  55.426  83.970  0.00  0.00    -0.398 OA
ATOM     86  H59 DVA d          45.386  55.437  83.660  0.00  0.00     0.209 HD
ENDBRANCH  82  85
ENDBRANCH  77  82
ENDBRANCH  75  77
ENDBRANCH  71  73
BRANCH  71  87
ATOM     87  CB  DVA d          45.238  49.814  85.082  0.00  0.00     0.043 C 
ATOM     88  H53 DVA d          44.942  49.461  86.081  0.00  0.00     0.052 H 
ATOM     89  H54 DVA d          46.279  49.521  84.882  0.00  0.00     0.052 H 
BRANCH  87  90
ATOM     90  CG  DVA d          44.348  49.161  84.057  0.00  0.00     0.175 C 
ATOM     91  OD1 DVA d          43.110  49.296  84.168  0.00  0.00    -0.648 OA
ATOM     92  OD2 DVA d          44.882  48.527  83.131  0.00  0.00    -0.648 OA
ENDBRANCH  87  90
ENDBRANCH  71  87
ENDBRANCH  69  71
ENDBRANCH  65  67
BRANCH  65  93
ATOM     93  CB  DVA d          43.024  51.873  89.085  0.00  0.00    -0.014 C 
ATOM     94  H44 DVA d          43.821  51.300  89.581  0.00  0.00     0.043 H 
ATOM     95  H45 DVA d          42.427  51.200  88.452  0.00  0.00     0.043 H 
BRANCH  93  96
ATOM     96  CG  DVA d          42.117  52.467  90.152  0.00  0.00    -0.056 A 
ATOM     97  CD1 DVA d          40.862  52.987  89.818  0.00  0.00    -0.074 A 
ATOM     98  CE1 DVA d          40.023  53.571  90.782  0.00  0.00    -0.051 A 
ATOM     99  H46 DVA d          40.528  52.938  88.788  0.00  0.00     0.084 H 
ATOM    100  CZ  DVA d          40.461  53.624  92.119  0.00  0.00     0.065 A 
ATOM    101  H48 DVA d          39.055  53.973  90.501  0.00  0.00     0.087 H 
ATOM    102  CE2 DVA d          41.703  53.114  92.469  0.00  0.00    -0.051 A 
ATOM    103  CD2 DVA d          42.531  52.537  91.489  0.00  0.00    -0.074 A 
ATOM    104  H49 DVA d          42.036  53.160  93.500  0.00  0.00     0.087 H 
ATOM    105  H47 DVA d          43.500  52.142  91.772  0.00  0.00     0.084 H 
BRANCH 100 106
ATOM    106  OH  DVA d          39.662  54.166  93.100  0.00  0.00    -0.361 OA
ATOM    107  H50 DVA d          39.596  55.105  92.970  0.00  0.00     0.217 HD
ENDBRANCH 100 106
ENDBRANCH  93  96
ENDBRANCH  65  93
ENDBRANCH  63  65
ENDBRANCH  59  61
BRANCH  59 108
ATOM    108  CB  DVA d          47.984  52.815  88.538  0.00  0.00     0.004 C 
ATOM    109  H37 DVA d          48.693  53.656  88.545  0.00  0.00     0.046 H 
ATOM    110  H38 DVA d          47.346  52.881  87.644  0.00  0.00     0.046 H 
BRANCH 108 111
ATOM    111  CG  DVA d          48.771  51.541  88.459  0.00  0.00     0.053 A 
ATOM    112  ND1 DVA d          48.517  50.560  87.520  0.00  0.00    -0.247 NA
ATOM    113  CE1 DVA d          49.385  49.571  87.677  0.00  0.00     0.064 A 
ATOM    114  NE2 DVA d          50.189  49.876  88.688  0.00  0.00    -0.359 N 
ATOM    115  H40 DVA d          49.431  48.662  87.077  0.00  0.00     0.143 H 
ATOM    116  CD2 DVA d          49.821  51.104  89.193  0.00  0.00     0.002 A 
ATOM    117  H41 DVA d          50.961  49.291  89.038  0.00  0.00     0.166 HD
ATOM    118  H39 DVA d          50.288  51.625  90.027  0.00  0.00     0.114 H 
ENDBRANCH 108 111
ENDBRANCH  59 108
ENDBRANCH  57  59
ENDBRANCH   1  55
BRANCH   1 119
ATOM    119  CB  DVA d          46.430  57.422  89.718  0.00  0.00    -0.030 C 
ATOM    120  H29 DVA d          46.056  56.832  88.868  0.00  0.00     0.037 H 
ATOM    121  H30 DVA d          46.775  58.404  89.359  0.00  0.00     0.037 H 
BRANCH 119 122
ATOM    122  CG  DVA d          45.279  57.631  90.733  0.00  0.00     0.011 C 
ATOM    123  H31 DVA d          45.137  58.712  90.876  0.00  0.00     0.047 H 
ATOM    124  H32 DVA d          45.574  57.171  91.688  0.00  0.00     0.047 H 
BRANCH 122 125
ATOM    125  CD  DVA d          43.935  57.021  90.298  0.00  0.00     0.215 C 
ATOM    126  OE1 DVA d          43.871  55.855  89.868  0.00  0.00    -0.274 OA
ATOM    127  NE2 DVA d          42.873  57.792  90.416  0.00  0.00    -0.370 N 
ATOM    128  H33 DVA d          41.973  57.448  90.148  0.00  0.00     0.159 HD
ATOM    129  H34 DVA d          42.967  58.721  90.773  0.00  0.00     0.159 HD
ENDBRANCH 122 125
ENDBRANCH 119 122
ENDBRANCH   1 119
TORSDOF 34
ENDMDL
MODEL 10
REMARK VINA RESULT:      -2.0      2.872      5.898
REMARK WARNING: 32 MAX_TORS EXCEEDED!!!
REMARK  34 active torsions:
REMARK  status: ('A' for Active; 'I' for Inactive)
REMARK    1  A    between atoms: N_1  and  CA_2 
REMARK    2  A    between atoms: CA_2  and  CB_3 
REMARK    3  A    between atoms: CA_2  and  C_6 
REMARK    4  A    between atoms: CB_3  and  CG1_4 
REMARK    5  A    between atoms: CB_3  and  CG2_5 
REMARK       I    between atoms: C_6  and  N_8 
REMARK    6  A    between atoms: CA_9  and  C_13 
REMARK       I    between atoms: C_13  and  N_15 
REMARK    7  A    between atoms: N_15  and  CA_16 
REMARK    8  A    between atoms: CA_16  and  C_17 
REMARK       I    between atoms: C_17  and  N_19 
REMARK    9  A    between atoms: N_19  and  CA_20 
REMARK   10  A    between atoms: CA_20  and  C_21 
REMARK   11  A    between atoms: CA_20  and  CB_23 
REMARK       I    between atoms: C_21  and  N_25 
REMARK   12  A    between atoms: CB_23  and  OG_24 
REMARK   13  A    between atoms: N_25  and  CA_26 
REMARK   14  A    between atoms: CA_26  and  C_27 
REMARK   15  A    between atoms: CA_26  and  CB_29 
REMARK       I    between atoms: C_27  and  N_34 
REMARK   16  A    between atoms: CB_29  and  CG_30 
REMARK   17  A    between atoms: CG_30  and  CD_31 
REMARK       I    between atoms: CD_31  and  NE2_33 
REMARK   18  A    between atoms: N_34  and  CA_35 
REMARK   19  A    between atoms: CA_35  and  C_36 
REMARK   20  A    between atoms: CA_35  and  CB_38 
REMARK       I    between atoms: C_36  and  N_44 
REMARK   21  A    between atoms: CB_38  and  CG_39 
REMARK   22  A    between atoms: N_44  and  CA_45 
REMARK   23  A    between atoms: CA_45  and  C_46 
REMARK   24  A    between atoms: CA_45  and  CB_48 
REMARK       I    between atoms: C_46  and  N_56 
REMARK   25  A    between atoms: CB_48  and  CG_49 
REMARK   26  A    between atoms: CZ_54  and  OH_55 
REMARK   27  A    between atoms: N_56  and  CA_57 
REMARK   28  A    between atoms: CA_57  and  C_58 
REMARK   29  A    between atoms: CA_57  and  CB_60 
REMARK       I    between atoms: C_58  and  N_64 
REMARK   30  A    between atoms: CB_60  and  CG_61 
REMARK   31  A    between atoms: N_64  and  CA_65 
REMARK   32  A    between atoms: CA_65  and  C_66 
REMARK   33  A    between atoms: CA_65  and  CB_69 
REMARK   34  A    between atoms: CB_69  and  OG_70 
ROOT
ATOM      1  CA  DVA d          45.209  53.312  91.277  0.00  0.00     0.090 C 
ATOM      2  H28 DVA d          44.558  52.605  91.813  0.00  0.00     0.087 H 
ENDROOT
BRANCH   1   3
ATOM      3  N   DVA d          45.493  54.440  92.149  0.00  0.00    -0.346 N 
ATOM      4  C   DVA d          46.295  55.398  91.722  0.00  0.00     0.243 C 
ATOM      5  O   DVA d          46.798  55.383  90.609  0.00  0.00    -0.271 OA
ATOM      6  H27 DVA d          45.087  54.488  93.062  0.00  0.00     0.163 HD
BRANCH   4   7
ATOM      7  CA  DVA d          46.596  56.530  92.686  0.00  0.00     0.109 C 
ATOM      8  H23 DVA d          47.646  56.847  92.605  0.00  0.00     0.090 H 
BRANCH   7   9
ATOM      9  N   DVA d          46.318  56.053  94.022  0.00  0.00    -0.344 N 
ATOM     10  C   DVA d          47.284  55.705  94.857  0.00  0.00     0.236 C 
ATOM     11  O   DVA d          48.480  55.765  94.567  0.00  0.00    -0.272 OA
ATOM     12  H22 DVA d          45.367  55.983  94.324  0.00  0.00     0.163 HD
BRANCH  10  13
ATOM     13  CA  DVA d          46.847  55.224  96.216  0.00  0.00     0.069 C 
ATOM     14  H20 DVA d          47.711  55.179  96.895  0.00  0.00     0.078 H 
ATOM     15  H21 DVA d          46.090  55.904  96.630  0.00  0.00     0.078 H 
BRANCH  13  16
ATOM     16  N   DVA d          46.286  53.906  96.043  0.00  0.00    -0.351 N 
ATOM     17  C   DVA d          44.989  53.687  96.208  0.00  0.00     0.241 C 
ATOM     18  O   DVA d          44.182  54.576  96.498  0.00  0.00    -0.271 OA
ATOM     19  H19 DVA d          46.886  53.145  95.796  0.00  0.00     0.163 HD
BRANCH  17  20
ATOM     20  CA  DVA d          44.546  52.241  95.995  0.00  0.00     0.091 C 
ATOM     21  N   DVA d          43.109  52.098  96.276  0.00  0.00    -0.337 N 
ATOM     22  C   DVA d          41.976  52.415  95.597  0.00  0.00     0.251 C 
ATOM     23  CD  DVA d          42.918  51.455  97.591  0.00  0.00    -0.001 C 
ATOM     24  O   DVA d          40.858  52.217  96.088  0.00  0.00    -0.271 OA
ATOM     25  CG  DVA d          44.309  51.508  98.195  0.00  0.00    -0.048 C 
ATOM     26  H17 DVA d          42.575  50.416  97.479  0.00  0.00     0.064 H 
ATOM     27  H18 DVA d          42.198  52.016  98.205  0.00  0.00     0.064 H 
ATOM     28  CB  DVA d          45.184  51.302  97.009  0.00  0.00    -0.036 C 
ATOM     29  H15 DVA d          44.502  52.483  98.666  0.00  0.00     0.035 H 
ATOM     30  H16 DVA d          44.451  50.708  98.936  0.00  0.00     0.035 H 
ATOM     31  H13 DVA d          46.225  51.588  97.222  0.00  0.00     0.036 H 
ATOM     32  H14 DVA d          45.154  50.257  96.663  0.00  0.00     0.036 H 
ATOM     33  H12 DVA d          44.785  51.932  94.967  0.00  0.00     0.087 H 
BRANCH  22  34
ATOM     34  CA  DVA d          42.081  53.077  94.203  0.00  0.00     0.178 C 
ATOM     35  H4  DVA d          43.057  52.799  93.780  0.00  0.00     0.099 H 
BRANCH  34  36
ATOM     36  N   DVA d          42.046  54.557  94.363  0.00  0.00    -0.066 N 
ATOM     37  H1  DVA d          42.091  54.995  93.456  0.00  0.00     0.275 HD
ATOM     38  H2  DVA d          42.833  54.854  94.919  0.00  0.00     0.275 HD
ATOM     39  H3  DVA d          41.190  54.826  94.823  0.00  0.00     0.275 HD
ENDBRANCH  34  36
BRANCH  34  40
ATOM     40  CB  DVA d          41.004  52.630  93.195  0.00  0.00    -0.025 C 
ATOM     41  H5  DVA d          40.550  51.690  93.542  0.00  0.00     0.042 H 
BRANCH  40  42
ATOM     42  CG1 DVA d          39.919  53.688  93.077  0.00  0.00    -0.071 C 
ATOM     43  H6  DVA d          40.319  54.661  93.400  0.00  0.00     0.028 H 
ATOM     44  H7  DVA d          39.066  53.413  93.715  0.00  0.00     0.028 H 
ATOM     45  H8  DVA d          39.587  53.758  92.030  0.00  0.00     0.028 H 
ENDBRANCH  40  42
BRANCH  40  46
ATOM     46  CG2 DVA d          41.665  52.398  91.834  0.00  0.00    -0.071 C 
ATOM     47  H9  DVA d          41.124  52.965  91.062  0.00  0.00     0.028 H 
ATOM     48  H10 DVA d          41.638  51.326  91.590  0.00  0.00     0.028 H 
ATOM     49  H11 DVA d          42.710  52.738  91.872  0.00  0.00     0.028 H 
ENDBRANCH  40  46
ENDBRANCH  34  40
ENDBRANCH  22  34
ENDBRANCH  17  20
ENDBRANCH  13  16
ENDBRANCH  10  13
ENDBRANCH   7   9
BRANCH   7  50
ATOM     50  CB  DVA d          45.661  57.682  92.335  0.00  0.00     0.044 C 
ATOM     51  H24 DVA d          46.242  58.494  91.872  0.00  0.00     0.077 H 
ATOM     52  H25 DVA d          45.181  58.053  93.253  0.00  0.00     0.077 H 
BRANCH  50  53
ATOM     53  OG  DVA d          44.665  57.241  91.428  0.00  0.00    -0.398 OA
ATOM     54  H26 DVA d          45.073  56.995  90.607  0.00  0.00     0.209 HD
ENDBRANCH  50  53
ENDBRANCH   7  50
ENDBRANCH   4   7
ENDBRANCH   1   3
BRANCH   1  55
ATOM     55  C   DVA d          44.488  53.779  90.015  0.00  0.00     0.241 C 
ATOM     56  O   DVA d          43.576  54.609  90.083  0.00  0.00    -0.271 OA
ATOM     57  N   DVA d          44.900  53.243  88.865  0.00  0.00    -0.346 N 
ATOM     58  H35 DVA d          45.664  52.597  88.873  0.00  0.00     0.163 HD
BRANCH  57  59
ATOM     59  CA  DVA d          44.256  53.581  87.577  0.00  0.00     0.094 C 
ATOM     60  H36 DVA d          44.247  54.676  87.482  0.00  0.00     0.088 H 
BRANCH  59  61
ATOM     61  C   DVA d          44.939  52.986  86.380  0.00  0.00     0.241 C 
ATOM     62  O   DVA d          45.011  53.628  85.322  0.00  0.00    -0.271 OA
ATOM     63  N   DVA d          45.407  51.752  86.536  0.00  0.00    -0.346 N 
ATOM     64  H42 DVA d          45.383  51.322  87.438  0.00  0.00     0.163 HD
BRANCH  63  65
ATOM     65  CA  DVA d          45.958  51.019  85.396  0.00  0.00     0.093 C 
ATOM     66  H43 DVA d          45.635  49.972  85.490  0.00  0.00     0.088 H 
BRANCH  65  67
ATOM     67  C   DVA d          45.512  51.502  84.022  0.00  0.00     0.241 C 
ATOM     68  O   DVA d          44.414  51.158  83.575  0.00  0.00    -0.271 OA
ATOM     69  N   DVA d          46.368  52.280  83.361  0.00  0.00    -0.345 N 
ATOM     70  H51 DVA d          47.246  52.501  83.784  0.00  0.00     0.163 HD
BRANCH  69  71
ATOM     71  CA  DVA d          46.061  52.823  82.031  0.00  0.00     0.098 C 
ATOM     72  H52 DVA d          44.979  52.708  81.865  0.00  0.00     0.088 H 
BRANCH  71  73
ATOM     73  C   DVA d          46.416  54.299  81.861  0.00  0.00     0.241 C 
ATOM     74  O   DVA d          46.138  54.916  80.824  0.00  0.00    -0.271 OA
ATOM     75  N   DVA d          47.017  54.834  82.926  0.00  0.00    -0.343 N 
ATOM     76  H55 DVA d          47.197  54.222  83.696  0.00  0.00     0.163 HD
BRANCH  75  77
ATOM     77  CA  DVA d          47.438  56.228  83.078  0.00  0.00     0.116 C 
ATOM     78  H56 DVA d          47.264  56.717  82.108  0.00  0.00     0.093 H 
BRANCH  77  79
ATOM     79  C   DVA d          46.638  57.002  84.115  0.00  0.00     0.198 C 
ATOM     80  O   DVA d          46.434  58.219  83.923  0.00  0.00    -0.646 OA
ATOM     81  OXT DVA d          46.221  56.365  85.109  0.00  0.00    -0.646 OA
ENDBRANCH  77  79
BRANCH  77  82
ATOM     82  CB  DVA d          48.938  56.332  83.381  0.00  0.00     0.045 C 
ATOM     83  H57 DVA d          49.432  56.884  82.566  0.00  0.00     0.077 H 
ATOM     84  H58 DVA d          49.363  55.320  83.449  0.00  0.00     0.077 H 
BRANCH  82  85
ATOM     85  OG  DVA d          49.164  57.016  84.608  0.00  0.00    -0.398 OA
ATOM     86  H59 DVA d          48.721  57.856  84.588  0.00  0.00     0.209 HD
ENDBRANCH  82  85
ENDBRANCH  77  82
ENDBRANCH  75  77
ENDBRANCH  71  73
BRANCH  71  87
ATOM     87  CB  DVA d          46.815  52.046  80.949  0.00  0.00     0.043 C 
ATOM     88  H53 DVA d          46.699  52.574  79.991  0.00  0.00     0.052 H 
ATOM     89  H54 DVA d          46.377  51.040  80.869  0.00  0.00     0.052 H 
BRANCH  87  90
ATOM     90  CG  DVA d          48.284  51.910  81.250  0.00  0.00     0.175 C 
ATOM     91  OD1 DVA d          48.999  51.266  80.452  0.00  0.00    -0.648 OA
ATOM     92  OD2 DVA d          48.729  52.457  82.272  0.00  0.00    -0.648 OA
ENDBRANCH  87  90
ENDBRANCH  71  87
ENDBRANCH  69  71
ENDBRANCH  65  67
BRANCH  65  93
ATOM     93  CB  DVA d          47.486  51.069  85.496  0.00  0.00    -0.014 C 
ATOM     94  H44 DVA d          47.895  51.328  84.508  0.00  0.00     0.043 H 
ATOM     95  H45 DVA d          47.851  50.075  85.794  0.00  0.00     0.043 H 
BRANCH  93  96
ATOM     96  CG  DVA d          47.978  52.091  86.509  0.00  0.00    -0.056 A 
ATOM     97  CD1 DVA d          48.174  53.427  86.142  0.00  0.00    -0.074 A 
ATOM     98  CE1 DVA d          48.660  54.380  87.052  0.00  0.00    -0.051 A 
ATOM     99  H46 DVA d          47.945  53.734  85.128  0.00  0.00     0.084 H 
ATOM    100  CZ  DVA d          48.948  53.974  88.370  0.00  0.00     0.065 A 
ATOM    101  H48 DVA d          48.809  55.410  86.746  0.00  0.00     0.087 H 
ATOM    102  CE2 DVA d          48.761  52.654  88.752  0.00  0.00    -0.051 A 
ATOM    103  CD2 DVA d          48.278  51.713  87.825  0.00  0.00    -0.074 A 
ATOM    104  H49 DVA d          48.987  52.347  89.766  0.00  0.00     0.087 H 
ATOM    105  H47 DVA d          48.136  50.682  88.132  0.00  0.00     0.084 H 
BRANCH 100 106
ATOM    106  OH  DVA d          49.404  54.880  89.301  0.00  0.00    -0.361 OA
ATOM    107  H50 DVA d          48.840  54.858  90.065  0.00  0.00     0.217 HD
ENDBRANCH 100 106
ENDBRANCH  93  96
ENDBRANCH  65  93
ENDBRANCH  63  65
ENDBRANCH  59  61
BRANCH  59 108
ATOM    108  CB  DVA d          42.824  53.046  87.496  0.00  0.00     0.004 C 
ATOM    109  H37 DVA d          42.286  53.367  88.399  0.00  0.00     0.046 H 
ATOM    110  H38 DVA d          42.868  51.947  87.467  0.00  0.00     0.046 H 
BRANCH 108 111
ATOM    111  CG  DVA d          42.054  53.515  86.299  0.00  0.00     0.053 A 
ATOM    112  ND1 DVA d          41.903  52.752  85.158  0.00  0.00    -0.247 NA
ATOM    113  CE1 DVA d          41.155  53.413  84.286  0.00  0.00     0.064 A 
ATOM    114  NE2 DVA d          40.819  54.580  84.822  0.00  0.00    -0.359 N 
ATOM    115  H40 DVA d          40.864  53.059  83.298  0.00  0.00     0.143 H 
ATOM    116  CD2 DVA d          41.373  54.665  86.081  0.00  0.00     0.002 A 
ATOM    117  H41 DVA d          40.240  55.303  84.372  0.00  0.00     0.166 HD
ATOM    118  H39 DVA d          41.280  55.502  86.772  0.00  0.00     0.114 H 
ENDBRANCH 108 111
ENDBRANCH  59 108
ENDBRANCH  57  59
ENDBRANCH   1  55
BRANCH   1 119
ATOM    119  CB  DVA d          46.518  52.601  90.912  0.00  0.00    -0.030 C 
ATOM    120  H29 DVA d          47.246  53.347  90.559  0.00  0.00     0.037 H 
ATOM    121  H30 DVA d          46.321  51.873  90.112  0.00  0.00     0.037 H 
BRANCH 119 122
ATOM    122  CG  DVA d          47.109  51.860  92.137  0.00  0.00     0.011 C 
ATOM    123  H31 DVA d          46.275  51.493  92.753  0.00  0.00     0.047 H 
ATOM    124  H32 DVA d          47.708  52.577  92.719  0.00  0.00     0.047 H 
BRANCH 122 125
ATOM    125  CD  DVA d          48.006  50.662  91.777  0.00  0.00     0.215 C 
ATOM    126  OE1 DVA d          49.090  50.477  92.361  0.00  0.00    -0.274 OA
ATOM    127  NE2 DVA d          47.560  49.854  90.838  0.00  0.00    -0.370 N 
ATOM    128  H33 DVA d          48.102  49.059  90.564  0.00  0.00     0.159 HD
ATOM    129  H34 DVA d          46.680  50.034  90.399  0.00  0.00     0.159 HD
ENDBRANCH 122 125
ENDBRANCH 119 122
ENDBRANCH   1 119
TORSDOF 34
ENDMDL
