MODEL 1
REMARK VINA RESULT:      -8.0      0.000      0.000
REMARK  8 active torsions:
REMARK  status: ('A' for Active; 'I' for Inactive)
REMARK    1  A    between atoms: N1_2  and  C2_4 
REMARK       I    between atoms: C10_18  and  N1_2 
REMARK    2  A    between atoms: N3_8  and  N2_5 
REMARK       I    between atoms: N2_5  and  C10_18 
REMARK       I    between atoms: C12_20  and  N3_8 
REMARK    3  A    between atoms: C16_24  and  N4_11 
REMARK    4  A    between atoms: C13_21  and  C12_20 
REMARK    5  A    between atoms: C18_26  and  C19_27 
REMARK    6  A    between atoms: C19_27  and  C20_28 
REMARK    7  A    between atoms: C19_27  and  C21_29 
REMARK    8  A    between atoms: C19_27  and  C22_30 
ROOT
ATOM      1  O2  AGY d          29.788  -5.730  19.129  0.00  0.00    -0.266 OA
ATOM      2  N3  AGY d          29.244  -3.611  18.609  0.00  0.00    -0.262 N 
ATOM      3  C12 AGY d          29.241  -4.663  19.472  0.00  0.00     0.270 C 
ATOM      4  H3  AGY d          28.818  -2.735  18.833  0.00  0.00     0.190 HD
ENDROOT
BRANCH   3   5
ATOM      5  C13 AGY d          28.599  -4.547  20.780  0.00  0.00     0.036 A 
ATOM      6  C14 AGY d          29.057  -5.342  21.851  0.00  0.00    -0.035 A 
ATOM      7  C16 AGY d          28.468  -5.264  23.155  0.00  0.00     0.111 A 
ATOM      8  H11 AGY d          29.876  -6.032  21.683  0.00  0.00     0.088 H 
ATOM      9  C18 AGY d          27.347  -4.344  23.423  0.00  0.00    -0.018 A 
ATOM     10  C17 AGY d          26.889  -3.525  22.286  0.00  0.00    -0.073 A 
ATOM     11  C15 AGY d          27.516  -3.639  20.991  0.00  0.00    -0.067 A 
ATOM     12  H13 AGY d          26.069  -2.829  22.425  0.00  0.00     0.084 H 
ATOM     13  H12 AGY d          27.162  -3.028  20.169  0.00  0.00     0.085 H 
BRANCH   7  14
ATOM     14  N4  AGY d          28.988  -6.013  24.112  0.00  0.00    -0.115 N 
ATOM     15  O3  AGY d          29.990  -5.554  24.808  0.00  0.00    -0.532 OA
ATOM     16  O4  AGY d          28.476  -7.280  24.366  0.00  0.00    -0.532 OA
ENDBRANCH   7  14
BRANCH   9  17
ATOM     17  C19 AGY d          26.639  -4.179  24.791  0.00  0.00    -0.022 C 
BRANCH  17  18
ATOM     18  C20 AGY d          25.906  -5.453  25.277  0.00  0.00    -0.066 C 
ATOM     19  H14 AGY d          25.086  -5.169  25.954  0.00  0.00     0.028 H 
ATOM     20  H15 AGY d          26.614  -6.103  25.811  0.00  0.00     0.028 H 
ATOM     21  H16 AGY d          25.495  -5.992  24.410  0.00  0.00     0.028 H 
ENDBRANCH  17  18
BRANCH  17  22
ATOM     22  C21 AGY d          27.471  -3.912  26.102  0.00  0.00    -0.066 C 
ATOM     23  H17 AGY d          27.339  -4.753  26.798  0.00  0.00     0.028 H 
ATOM     24  H18 AGY d          27.119  -2.985  26.577  0.00  0.00     0.028 H 
ATOM     25  H19 AGY d          28.536  -3.812  25.847  0.00  0.00     0.028 H 
ENDBRANCH  17  22
BRANCH  17  26
ATOM     26  C22 AGY d          25.704  -2.962  24.661  0.00  0.00    -0.066 C 
ATOM     27  H20 AGY d          25.564  -2.720  23.597  0.00  0.00     0.028 H 
ATOM     28  H21 AGY d          26.151  -2.099  25.177  0.00  0.00     0.028 H 
ATOM     29  H22 AGY d          24.730  -3.197  25.115  0.00  0.00     0.028 H 
ENDBRANCH  17  26
ENDBRANCH   9  17
ENDBRANCH   3   5
BRANCH   2  30
ATOM     30  N2  AGY d          29.903  -3.846  17.355  0.00  0.00    -0.248 N 
ATOM     31  C10 AGY d          31.026  -3.185  16.963  0.00  0.00     0.339 C 
ATOM     32  N1  AGY d          31.602  -2.242  17.765  0.00  0.00    -0.307 N 
ATOM     33  O1  AGY d          31.501  -3.474  15.857  0.00  0.00    -0.245 OA
ATOM     34  H1  AGY d          31.139  -2.094  18.639  0.00  0.00     0.170 HD
ATOM     35  H2  AGY d          29.516  -4.531  16.738  0.00  0.00     0.192 HD
BRANCH  32  36
ATOM     36  C2  AGY d          32.732  -1.454  17.561  0.00  0.00     0.047 A 
ATOM     37  C1  AGY d          34.100  -1.951  17.594  0.00  0.00     0.001 A 
ATOM     38  C3  AGY d          35.243  -1.017  17.360  0.00  0.00    -0.024 A 
ATOM     39  C4  AGY d          34.380  -3.345  17.852  0.00  0.00    -0.070 A 
ATOM     40  C6  AGY d          35.007   0.382  17.101  0.00  0.00    -0.072 A 
ATOM     41  C7  AGY d          36.582  -1.510  17.394  0.00  0.00    -0.072 A 
ATOM     42  C9  AGY d          33.635   0.877  17.068  0.00  0.00    -0.080 A 
ATOM     43  H6  AGY d          35.838   1.057  16.931  0.00  0.00     0.084 H 
ATOM     44  C5  AGY d          32.521  -0.033  17.296  0.00  0.00    -0.056 A 
ATOM     45  H9  AGY d          33.444   1.926  16.874  0.00  0.00     0.083 H 
ATOM     46  H5  AGY d          31.509   0.354  17.269  0.00  0.00     0.086 H 
ATOM     47  C11 AGY d          36.840  -2.913  17.655  0.00  0.00    -0.082 A 
ATOM     48  H7  AGY d          37.410  -0.832  17.224  0.00  0.00     0.084 H 
ATOM     49  C8  AGY d          35.742  -3.825  17.883  0.00  0.00    -0.082 A 
ATOM     50  H10 AGY d          37.861  -3.279  17.679  0.00  0.00     0.083 H 
ATOM     51  H8  AGY d          35.942  -4.873  18.077  0.00  0.00     0.083 H 
ATOM     52  H4  AGY d          33.562  -4.035  18.024  0.00  0.00     0.084 H 
ENDBRANCH  32  36
ENDBRANCH   2  30
TORSDOF 8
ENDMDL
MODEL 2
REMARK VINA RESULT:      -7.5      1.637      1.969
REMARK  8 active torsions:
REMARK  status: ('A' for Active; 'I' for Inactive)
REMARK    1  A    between atoms: N1_2  and  C2_4 
REMARK       I    between atoms: C10_18  and  N1_2 
REMARK    2  A    between atoms: N3_8  and  N2_5 
REMARK       I    between atoms: N2_5  and  C10_18 
REMARK       I    between atoms: C12_20  and  N3_8 
REMARK    3  A    between atoms: C16_24  and  N4_11 
REMARK    4  A    between atoms: C13_21  and  C12_20 
REMARK    5  A    between atoms: C18_26  and  C19_27 
REMARK    6  A    between atoms: C19_27  and  C20_28 
REMARK    7  A    between atoms: C19_27  and  C21_29 
REMARK    8  A    between atoms: C19_27  and  C22_30 
ROOT
ATOM      1  O2  AGY d          29.970  -5.759  19.213  0.00  0.00    -0.266 OA
ATOM      2  N3  AGY d          29.287  -3.641  18.899  0.00  0.00    -0.262 N 
ATOM      3  C12 AGY d          29.435  -4.739  19.689  0.00  0.00     0.270 C 
ATOM      4  H3  AGY d          28.862  -2.799  19.230  0.00  0.00     0.190 HD
ENDROOT
BRANCH   3   5
ATOM      5  C13 AGY d          28.965  -4.725  21.073  0.00  0.00     0.036 A 
ATOM      6  C14 AGY d          27.752  -4.079  21.388  0.00  0.00    -0.035 A 
ATOM      7  C16 AGY d          27.241  -4.041  22.726  0.00  0.00     0.111 A 
ATOM      8  H11 AGY d          27.189  -3.598  20.595  0.00  0.00     0.088 H 
ATOM      9  C18 AGY d          27.980  -4.676  23.834  0.00  0.00    -0.018 A 
ATOM     10  C17 AGY d          29.244  -5.344  23.476  0.00  0.00    -0.073 A 
ATOM     11  C15 AGY d          29.716  -5.358  22.112  0.00  0.00    -0.067 A 
ATOM     12  H13 AGY d          29.829  -5.831  24.249  0.00  0.00     0.084 H 
ATOM     13  H12 AGY d          30.649  -5.853  21.872  0.00  0.00     0.085 H 
BRANCH   7  14
ATOM     14  N4  AGY d          26.075  -3.452  22.924  0.00  0.00    -0.115 N 
ATOM     15  O3  AGY d          26.032  -2.160  23.087  0.00  0.00    -0.532 OA
ATOM     16  O4  AGY d          24.909  -4.206  22.966  0.00  0.00    -0.532 OA
ENDBRANCH   7  14
BRANCH   9  17
ATOM     17  C19 AGY d          27.521  -4.694  25.313  0.00  0.00    -0.022 C 
BRANCH  17  18
ATOM     18  C20 AGY d          28.623  -5.132  26.307  0.00  0.00    -0.066 C 
ATOM     19  H14 AGY d          28.421  -4.693  27.295  0.00  0.00     0.028 H 
ATOM     20  H15 AGY d          29.602  -4.786  25.946  0.00  0.00     0.028 H 
ATOM     21  H16 AGY d          28.629  -6.230  26.387  0.00  0.00     0.028 H 
ENDBRANCH  17  18
BRANCH  17  22
ATOM     22  C21 AGY d          27.105  -3.363  26.045  0.00  0.00    -0.066 C 
ATOM     23  H17 AGY d          26.519  -3.606  26.943  0.00  0.00     0.028 H 
ATOM     24  H18 AGY d          26.497  -2.747  25.366  0.00  0.00     0.028 H 
ATOM     25  H19 AGY d          28.008  -2.807  26.336  0.00  0.00     0.028 H 
ENDBRANCH  17  22
BRANCH  17  26
ATOM     26  C22 AGY d          26.268  -5.589  25.375  0.00  0.00    -0.066 C 
ATOM     27  H20 AGY d          26.143  -6.113  24.415  0.00  0.00     0.028 H 
ATOM     28  H21 AGY d          25.382  -4.966  25.570  0.00  0.00     0.028 H 
ATOM     29  H22 AGY d          26.383  -6.326  26.183  0.00  0.00     0.028 H 
ENDBRANCH  17  26
ENDBRANCH   9  17
ENDBRANCH   3   5
BRANCH   2  30
ATOM     30  N2  AGY d          29.783  -3.776  17.559  0.00  0.00    -0.248 N 
ATOM     31  C10 AGY d          30.886  -3.123  17.099  0.00  0.00     0.339 C 
ATOM     32  N1  AGY d          31.598  -2.288  17.912  0.00  0.00    -0.307 N 
ATOM     33  O1  AGY d          31.215  -3.318  15.921  0.00  0.00    -0.245 OA
ATOM     34  H1  AGY d          31.246  -2.209  18.845  0.00  0.00     0.170 HD
ATOM     35  H2  AGY d          29.294  -4.380  16.931  0.00  0.00     0.192 HD
BRANCH  32  36
ATOM     36  C2  AGY d          32.735  -1.528  17.649  0.00  0.00     0.047 A 
ATOM     37  C1  AGY d          34.094  -2.051  17.650  0.00  0.00     0.001 A 
ATOM     38  C3  AGY d          35.246  -1.147  17.353  0.00  0.00    -0.024 A 
ATOM     39  C4  AGY d          34.356  -3.444  17.937  0.00  0.00    -0.070 A 
ATOM     40  C6  AGY d          35.028   0.250  17.064  0.00  0.00    -0.072 A 
ATOM     41  C7  AGY d          36.576  -1.665  17.356  0.00  0.00    -0.072 A 
ATOM     42  C9  AGY d          33.665   0.771  17.063  0.00  0.00    -0.080 A 
ATOM     43  H6  AGY d          35.865   0.903  16.849  0.00  0.00     0.084 H 
ATOM     44  C5  AGY d          32.542  -0.111  17.353  0.00  0.00    -0.056 A 
ATOM     45  H9  AGY d          33.487   1.818  16.846  0.00  0.00     0.083 H 
ATOM     46  H5  AGY d          31.537   0.295  17.348  0.00  0.00     0.086 H 
ATOM     47  C11 AGY d          36.815  -3.066  17.646  0.00  0.00    -0.082 A 
ATOM     48  H7  AGY d          37.410  -1.008  17.140  0.00  0.00     0.084 H 
ATOM     49  C8  AGY d          35.709  -3.950  17.935  0.00  0.00    -0.082 A 
ATOM     50  H10 AGY d          37.829  -3.451  17.647  0.00  0.00     0.083 H 
ATOM     51  H8  AGY d          35.894  -4.996  18.151  0.00  0.00     0.083 H 
ATOM     52  H4  AGY d          33.531  -4.112  18.154  0.00  0.00     0.084 H 
ENDBRANCH  32  36
ENDBRANCH   2  30
TORSDOF 8
ENDMDL
MODEL 3
REMARK VINA RESULT:      -7.5      1.709      2.804
REMARK  8 active torsions:
REMARK  status: ('A' for Active; 'I' for Inactive)
REMARK    1  A    between atoms: N1_2  and  C2_4 
REMARK       I    between atoms: C10_18  and  N1_2 
REMARK    2  A    between atoms: N3_8  and  N2_5 
REMARK       I    between atoms: N2_5  and  C10_18 
REMARK       I    between atoms: C12_20  and  N3_8 
REMARK    3  A    between atoms: C16_24  and  N4_11 
REMARK    4  A    between atoms: C13_21  and  C12_20 
REMARK    5  A    between atoms: C18_26  and  C19_27 
REMARK    6  A    between atoms: C19_27  and  C20_28 
REMARK    7  A    between atoms: C19_27  and  C21_29 
REMARK    8  A    between atoms: C19_27  and  C22_30 
ROOT
ATOM      1  O2  AGY d          29.409  -5.831  19.111  0.00  0.00    -0.266 OA
ATOM      2  N3  AGY d          29.124  -3.605  18.981  0.00  0.00    -0.262 N 
ATOM      3  C12 AGY d          29.111  -4.767  19.689  0.00  0.00     0.270 C 
ATOM      4  H3  AGY d          28.891  -2.726  19.394  0.00  0.00     0.190 HD
ENDROOT
BRANCH   3   5
ATOM      5  C13 AGY d          28.747  -4.769  21.104  0.00  0.00     0.036 A 
ATOM      6  C14 AGY d          27.548  -4.148  21.512  0.00  0.00    -0.035 A 
ATOM      7  C16 AGY d          27.139  -4.126  22.885  0.00  0.00     0.111 A 
ATOM      8  H11 AGY d          26.919  -3.674  20.767  0.00  0.00     0.088 H 
ATOM      9  C18 AGY d          27.970  -4.752  23.931  0.00  0.00    -0.018 A 
ATOM     10  C17 AGY d          29.217  -5.393  23.476  0.00  0.00    -0.073 A 
ATOM     11  C15 AGY d          29.585  -5.392  22.080  0.00  0.00    -0.067 A 
ATOM     12  H13 AGY d          29.867  -5.872  24.200  0.00  0.00     0.084 H 
ATOM     13  H12 AGY d          30.507  -5.868  21.768  0.00  0.00     0.085 H 
BRANCH   7  14
ATOM     14  N4  AGY d          25.979  -3.561  23.173  0.00  0.00    -0.115 N 
ATOM     15  O3  AGY d          25.958  -2.326  23.589  0.00  0.00    -0.532 OA
ATOM     16  O4  AGY d          24.798  -4.281  23.042  0.00  0.00    -0.532 OA
ENDBRANCH   7  14
BRANCH   9  17
ATOM     17  C19 AGY d          27.623  -4.786  25.440  0.00  0.00    -0.022 C 
BRANCH  17  18
ATOM     18  C20 AGY d          28.768  -5.318  26.335  0.00  0.00    -0.066 C 
ATOM     19  H14 AGY d          29.683  -5.430  25.734  0.00  0.00     0.028 H 
ATOM     20  H15 AGY d          28.483  -6.295  26.753  0.00  0.00     0.028 H 
ATOM     21  H16 AGY d          28.952  -4.608  27.155  0.00  0.00     0.028 H 
ENDBRANCH  17  18
BRANCH  17  22
ATOM     22  C21 AGY d          27.347  -3.454  26.234  0.00  0.00    -0.066 C 
ATOM     23  H17 AGY d          27.355  -2.603  25.538  0.00  0.00     0.028 H 
ATOM     24  H18 AGY d          28.128  -3.313  26.996  0.00  0.00     0.028 H 
ATOM     25  H19 AGY d          26.364  -3.517  26.725  0.00  0.00     0.028 H 
ENDBRANCH  17  22
BRANCH  17  26
ATOM     26  C22 AGY d          26.325  -5.605  25.576  0.00  0.00    -0.066 C 
ATOM     27  H20 AGY d          26.567  -6.679  25.569  0.00  0.00     0.028 H 
ATOM     28  H21 AGY d          25.656  -5.374  24.734  0.00  0.00     0.028 H 
ATOM     29  H22 AGY d          25.827  -5.348  26.523  0.00  0.00     0.028 H 
ENDBRANCH  17  26
ENDBRANCH   9  17
ENDBRANCH   3   5
BRANCH   2  30
ATOM     30  N2  AGY d          29.495  -3.730  17.599  0.00  0.00    -0.248 N 
ATOM     31  C10 AGY d          30.768  -3.560  17.147  0.00  0.00     0.339 C 
ATOM     32  N1  AGY d          31.784  -3.258  18.007  0.00  0.00    -0.307 N 
ATOM     33  O1  AGY d          30.963  -3.691  15.931  0.00  0.00    -0.245 OA
ATOM     34  H1  AGY d          31.514  -3.182  18.967  0.00  0.00     0.170 HD
ATOM     35  H2  AGY d          28.782  -3.954  16.935  0.00  0.00     0.192 HD
BRANCH  32  36
ATOM     36  C2  AGY d          33.137  -3.039  17.761  0.00  0.00     0.047 A 
ATOM     37  C1  AGY d          33.735  -1.727  17.555  0.00  0.00     0.001 A 
ATOM     38  C3  AGY d          35.203  -1.604  17.298  0.00  0.00    -0.024 A 
ATOM     39  C4  AGY d          32.931  -0.527  17.593  0.00  0.00    -0.070 A 
ATOM     40  C6  AGY d          36.041  -2.777  17.250  0.00  0.00    -0.072 A 
ATOM     41  C7  AGY d          35.783  -0.316  17.097  0.00  0.00    -0.072 A 
ATOM     42  C9  AGY d          35.439  -4.090  17.456  0.00  0.00    -0.080 A 
ATOM     43  H6  AGY d          37.105  -2.684  17.063  0.00  0.00     0.084 H 
ATOM     44  C5  AGY d          34.009  -4.210  17.706  0.00  0.00    -0.056 A 
ATOM     45  H9  AGY d          36.057  -4.979  17.423  0.00  0.00     0.083 H 
ATOM     46  H5  AGY d          33.580  -5.194  17.857  0.00  0.00     0.086 H 
ATOM     47  C11 AGY d          34.957   0.875  17.139  0.00  0.00    -0.082 A 
ATOM     48  H7  AGY d          36.847  -0.228  16.911  0.00  0.00     0.084 H 
ATOM     49  C8  AGY d          33.537   0.768  17.387  0.00  0.00    -0.082 A 
ATOM     50  H10 AGY d          35.406   1.850  16.985  0.00  0.00     0.083 H 
ATOM     51  H8  AGY d          32.924   1.662  17.418  0.00  0.00     0.083 H 
ATOM     52  H4  AGY d          31.865  -0.600  17.778  0.00  0.00     0.084 H 
ENDBRANCH  32  36
ENDBRANCH   2  30
TORSDOF 8
ENDMDL
MODEL 4
REMARK VINA RESULT:      -6.9      2.013      9.584
REMARK  8 active torsions:
REMARK  status: ('A' for Active; 'I' for Inactive)
REMARK    1  A    between atoms: N1_2  and  C2_4 
REMARK       I    between atoms: C10_18  and  N1_2 
REMARK    2  A    between atoms: N3_8  and  N2_5 
REMARK       I    between atoms: N2_5  and  C10_18 
REMARK       I    between atoms: C12_20  and  N3_8 
REMARK    3  A    between atoms: C16_24  and  N4_11 
REMARK    4  A    between atoms: C13_21  and  C12_20 
REMARK    5  A    between atoms: C18_26  and  C19_27 
REMARK    6  A    between atoms: C19_27  and  C20_28 
REMARK    7  A    between atoms: C19_27  and  C21_29 
REMARK    8  A    between atoms: C19_27  and  C22_30 
ROOT
ATOM      1  O2  AGY d          31.743  -5.529  17.204  0.00  0.00    -0.266 OA
ATOM      2  N3  AGY d          30.999  -4.243  18.891  0.00  0.00    -0.262 N 
ATOM      3  C12 AGY d          31.808  -4.444  17.816  0.00  0.00     0.270 C 
ATOM      4  H3  AGY d          31.012  -3.394  19.419  0.00  0.00     0.190 HD
ENDROOT
BRANCH   3   5
ATOM      5  C13 AGY d          32.745  -3.407  17.390  0.00  0.00     0.036 A 
ATOM      6  C14 AGY d          32.367  -2.051  17.481  0.00  0.00    -0.035 A 
ATOM      7  C16 AGY d          33.247  -0.993  17.084  0.00  0.00     0.111 A 
ATOM      8  H11 AGY d          31.383  -1.802  17.863  0.00  0.00     0.088 H 
ATOM      9  C18 AGY d          34.591  -1.289  16.552  0.00  0.00    -0.018 A 
ATOM     10  C17 AGY d          34.960  -2.714  16.468  0.00  0.00    -0.073 A 
ATOM     11  C15 AGY d          34.038  -3.744  16.884  0.00  0.00    -0.067 A 
ATOM     12  H13 AGY d          35.937  -2.992  16.088  0.00  0.00     0.084 H 
ATOM     13  H12 AGY d          34.329  -4.785  16.811  0.00  0.00     0.085 H 
BRANCH   7  14
ATOM     14  N4  AGY d          32.829   0.250  17.244  0.00  0.00    -0.115 N 
ATOM     15  O3  AGY d          33.106   0.878  18.352  0.00  0.00    -0.532 OA
ATOM     16  O4  AGY d          32.095   0.877  16.245  0.00  0.00    -0.532 OA
ENDBRANCH   7  14
BRANCH   9  17
ATOM     17  C19 AGY d          35.621  -0.226  16.095  0.00  0.00    -0.022 C 
BRANCH  17  18
ATOM     18  C20 AGY d          35.049   0.817  15.105  0.00  0.00    -0.066 C 
ATOM     19  H14 AGY d          35.574   1.775  15.238  0.00  0.00     0.028 H 
ATOM     20  H15 AGY d          33.976   0.958  15.300  0.00  0.00     0.028 H 
ATOM     21  H16 AGY d          35.192   0.460  14.074  0.00  0.00     0.028 H 
ENDBRANCH  17  18
BRANCH  17  22
ATOM     22  C21 AGY d          36.241   0.791  17.126  0.00  0.00    -0.066 C 
ATOM     23  H17 AGY d          36.044   1.819  16.790  0.00  0.00     0.028 H 
ATOM     24  H18 AGY d          37.327   0.629  17.193  0.00  0.00     0.028 H 
ATOM     25  H19 AGY d          35.786   0.635  18.115  0.00  0.00     0.028 H 
ENDBRANCH  17  22
BRANCH  17  26
ATOM     26  C22 AGY d          36.827  -0.996  15.524  0.00  0.00    -0.066 C 
ATOM     27  H20 AGY d          37.188  -1.719  16.272  0.00  0.00     0.028 H 
ATOM     28  H21 AGY d          37.633  -0.288  15.281  0.00  0.00     0.028 H 
ATOM     29  H22 AGY d          36.522  -1.533  14.613  0.00  0.00     0.028 H 
ENDBRANCH  17  26
ENDBRANCH   9  17
ENDBRANCH   3   5
BRANCH   2  30
ATOM     30  N2  AGY d          30.124  -5.335  19.216  0.00  0.00    -0.248 N 
ATOM     31  C10 AGY d          29.498  -5.462  20.418  0.00  0.00     0.339 C 
ATOM     32  N1  AGY d          29.671  -4.531  21.401  0.00  0.00    -0.307 N 
ATOM     33  O1  AGY d          28.769  -6.449  20.580  0.00  0.00    -0.245 OA
ATOM     34  H1  AGY d          30.276  -3.772  21.160  0.00  0.00     0.170 HD
ATOM     35  H2  AGY d          29.967  -6.038  18.523  0.00  0.00     0.192 HD
BRANCH  32  36
ATOM     36  C2  AGY d          29.140  -4.469  22.687  0.00  0.00     0.047 A 
ATOM     37  C1  AGY d          27.839  -3.904  23.015  0.00  0.00     0.001 A 
ATOM     38  C3  AGY d          27.363  -3.889  24.432  0.00  0.00    -0.024 A 
ATOM     39  C4  AGY d          26.987  -3.349  21.987  0.00  0.00    -0.070 A 
ATOM     40  C6  AGY d          28.182  -4.431  25.488  0.00  0.00    -0.072 A 
ATOM     41  C7  AGY d          26.087  -3.333  24.747  0.00  0.00    -0.072 A 
ATOM     42  C9  AGY d          29.486  -4.997  25.156  0.00  0.00    -0.080 A 
ATOM     43  H6  AGY d          27.835  -4.419  26.514  0.00  0.00     0.084 H 
ATOM     44  C5  AGY d          29.950  -5.012  23.776  0.00  0.00    -0.056 A 
ATOM     45  H9  AGY d          30.111  -5.408  25.940  0.00  0.00     0.083 H 
ATOM     46  H5  AGY d          30.921  -5.436  23.549  0.00  0.00     0.086 H 
ATOM     47  C11 AGY d          25.248  -2.781  23.700  0.00  0.00    -0.082 A 
ATOM     48  H7  AGY d          25.742  -3.323  25.775  0.00  0.00     0.084 H 
ATOM     49  C8  AGY d          25.699  -2.791  22.326  0.00  0.00    -0.082 A 
ATOM     50  H10 AGY d          24.281  -2.360  23.948  0.00  0.00     0.083 H 
ATOM     51  H8  AGY d          25.068  -2.377  21.547  0.00  0.00     0.083 H 
ATOM     52  H4  AGY d          27.318  -3.352  20.955  0.00  0.00     0.084 H 
ENDBRANCH  32  36
ENDBRANCH   2  30
TORSDOF 8
ENDMDL
MODEL 5
REMARK VINA RESULT:      -6.9      1.056      2.288
REMARK  8 active torsions:
REMARK  status: ('A' for Active; 'I' for Inactive)
REMARK    1  A    between atoms: N1_2  and  C2_4 
REMARK       I    between atoms: C10_18  and  N1_2 
REMARK    2  A    between atoms: N3_8  and  N2_5 
REMARK       I    between atoms: N2_5  and  C10_18 
REMARK       I    between atoms: C12_20  and  N3_8 
REMARK    3  A    between atoms: C16_24  and  N4_11 
REMARK    4  A    between atoms: C13_21  and  C12_20 
REMARK    5  A    between atoms: C18_26  and  C19_27 
REMARK    6  A    between atoms: C19_27  and  C20_28 
REMARK    7  A    between atoms: C19_27  and  C21_29 
REMARK    8  A    between atoms: C19_27  and  C22_30 
ROOT
ATOM      1  O2  AGY d          29.053  -4.157  18.221  0.00  0.00    -0.266 OA
ATOM      2  N3  AGY d          30.556  -5.605  19.056  0.00  0.00    -0.262 N 
ATOM      3  C12 AGY d          29.496  -4.767  19.215  0.00  0.00     0.270 C 
ATOM      4  H3  AGY d          30.952  -6.115  19.819  0.00  0.00     0.190 HD
ENDROOT
BRANCH   3   5
ATOM      5  C13 AGY d          28.890  -4.578  20.532  0.00  0.00     0.036 A 
ATOM      6  C14 AGY d          29.361  -5.334  21.626  0.00  0.00    -0.035 A 
ATOM      7  C16 AGY d          28.808  -5.185  22.939  0.00  0.00     0.111 A 
ATOM      8  H11 AGY d          30.163  -6.047  21.469  0.00  0.00     0.088 H 
ATOM      9  C18 AGY d          27.711  -4.232  23.193  0.00  0.00    -0.018 A 
ATOM     10  C17 AGY d          27.239  -3.456  22.032  0.00  0.00    -0.073 A 
ATOM     11  C15 AGY d          27.831  -3.640  20.728  0.00  0.00    -0.067 A 
ATOM     12  H13 AGY d          26.437  -2.738  22.159  0.00  0.00     0.084 H 
ATOM     13  H12 AGY d          27.467  -3.060  19.888  0.00  0.00     0.085 H 
BRANCH   7  14
ATOM     14  N4  AGY d          29.339  -5.900  23.916  0.00  0.00    -0.115 N 
ATOM     15  O3  AGY d          30.443  -5.494  24.476  0.00  0.00    -0.532 OA
ATOM     16  O4  AGY d          28.728  -7.077  24.333  0.00  0.00    -0.532 OA
ENDBRANCH   7  14
BRANCH   9  17
ATOM     17  C19 AGY d          27.043  -3.992  24.570  0.00  0.00    -0.022 C 
BRANCH  17  18
ATOM     18  C20 AGY d          26.071  -5.116  25.001  0.00  0.00    -0.066 C 
ATOM     19  H14 AGY d          26.633  -6.050  25.149  0.00  0.00     0.028 H 
ATOM     20  H15 AGY d          25.313  -5.266  24.218  0.00  0.00     0.028 H 
ATOM     21  H16 AGY d          25.576  -4.832  25.941  0.00  0.00     0.028 H 
ENDBRANCH  17  18
BRANCH  17  22
ATOM     22  C21 AGY d          27.904  -3.951  25.888  0.00  0.00    -0.066 C 
ATOM     23  H17 AGY d          28.655  -4.753  25.860  0.00  0.00     0.028 H 
ATOM     24  H18 AGY d          27.248  -4.094  26.759  0.00  0.00     0.028 H 
ATOM     25  H19 AGY d          28.410  -2.978  25.966  0.00  0.00     0.028 H 
ENDBRANCH  17  22
BRANCH  17  26
ATOM     26  C22 AGY d          26.366  -2.609  24.496  0.00  0.00    -0.066 C 
ATOM     27  H20 AGY d          25.418  -2.694  23.944  0.00  0.00     0.028 H 
ATOM     28  H21 AGY d          27.030  -1.903  23.977  0.00  0.00     0.028 H 
ATOM     29  H22 AGY d          26.166  -2.245  25.515  0.00  0.00     0.028 H 
ENDBRANCH  17  26
ENDBRANCH   9  17
ENDBRANCH   3   5
BRANCH   2  30
ATOM     30  N2  AGY d          31.067  -5.705  17.718  0.00  0.00    -0.248 N 
ATOM     31  C10 AGY d          32.165  -5.029  17.282  0.00  0.00     0.339 C 
ATOM     32  N1  AGY d          32.858  -4.202  18.119  0.00  0.00    -0.307 N 
ATOM     33  O1  AGY d          32.508  -5.196  16.104  0.00  0.00    -0.245 OA
ATOM     34  H1  AGY d          32.497  -4.147  19.050  0.00  0.00     0.170 HD
ATOM     35  H2  AGY d          30.591  -6.303  17.073  0.00  0.00     0.192 HD
BRANCH  32  36
ATOM     36  C2  AGY d          33.988  -3.422  17.882  0.00  0.00     0.047 A 
ATOM     37  C1  AGY d          33.963  -1.987  17.643  0.00  0.00     0.001 A 
ATOM     38  C3  AGY d          35.237  -1.244  17.400  0.00  0.00    -0.024 A 
ATOM     39  C4  AGY d          32.716  -1.255  17.634  0.00  0.00    -0.070 A 
ATOM     40  C6  AGY d          36.502  -1.937  17.398  0.00  0.00    -0.072 A 
ATOM     41  C7  AGY d          35.206   0.163  17.166  0.00  0.00    -0.072 A 
ATOM     42  C9  AGY d          36.524  -3.376  17.638  0.00  0.00    -0.080 A 
ATOM     43  H6  AGY d          37.425  -1.396  17.222  0.00  0.00     0.084 H 
ATOM     44  C5  AGY d          35.282  -4.100  17.875  0.00  0.00    -0.056 A 
ATOM     45  H9  AGY d          37.468  -3.909  17.641  0.00  0.00     0.083 H 
ATOM     46  H5  AGY d          35.319  -5.169  18.051  0.00  0.00     0.086 H 
ATOM     47  C11 AGY d          33.944   0.878  17.161  0.00  0.00    -0.082 A 
ATOM     48  H7  AGY d          36.131   0.701  16.990  0.00  0.00     0.084 H 
ATOM     49  C8  AGY d          32.705   0.170  17.395  0.00  0.00    -0.082 A 
ATOM     50  H10 AGY d          33.929   1.947  16.982  0.00  0.00     0.083 H 
ATOM     51  H8  AGY d          31.765   0.710  17.391  0.00  0.00     0.083 H 
ATOM     52  H4  AGY d          31.784  -1.779  17.808  0.00  0.00     0.084 H 
ENDBRANCH  32  36
ENDBRANCH   2  30
TORSDOF 8
ENDMDL
MODEL 6
REMARK VINA RESULT:      -6.4      2.199      9.271
REMARK  8 active torsions:
REMARK  status: ('A' for Active; 'I' for Inactive)
REMARK    1  A    between atoms: N1_2  and  C2_4 
REMARK       I    between atoms: C10_18  and  N1_2 
REMARK    2  A    between atoms: N3_8  and  N2_5 
REMARK       I    between atoms: N2_5  and  C10_18 
REMARK       I    between atoms: C12_20  and  N3_8 
REMARK    3  A    between atoms: C16_24  and  N4_11 
REMARK    4  A    between atoms: C13_21  and  C12_20 
REMARK    5  A    between atoms: C18_26  and  C19_27 
REMARK    6  A    between atoms: C19_27  and  C20_28 
REMARK    7  A    between atoms: C19_27  and  C21_29 
REMARK    8  A    between atoms: C19_27  and  C22_30 
ROOT
ATOM      1  O2  AGY d          29.690  -4.707  17.762  0.00  0.00    -0.266 OA
ATOM      2  N3  AGY d          31.163  -5.761  19.093  0.00  0.00    -0.262 N 
ATOM      3  C12 AGY d          30.863  -4.801  18.176  0.00  0.00     0.270 C 
ATOM      4  H3  AGY d          32.087  -5.883  19.456  0.00  0.00     0.190 HD
ENDROOT
BRANCH   3   5
ATOM      5  C13 AGY d          31.900  -3.900  17.680  0.00  0.00     0.036 A 
ATOM      6  C14 AGY d          33.230  -4.359  17.582  0.00  0.00    -0.035 A 
ATOM      7  C16 AGY d          34.285  -3.520  17.097  0.00  0.00     0.111 A 
ATOM      8  H11 AGY d          33.461  -5.375  17.883  0.00  0.00     0.088 H 
ATOM      9  C18 AGY d          34.015  -2.130  16.685  0.00  0.00    -0.018 A 
ATOM     10  C17 AGY d          32.617  -1.676  16.798  0.00  0.00    -0.073 A 
ATOM     11  C15 AGY d          31.588  -2.561  17.291  0.00  0.00    -0.067 A 
ATOM     12  H13 AGY d          32.358  -0.664  16.507  0.00  0.00     0.084 H 
ATOM     13  H12 AGY d          30.567  -2.205  17.367  0.00  0.00     0.085 H 
BRANCH   7  14
ATOM     14  N4  AGY d          35.493  -4.045  16.996  0.00  0.00    -0.115 N 
ATOM     15  O3  AGY d          35.786  -4.777  15.958  0.00  0.00    -0.532 OA
ATOM     16  O4  AGY d          36.437  -3.826  17.992  0.00  0.00    -0.532 OA
ENDBRANCH   7  14
BRANCH   9  17
ATOM     17  C19 AGY d          35.077  -1.139  16.147  0.00  0.00    -0.022 C 
BRANCH  17  18
ATOM     18  C20 AGY d          36.036  -0.595  17.233  0.00  0.00    -0.066 C 
ATOM     19  H14 AGY d          35.612  -0.792  18.229  0.00  0.00     0.028 H 
ATOM     20  H15 AGY d          36.167   0.488  17.098  0.00  0.00     0.028 H 
ATOM     21  H16 AGY d          37.012  -1.096  17.144  0.00  0.00     0.028 H 
ENDBRANCH  17  18
BRANCH  17  22
ATOM     22  C21 AGY d          36.177  -1.614  15.123  0.00  0.00    -0.066 C 
ATOM     23  H17 AGY d          35.789  -1.520  14.099  0.00  0.00     0.028 H 
ATOM     24  H18 AGY d          36.434  -2.664  15.323  0.00  0.00     0.028 H 
ATOM     25  H19 AGY d          37.075  -0.989  15.235  0.00  0.00     0.028 H 
ENDBRANCH  17  22
BRANCH  17  26
ATOM     26  C22 AGY d          34.308  -0.024  15.412  0.00  0.00    -0.066 C 
ATOM     27  H20 AGY d          35.015   0.582  14.825  0.00  0.00     0.028 H 
ATOM     28  H21 AGY d          33.800   0.617  16.149  0.00  0.00     0.028 H 
ATOM     29  H22 AGY d          33.563  -0.473  14.740  0.00  0.00     0.028 H 
ENDBRANCH  17  26
ENDBRANCH   9  17
ENDBRANCH   3   5
BRANCH   2  30
ATOM     30  N2  AGY d          30.063  -6.588  19.502  0.00  0.00    -0.248 N 
ATOM     31  C10 AGY d          29.398  -6.422  20.678  0.00  0.00     0.339 C 
ATOM     32  N1  AGY d          29.749  -5.431  21.550  0.00  0.00    -0.307 N 
ATOM     33  O1  AGY d          28.466  -7.200  20.921  0.00  0.00    -0.245 OA
ATOM     34  H1  AGY d          30.512  -4.858  21.249  0.00  0.00     0.170 HD
ATOM     35  H2  AGY d          29.771  -7.324  18.892  0.00  0.00     0.192 HD
BRANCH  32  36
ATOM     36  C2  AGY d          29.215  -5.093  22.791  0.00  0.00     0.047 A 
ATOM     37  C1  AGY d          28.020  -4.283  22.980  0.00  0.00     0.001 A 
ATOM     38  C3  AGY d          27.532  -3.979  24.360  0.00  0.00    -0.024 A 
ATOM     39  C4  AGY d          27.287  -3.761  21.849  0.00  0.00    -0.070 A 
ATOM     40  C6  AGY d          28.235  -4.479  25.515  0.00  0.00    -0.072 A 
ATOM     41  C7  AGY d          26.359  -3.185  24.539  0.00  0.00    -0.072 A 
ATOM     42  C9  AGY d          29.433  -5.290  25.322  0.00  0.00    -0.080 A 
ATOM     43  H6  AGY d          27.879  -4.257  26.514  0.00  0.00     0.084 H 
ATOM     44  C5  AGY d          29.909  -5.587  23.978  0.00  0.00    -0.056 A 
ATOM     45  H9  AGY d          29.970  -5.673  26.182  0.00  0.00     0.083 H 
ATOM     46  H5  AGY d          30.801  -6.190  23.855  0.00  0.00     0.086 H 
ATOM     47  C11 AGY d          25.639  -2.671  23.390  0.00  0.00    -0.082 A 
ATOM     48  H7  AGY d          26.006  -2.965  25.540  0.00  0.00     0.084 H 
ATOM     49  C8  AGY d          26.103  -2.959  22.051  0.00  0.00    -0.082 A 
ATOM     50  H10 AGY d          24.750  -2.068  23.536  0.00  0.00     0.083 H 
ATOM     51  H8  AGY d          25.560  -2.572  21.196  0.00  0.00     0.083 H 
ATOM     52  H4  AGY d          27.629  -3.973  20.843  0.00  0.00     0.084 H 
ENDBRANCH  32  36
ENDBRANCH   2  30
TORSDOF 8
ENDMDL
MODEL 7
REMARK VINA RESULT:      -5.8      2.024      2.874
REMARK  8 active torsions:
REMARK  status: ('A' for Active; 'I' for Inactive)
REMARK    1  A    between atoms: N1_2  and  C2_4 
REMARK       I    between atoms: C10_18  and  N1_2 
REMARK    2  A    between atoms: N3_8  and  N2_5 
REMARK       I    between atoms: N2_5  and  C10_18 
REMARK       I    between atoms: C12_20  and  N3_8 
REMARK    3  A    between atoms: C16_24  and  N4_11 
REMARK    4  A    between atoms: C13_21  and  C12_20 
REMARK    5  A    between atoms: C18_26  and  C19_27 
REMARK    6  A    between atoms: C19_27  and  C20_28 
REMARK    7  A    between atoms: C19_27  and  C21_29 
REMARK    8  A    between atoms: C19_27  and  C22_30 
ROOT
ATOM      1  O2  AGY d          29.864  -5.658  18.570  0.00  0.00    -0.266 OA
ATOM      2  N3  AGY d          29.349  -3.476  18.728  0.00  0.00    -0.262 N 
ATOM      3  C12 AGY d          29.444  -4.719  19.273  0.00  0.00     0.270 C 
ATOM      4  H3  AGY d          29.016  -2.689  19.246  0.00  0.00     0.190 HD
ENDROOT
BRANCH   3   5
ATOM      5  C13 AGY d          29.052  -4.950  20.662  0.00  0.00     0.036 A 
ATOM      6  C14 AGY d          27.896  -4.321  21.171  0.00  0.00    -0.035 A 
ATOM      7  C16 AGY d          27.463  -4.517  22.522  0.00  0.00     0.111 A 
ATOM      8  H11 AGY d          27.321  -3.670  20.522  0.00  0.00     0.088 H 
ATOM      9  C18 AGY d          28.222  -5.388  23.440  0.00  0.00    -0.018 A 
ATOM     10  C17 AGY d          29.424  -6.032  22.882  0.00  0.00    -0.073 A 
ATOM     11  C15 AGY d          29.819  -5.805  21.512  0.00  0.00    -0.067 A 
ATOM     12  H13 AGY d          30.021  -6.686  23.509  0.00  0.00     0.084 H 
ATOM     13  H12 AGY d          30.708  -6.288  21.123  0.00  0.00     0.085 H 
BRANCH   7  14
ATOM     14  N4  AGY d          26.344  -3.924  22.903  0.00  0.00    -0.115 N 
ATOM     15  O3  AGY d          26.367  -2.658  23.210  0.00  0.00    -0.532 OA
ATOM     16  O4  AGY d          25.161  -4.648  22.983  0.00  0.00    -0.532 OA
ENDBRANCH   7  14
BRANCH   9  17
ATOM     17  C19 AGY d          27.843  -5.670  24.915  0.00  0.00    -0.022 C 
BRANCH  17  18
ATOM     18  C20 AGY d          29.055  -5.985  25.825  0.00  0.00    -0.066 C 
ATOM     19  H14 AGY d          29.986  -5.720  25.302  0.00  0.00     0.028 H 
ATOM     20  H15 AGY d          29.063  -7.058  26.066  0.00  0.00     0.028 H 
ATOM     21  H16 AGY d          28.977  -5.401  26.754  0.00  0.00     0.028 H 
ENDBRANCH  17  18
BRANCH  17  22
ATOM     22  C21 AGY d          27.203  -4.545  25.812  0.00  0.00    -0.066 C 
ATOM     23  H17 AGY d          27.609  -4.613  26.832  0.00  0.00     0.028 H 
ATOM     24  H18 AGY d          26.112  -4.677  25.843  0.00  0.00     0.028 H 
ATOM     25  H19 AGY d          27.441  -3.558  25.389  0.00  0.00     0.028 H 
ENDBRANCH  17  22
BRANCH  17  26
ATOM     26  C22 AGY d          26.798  -6.802  24.894  0.00  0.00    -0.066 C 
ATOM     27  H20 AGY d          27.277  -7.737  24.566  0.00  0.00     0.028 H 
ATOM     28  H21 AGY d          25.989  -6.541  24.196  0.00  0.00     0.028 H 
ATOM     29  H22 AGY d          26.383  -6.937  25.904  0.00  0.00     0.028 H 
ENDBRANCH  17  26
ENDBRANCH   9  17
ENDBRANCH   3   5
BRANCH   2  30
ATOM     30  N2  AGY d          29.760  -3.373  17.356  0.00  0.00    -0.248 N 
ATOM     31  C10 AGY d          31.062  -3.405  16.959  0.00  0.00     0.339 C 
ATOM     32  N1  AGY d          32.070  -3.545  17.869  0.00  0.00    -0.307 N 
ATOM     33  O1  AGY d          31.291  -3.305  15.746  0.00  0.00    -0.245 OA
ATOM     34  H1  AGY d          31.770  -3.623  18.820  0.00  0.00     0.170 HD
ATOM     35  H2  AGY d          29.054  -3.272  16.656  0.00  0.00     0.192 HD
BRANCH  32  36
ATOM     36  C2  AGY d          33.450  -3.595  17.685  0.00  0.00     0.047 A 
ATOM     37  C1  AGY d          34.249  -4.808  17.778  0.00  0.00     0.001 A 
ATOM     38  C3  AGY d          35.727  -4.751  17.560  0.00  0.00    -0.024 A 
ATOM     39  C4  AGY d          33.638  -6.083  18.080  0.00  0.00    -0.070 A 
ATOM     40  C6  AGY d          36.377  -3.499  17.258  0.00  0.00    -0.072 A 
ATOM     41  C7  AGY d          36.506  -5.943  17.653  0.00  0.00    -0.072 A 
ATOM     42  C9  AGY d          35.573  -2.285  17.166  0.00  0.00    -0.080 A 
ATOM     43  H6  AGY d          37.449  -3.460  17.101  0.00  0.00     0.084 H 
ATOM     44  C5  AGY d          34.133  -2.341  17.377  0.00  0.00    -0.056 A 
ATOM     45  H9  AGY d          36.048  -1.338  16.938  0.00  0.00     0.083 H 
ATOM     46  H5  AGY d          33.552  -1.428  17.305  0.00  0.00     0.086 H 
ATOM     47  C11 AGY d          35.872  -7.211  17.958  0.00  0.00    -0.082 A 
ATOM     48  H7  AGY d          37.577  -5.900  17.495  0.00  0.00     0.084 H 
ATOM     49  C8  AGY d          34.443  -7.279  18.170  0.00  0.00    -0.082 A 
ATOM     50  H10 AGY d          36.471  -8.112  18.027  0.00  0.00     0.083 H 
ATOM     51  H8  AGY d          33.974  -8.230  18.397  0.00  0.00     0.083 H 
ATOM     52  H4  AGY d          32.568  -6.141  18.241  0.00  0.00     0.084 H 
ENDBRANCH  32  36
ENDBRANCH   2  30
TORSDOF 8
ENDMDL
