MODEL 1
REMARK VINA RESULT:      -8.7      0.000      0.000
REMARK  7 active torsions:
REMARK  status: ('A' for Active; 'I' for Inactive)
REMARK    1  A    between atoms: N1_1  and  S27_27 
REMARK    2  A    between atoms: C4_4  and  N7_7 
REMARK    3  A    between atoms: C11_11  and  C14_14 
REMARK    4  A    between atoms: C14_14  and  C16_16 
REMARK    5  A    between atoms: C21_21  and  O22_22 
REMARK    6  A    between atoms: O22_22  and  C23_23 
REMARK    7  A    between atoms: S27_27  and  C28_28 
ROOT
ATOM      1  N7  LIA d           2.591  29.130   6.278  0.00  0.00    -0.218 N 
ATOM      2  C8  LIA d           1.578  29.468   7.128  0.00  0.00     0.724 A 
ATOM      3  N9  LIA d           0.996  28.545   7.940  0.00  0.00    -0.074 NA
ATOM      4  C10 LIA d           0.043  28.897   8.747  0.00  0.00     0.038 A 
ATOM      5  C11 LIA d          -0.451  30.259   8.833  0.00  0.00     0.079 A 
ATOM      6  C12 LIA d           0.187  31.207   7.947  0.00  0.00     0.156 A 
ATOM      7  N13 LIA d           1.194  30.778   7.113  0.00  0.00    -0.045 NA
ATOM      8  N26 LIA d          -0.150  32.509   7.893  0.00  0.00    -0.383 N 
ATOM      9  H10 LIA d           2.838  29.696   5.454  0.00  0.00     0.178 HD
ATOM     10  H11 LIA d          -0.404  28.143   9.384  0.00  0.00     0.117 H 
ATOM     11  H17 LIA d           0.338  33.141   7.242  0.00  0.00     0.157 HD
ATOM     12  H18 LIA d          -0.896  32.874   8.502  0.00  0.00     0.157 HD
ENDROOT
BRANCH   1  13
ATOM     13  C4  LIA d           3.300  27.894   6.635  0.00  0.00     0.029 C 
ATOM     14  C3  LIA d           4.036  27.382   5.370  0.00  0.00    -0.034 C 
ATOM     15  C2  LIA d           4.927  26.168   5.708  0.00  0.00    -0.005 C 
ATOM     16  H3  LIA d           3.292  27.085   4.616  0.00  0.00     0.037 H 
ATOM     17  H4  LIA d           4.664  28.190   4.966  0.00  0.00     0.037 H 
ATOM     18  N1  LIA d           5.911  26.552   6.758  0.00  0.00    -0.211 NA
ATOM     19  H1  LIA d           4.298  25.345   6.078  0.00  0.00     0.057 H 
ATOM     20  H2  LIA d           5.463  25.843   4.805  0.00  0.00     0.057 H 
ATOM     21  C6  LIA d           5.208  26.895   8.030  0.00  0.00    -0.005 C 
ATOM     22  C5  LIA d           4.319  28.136   7.802  0.00  0.00    -0.034 C 
ATOM     23  H8  LIA d           5.950  27.114   8.812  0.00  0.00     0.057 H 
ATOM     24  H9  LIA d           4.582  26.048   8.345  0.00  0.00     0.057 H 
ATOM     25  H6  LIA d           3.763  28.354   8.726  0.00  0.00     0.037 H 
ATOM     26  H7  LIA d           4.959  28.995   7.548  0.00  0.00     0.037 H 
ATOM     27  H5  LIA d           2.568  27.140   6.959  0.00  0.00     0.073 H 
BRANCH  18  28
ATOM     28  S27 LIA d           7.044  25.311   7.003  0.00  0.00     0.207 S 
ATOM     29  O29 LIA d           7.690  25.549   8.274  0.00  0.00    -0.212 OA
ATOM     30  O30 LIA d           8.022  25.362   5.950  0.00  0.00    -0.212 OA
BRANCH  28  31
ATOM     31  C28 LIA d           6.271  23.655   7.044  0.00  0.00     0.028 C 
ATOM     32  H19 LIA d           5.765  23.511   8.010  0.00  0.00     0.050 H 
ATOM     33  H20 LIA d           7.047  22.886   6.919  0.00  0.00     0.050 H 
ATOM     34  H21 LIA d           5.537  23.572   6.230  0.00  0.00     0.050 H 
ENDBRANCH  28  31
ENDBRANCH  18  28
ENDBRANCH   1  13
BRANCH   5  35
ATOM     35  C14 LIA d          -1.513  30.590   9.771  0.00  0.00     0.203 C 
ATOM     36  O15 LIA d          -1.642  31.751  10.198  0.00  0.00    -0.286 OA
BRANCH  35  37
ATOM     37  C16 LIA d          -2.428  29.580  10.252  0.00  0.00     0.090 A 
ATOM     38  C17 LIA d          -2.002  28.677  11.290  0.00  0.00     0.171 A 
ATOM     39  C18 LIA d          -2.893  27.676  11.790  0.00  0.00     0.156 A 
ATOM     40  F24 LIA d          -0.777  28.755  11.801  0.00  0.00    -0.202 F 
ATOM     41  C19 LIA d          -4.216  27.557  11.270  0.00  0.00    -0.040 A 
ATOM     42  F25 LIA d          -2.495  26.853  12.742  0.00  0.00    -0.203 F 
ATOM     43  C20 LIA d          -4.661  28.435  10.241  0.00  0.00    -0.047 A 
ATOM     44  H12 LIA d          -4.884  26.798  11.660  0.00  0.00     0.088 H 
ATOM     45  C21 LIA d          -3.786  29.460   9.710  0.00  0.00     0.085 A 
ATOM     46  H13 LIA d          -5.667  28.334   9.851  0.00  0.00     0.087 H 
BRANCH  45  47
ATOM     47  O22 LIA d          -4.186  30.347   8.686  0.00  0.00    -0.355 OA
BRANCH  47  48
ATOM     48  C23 LIA d          -4.235  29.724   7.379  0.00  0.00     0.010 C 
ATOM     49  H14 LIA d          -3.867  28.690   7.451  0.00  0.00     0.066 H 
ATOM     50  H15 LIA d          -3.603  30.289   6.678  0.00  0.00     0.066 H 
ATOM     51  H16 LIA d          -5.273  29.719   7.014  0.00  0.00     0.066 H 
ENDBRANCH  47  48
ENDBRANCH  45  47
ENDBRANCH  35  37
ENDBRANCH   5  35
TORSDOF 7
ENDMDL
MODEL 2
REMARK VINA RESULT:      -7.7      3.974      5.504
REMARK  7 active torsions:
REMARK  status: ('A' for Active; 'I' for Inactive)
REMARK    1  A    between atoms: N1_1  and  S27_27 
REMARK    2  A    between atoms: C4_4  and  N7_7 
REMARK    3  A    between atoms: C11_11  and  C14_14 
REMARK    4  A    between atoms: C14_14  and  C16_16 
REMARK    5  A    between atoms: C21_21  and  O22_22 
REMARK    6  A    between atoms: O22_22  and  C23_23 
REMARK    7  A    between atoms: S27_27  and  C28_28 
ROOT
ATOM      1  N7  LIA d          -1.213  24.300  12.538  0.00  0.00    -0.218 N 
ATOM      2  C8  LIA d          -1.730  25.393  11.907  0.00  0.00     0.724 A 
ATOM      3  N9  LIA d          -0.977  26.145  11.060  0.00  0.00    -0.074 NA
ATOM      4  C10 LIA d          -1.499  27.173  10.463  0.00  0.00     0.038 A 
ATOM      5  C11 LIA d          -2.880  27.575  10.656  0.00  0.00     0.079 A 
ATOM      6  C12 LIA d          -3.643  26.756  11.571  0.00  0.00     0.156 A 
ATOM      7  N13 LIA d          -3.038  25.678  12.174  0.00  0.00    -0.045 NA
ATOM      8  N26 LIA d          -4.935  26.989  11.868  0.00  0.00    -0.383 N 
ATOM      9  H10 LIA d          -1.628  23.902  13.393  0.00  0.00     0.178 HD
ATOM     10  H11 LIA d          -0.878  27.755   9.793  0.00  0.00     0.117 H 
ATOM     11  H17 LIA d          -5.432  26.372  12.527  0.00  0.00     0.157 HD
ATOM     12  H18 LIA d          -5.428  27.784  11.436  0.00  0.00     0.157 HD
ENDROOT
BRANCH   1  13
ATOM     13  C4  LIA d          -0.016  23.736  11.901  0.00  0.00     0.029 C 
ATOM     14  C3  LIA d          -0.323  23.539  10.394  0.00  0.00    -0.034 C 
ATOM     15  C2  LIA d           0.942  23.091   9.632  0.00  0.00    -0.005 C 
ATOM     16  H3  LIA d          -1.102  22.771  10.282  0.00  0.00     0.037 H 
ATOM     17  H4  LIA d          -0.681  24.490   9.972  0.00  0.00     0.037 H 
ATOM     18  N1  LIA d           2.017  24.107   9.811  0.00  0.00    -0.211 NA
ATOM     19  H1  LIA d           1.284  22.123  10.026  0.00  0.00     0.057 H 
ATOM     20  H2  LIA d           0.709  22.990   8.562  0.00  0.00     0.057 H 
ATOM     21  C6  LIA d           2.425  24.185  11.246  0.00  0.00    -0.005 C 
ATOM     22  C5  LIA d           1.228  24.673  12.090  0.00  0.00    -0.034 C 
ATOM     23  H8  LIA d           3.261  24.891  11.353  0.00  0.00     0.057 H 
ATOM     24  H9  LIA d           2.738  23.190  11.594  0.00  0.00     0.057 H 
ATOM     25  H6  LIA d           1.516  24.678  13.152  0.00  0.00     0.037 H 
ATOM     26  H7  LIA d           0.960  25.693  11.778  0.00  0.00     0.037 H 
ATOM     27  H5  LIA d           0.208  22.760  12.356  0.00  0.00     0.073 H 
BRANCH  18  28
ATOM     28  S27 LIA d           3.347  23.758   8.817  0.00  0.00     0.207 S 
ATOM     29  O29 LIA d           2.886  22.898   7.750  0.00  0.00    -0.212 OA
ATOM     30  O30 LIA d           4.340  23.068   9.595  0.00  0.00    -0.212 OA
BRANCH  28  31
ATOM     31  C28 LIA d           4.082  25.259   8.076  0.00  0.00     0.028 C 
ATOM     32  H19 LIA d           5.030  25.492   8.582  0.00  0.00     0.050 H 
ATOM     33  H20 LIA d           3.387  26.104   8.194  0.00  0.00     0.050 H 
ATOM     34  H21 LIA d           4.270  25.085   7.007  0.00  0.00     0.050 H 
ENDBRANCH  28  31
ENDBRANCH  18  28
ENDBRANCH   1  13
BRANCH   5  35
ATOM     35  C14 LIA d          -3.407  28.729   9.943  0.00  0.00     0.203 C 
ATOM     36  O15 LIA d          -4.483  28.655   9.325  0.00  0.00    -0.286 OA
BRANCH  35  37
ATOM     37  C16 LIA d          -2.687  29.983   9.913  0.00  0.00     0.090 A 
ATOM     38  C17 LIA d          -3.069  31.040  10.814  0.00  0.00     0.171 A 
ATOM     39  C18 LIA d          -2.366  32.284  10.810  0.00  0.00     0.156 A 
ATOM     40  F24 LIA d          -4.082  30.880  11.661  0.00  0.00    -0.202 F 
ATOM     41  C19 LIA d          -1.274  32.498   9.918  0.00  0.00    -0.040 A 
ATOM     42  F25 LIA d          -2.722  33.247  11.639  0.00  0.00    -0.203 F 
ATOM     43  C20 LIA d          -0.878  31.472   9.015  0.00  0.00    -0.047 A 
ATOM     44  H12 LIA d          -0.745  33.444   9.927  0.00  0.00     0.088 H 
ATOM     45  C21 LIA d          -1.568  30.198   8.990  0.00  0.00     0.085 A 
ATOM     46  H13 LIA d          -0.049  31.645   8.338  0.00  0.00     0.087 H 
BRANCH  45  47
ATOM     47  O22 LIA d          -1.210  29.155   8.107  0.00  0.00    -0.355 OA
BRANCH  47  48
ATOM     48  C23 LIA d           0.176  29.214   7.686  0.00  0.00     0.010 C 
ATOM     49  H14 LIA d           0.619  28.209   7.738  0.00  0.00     0.066 H 
ATOM     50  H15 LIA d           0.732  29.894   8.348  0.00  0.00     0.066 H 
ATOM     51  H16 LIA d           0.229  29.585   6.652  0.00  0.00     0.066 H 
ENDBRANCH  47  48
ENDBRANCH  45  47
ENDBRANCH  35  37
ENDBRANCH   5  35
TORSDOF 7
ENDMDL
MODEL 3
REMARK VINA RESULT:      -7.4      2.753      3.955
REMARK  7 active torsions:
REMARK  status: ('A' for Active; 'I' for Inactive)
REMARK    1  A    between atoms: N1_1  and  S27_27 
REMARK    2  A    between atoms: C4_4  and  N7_7 
REMARK    3  A    between atoms: C11_11  and  C14_14 
REMARK    4  A    between atoms: C14_14  and  C16_16 
REMARK    5  A    between atoms: C21_21  and  O22_22 
REMARK    6  A    between atoms: O22_22  and  C23_23 
REMARK    7  A    between atoms: S27_27  and  C28_28 
ROOT
ATOM      1  N7  LIA d           3.070  24.330   9.844  0.00  0.00    -0.218 N 
ATOM      2  C8  LIA d           2.295  25.390  10.214  0.00  0.00     0.724 A 
ATOM      3  N9  LIA d           2.232  26.521   9.459  0.00  0.00    -0.074 NA
ATOM      4  C10 LIA d           1.477  27.509   9.830  0.00  0.00     0.038 A 
ATOM      5  C11 LIA d           0.674  27.474  11.038  0.00  0.00     0.079 A 
ATOM      6  C12 LIA d           0.776  26.260  11.816  0.00  0.00     0.156 A 
ATOM      7  N13 LIA d           1.592  25.244  11.375  0.00  0.00    -0.045 NA
ATOM      8  N26 LIA d           0.104  26.061  12.965  0.00  0.00    -0.383 N 
ATOM      9  H10 LIA d           3.384  23.611  10.511  0.00  0.00     0.178 HD
ATOM     10  H11 LIA d           1.445  28.398   9.210  0.00  0.00     0.117 H 
ATOM     11  H17 LIA d           0.214  25.176  13.480  0.00  0.00     0.157 HD
ATOM     12  H18 LIA d          -0.520  26.795  13.330  0.00  0.00     0.157 HD
ENDROOT
BRANCH   1  13
ATOM     13  C4  LIA d           3.419  24.297   8.417  0.00  0.00     0.029 C 
ATOM     14  C3  LIA d           4.456  25.419   8.152  0.00  0.00    -0.034 C 
ATOM     15  C2  LIA d           4.984  25.345   6.703  0.00  0.00    -0.005 C 
ATOM     16  H3  LIA d           3.979  26.397   8.313  0.00  0.00     0.037 H 
ATOM     17  H4  LIA d           5.299  25.303   8.849  0.00  0.00     0.037 H 
ATOM     18  N1  LIA d           5.596  24.009   6.465  0.00  0.00    -0.211 NA
ATOM     19  H1  LIA d           4.150  25.497   6.002  0.00  0.00     0.057 H 
ATOM     20  H2  LIA d           5.740  26.128   6.548  0.00  0.00     0.057 H 
ATOM     21  C6  LIA d           4.562  22.936   6.566  0.00  0.00    -0.005 C 
ATOM     22  C5  LIA d           4.002  22.901   8.004  0.00  0.00    -0.034 C 
ATOM     23  H8  LIA d           5.015  21.964   6.324  0.00  0.00     0.057 H 
ATOM     24  H9  LIA d           3.745  23.145   5.859  0.00  0.00     0.057 H 
ATOM     25  H6  LIA d           3.204  22.147   8.060  0.00  0.00     0.037 H 
ATOM     26  H7  LIA d           4.812  22.631   8.698  0.00  0.00     0.037 H 
ATOM     27  H5  LIA d           2.515  24.490   7.821  0.00  0.00     0.073 H 
BRANCH  18  28
ATOM     28  S27 LIA d           6.376  23.965   4.958  0.00  0.00     0.207 S 
ATOM     29  O29 LIA d           5.513  23.260   4.036  0.00  0.00    -0.212 OA
ATOM     30  O30 LIA d           7.615  23.251   5.096  0.00  0.00    -0.212 OA
BRANCH  28  31
ATOM     31  C28 LIA d           6.701  25.634   4.288  0.00  0.00     0.028 C 
ATOM     32  H19 LIA d           5.757  26.080   3.939  0.00  0.00     0.050 H 
ATOM     33  H20 LIA d           7.405  25.561   3.446  0.00  0.00     0.050 H 
ATOM     34  H21 LIA d           7.135  26.267   5.076  0.00  0.00     0.050 H 
ENDBRANCH  28  31
ENDBRANCH  18  28
ENDBRANCH   1  13
BRANCH   5  35
ATOM     35  C14 LIA d          -0.163  28.612  11.387  0.00  0.00     0.203 C 
ATOM     36  O15 LIA d           0.206  29.430  12.247  0.00  0.00    -0.286 OA
BRANCH  35  37
ATOM     37  C16 LIA d          -1.454  28.809  10.766  0.00  0.00     0.090 A 
ATOM     38  C17 LIA d          -2.601  28.108  11.283  0.00  0.00     0.171 A 
ATOM     39  C18 LIA d          -3.890  28.295  10.693  0.00  0.00     0.156 A 
ATOM     40  F24 LIA d          -2.484  27.276  12.313  0.00  0.00    -0.202 F 
ATOM     41  C19 LIA d          -4.060  29.178   9.586  0.00  0.00    -0.040 A 
ATOM     42  F25 LIA d          -4.936  27.650  11.173  0.00  0.00    -0.203 F 
ATOM     43  C20 LIA d          -2.942  29.880   9.054  0.00  0.00    -0.047 A 
ATOM     44  H12 LIA d          -5.043  29.315   9.149  0.00  0.00     0.088 H 
ATOM     45  C21 LIA d          -1.621  29.715   9.625  0.00  0.00     0.085 A 
ATOM     46  H13 LIA d          -3.082  30.547   8.210  0.00  0.00     0.087 H 
BRANCH  45  47
ATOM     47  O22 LIA d          -0.485  30.389   9.125  0.00  0.00    -0.355 OA
BRANCH  47  48
ATOM     48  C23 LIA d          -0.729  31.791   8.849  0.00  0.00     0.010 C 
ATOM     49  H14 LIA d           0.175  32.242   8.413  0.00  0.00     0.066 H 
ATOM     50  H15 LIA d          -0.982  32.310   9.785  0.00  0.00     0.066 H 
ATOM     51  H16 LIA d          -1.565  31.886   8.141  0.00  0.00     0.066 H 
ENDBRANCH  47  48
ENDBRANCH  45  47
ENDBRANCH  35  37
ENDBRANCH   5  35
TORSDOF 7
ENDMDL
MODEL 4
REMARK VINA RESULT:      -6.7      4.392      8.767
REMARK  7 active torsions:
REMARK  status: ('A' for Active; 'I' for Inactive)
REMARK    1  A    between atoms: N1_1  and  S27_27 
REMARK    2  A    between atoms: C4_4  and  N7_7 
REMARK    3  A    between atoms: C11_11  and  C14_14 
REMARK    4  A    between atoms: C14_14  and  C16_16 
REMARK    5  A    between atoms: C21_21  and  O22_22 
REMARK    6  A    between atoms: O22_22  and  C23_23 
REMARK    7  A    between atoms: S27_27  and  C28_28 
ROOT
ATOM      1  N7  LIA d           0.422  28.627  10.140  0.00  0.00    -0.218 N 
ATOM      2  C8  LIA d           1.338  28.274   9.193  0.00  0.00     0.724 A 
ATOM      3  N9  LIA d           2.007  27.091   9.260  0.00  0.00    -0.074 NA
ATOM      4  C10 LIA d           2.865  26.775   8.339  0.00  0.00     0.038 A 
ATOM      5  C11 LIA d           3.159  27.639   7.211  0.00  0.00     0.079 A 
ATOM      6  C12 LIA d           2.435  28.891   7.182  0.00  0.00     0.156 A 
ATOM      7  N13 LIA d           1.537  29.172   8.185  0.00  0.00    -0.045 NA
ATOM      8  N26 LIA d           2.590  29.810   6.211  0.00  0.00    -0.383 N 
ATOM      9  H10 LIA d           0.135  29.604  10.300  0.00  0.00     0.178 HD
ATOM     10  H11 LIA d           3.383  25.827   8.416  0.00  0.00     0.117 H 
ATOM     11  H17 LIA d           2.048  30.686   6.240  0.00  0.00     0.157 HD
ATOM     12  H18 LIA d           3.250  29.638   5.439  0.00  0.00     0.157 HD
ENDROOT
BRANCH   1  13
ATOM     13  C4  LIA d          -0.124  27.503  10.912  0.00  0.00     0.029 C 
ATOM     14  C3  LIA d          -1.432  27.980  11.594  0.00  0.00    -0.034 C 
ATOM     15  C2  LIA d          -2.141  26.805  12.300  0.00  0.00    -0.005 C 
ATOM     16  H3  LIA d          -1.189  28.754  12.337  0.00  0.00     0.037 H 
ATOM     17  H4  LIA d          -2.103  28.401  10.832  0.00  0.00     0.037 H 
ATOM     18  N1  LIA d          -2.437  25.734  11.308  0.00  0.00    -0.211 NA
ATOM     19  H1  LIA d          -1.487  26.403  13.088  0.00  0.00     0.057 H 
ATOM     20  H2  LIA d          -3.080  27.159  12.748  0.00  0.00     0.057 H 
ATOM     21  C6  LIA d          -1.169  25.163  10.763  0.00  0.00    -0.005 C 
ATOM     22  C5  LIA d          -0.404  26.262   9.994  0.00  0.00    -0.034 C 
ATOM     23  H8  LIA d          -1.402  24.333  10.082  0.00  0.00     0.057 H 
ATOM     24  H9  LIA d          -0.546  24.794  11.592  0.00  0.00     0.057 H 
ATOM     25  H6  LIA d           0.554  25.852   9.641  0.00  0.00     0.037 H 
ATOM     26  H7  LIA d          -1.007  26.582   9.132  0.00  0.00     0.037 H 
ATOM     27  H5  LIA d           0.603  27.211  11.684  0.00  0.00     0.073 H 
BRANCH  18  28
ATOM     28  S27 LIA d          -3.404  24.523  12.000  0.00  0.00     0.207 S 
ATOM     29  O29 LIA d          -4.193  23.932  10.943  0.00  0.00    -0.212 OA
ATOM     30  O30 LIA d          -4.276  25.124  12.972  0.00  0.00    -0.212 OA
BRANCH  28  31
ATOM     31  C28 LIA d          -2.416  23.206  12.793  0.00  0.00     0.028 C 
ATOM     32  H19 LIA d          -1.418  23.595  13.044  0.00  0.00     0.050 H 
ATOM     33  H20 LIA d          -2.313  22.357  12.101  0.00  0.00     0.050 H 
ATOM     34  H21 LIA d          -2.920  22.871  13.712  0.00  0.00     0.050 H 
ENDBRANCH  28  31
ENDBRANCH  18  28
ENDBRANCH   1  13
BRANCH   5  35
ATOM     35  C14 LIA d           4.122  27.217   6.204  0.00  0.00     0.203 C 
ATOM     36  O15 LIA d           4.176  27.788   5.101  0.00  0.00    -0.286 OA
BRANCH  35  37
ATOM     37  C16 LIA d           5.022  26.112   6.446  0.00  0.00     0.090 A 
ATOM     38  C17 LIA d           5.936  26.175   7.558  0.00  0.00     0.171 A 
ATOM     39  C18 LIA d           6.828  25.090   7.824  0.00  0.00     0.156 A 
ATOM     40  F24 LIA d           5.969  27.240   8.353  0.00  0.00    -0.202 F 
ATOM     41  C19 LIA d           6.826  23.929   6.996  0.00  0.00    -0.040 A 
ATOM     42  F25 LIA d           7.662  25.156   8.845  0.00  0.00    -0.203 F 
ATOM     43  C20 LIA d           5.936  23.843   5.889  0.00  0.00    -0.047 A 
ATOM     44  H12 LIA d           7.504  23.111   7.210  0.00  0.00     0.088 H 
ATOM     45  C21 LIA d           5.018  24.923   5.588  0.00  0.00     0.085 A 
ATOM     46  H13 LIA d           5.944  22.958   5.263  0.00  0.00     0.087 H 
BRANCH  45  47
ATOM     47  O22 LIA d           4.122  24.879   4.497  0.00  0.00    -0.355 OA
BRANCH  47  48
ATOM     48  C23 LIA d           3.877  23.535   4.013  0.00  0.00     0.010 C 
ATOM     49  H14 LIA d           2.795  23.377   3.899  0.00  0.00     0.066 H 
ATOM     50  H15 LIA d           4.279  22.807   4.732  0.00  0.00     0.066 H 
ATOM     51  H16 LIA d           4.373  23.400   3.040  0.00  0.00     0.066 H 
ENDBRANCH  47  48
ENDBRANCH  45  47
ENDBRANCH  35  37
ENDBRANCH   5  35
TORSDOF 7
ENDMDL
MODEL 5
REMARK VINA RESULT:      -6.6      2.775      4.176
REMARK  7 active torsions:
REMARK  status: ('A' for Active; 'I' for Inactive)
REMARK    1  A    between atoms: N1_1  and  S27_27 
REMARK    2  A    between atoms: C4_4  and  N7_7 
REMARK    3  A    between atoms: C11_11  and  C14_14 
REMARK    4  A    between atoms: C14_14  and  C16_16 
REMARK    5  A    between atoms: C21_21  and  O22_22 
REMARK    6  A    between atoms: O22_22  and  C23_23 
REMARK    7  A    between atoms: S27_27  and  C28_28 
ROOT
ATOM      1  N7  LIA d           2.868  24.983  10.031  0.00  0.00    -0.218 N 
ATOM      2  C8  LIA d           1.754  25.769  10.001  0.00  0.00     0.724 A 
ATOM      3  N9  LIA d           1.401  26.458   8.882  0.00  0.00    -0.074 NA
ATOM      4  C10 LIA d           0.329  27.188   8.878  0.00  0.00     0.038 A 
ATOM      5  C11 LIA d          -0.539  27.315  10.034  0.00  0.00     0.079 A 
ATOM      6  C12 LIA d          -0.125  26.576  11.206  0.00  0.00     0.156 A 
ATOM      7  N13 LIA d           1.021  25.816  11.152  0.00  0.00    -0.045 NA
ATOM      8  N26 LIA d          -0.810  26.585  12.364  0.00  0.00    -0.383 N 
ATOM      9  H10 LIA d           3.330  24.706  10.909  0.00  0.00     0.178 HD
ATOM     10  H11 LIA d           0.071  27.726   7.973  0.00  0.00     0.117 H 
ATOM     11  H17 LIA d          -0.469  26.039  13.169  0.00  0.00     0.157 HD
ATOM     12  H18 LIA d          -1.675  27.137  12.446  0.00  0.00     0.157 HD
ENDROOT
BRANCH   1  13
ATOM     13  C4  LIA d           3.355  24.563   8.711  0.00  0.00     0.029 C 
ATOM     14  C3  LIA d           4.284  25.679   8.166  0.00  0.00    -0.034 C 
ATOM     15  C2  LIA d           4.954  25.237   6.847  0.00  0.00    -0.005 C 
ATOM     16  H3  LIA d           3.689  26.585   7.982  0.00  0.00     0.037 H 
ATOM     17  H4  LIA d           5.063  25.896   8.911  0.00  0.00     0.037 H 
ATOM     18  N1  LIA d           5.730  23.987   7.078  0.00  0.00    -0.211 NA
ATOM     19  H1  LIA d           4.180  25.054   6.087  0.00  0.00     0.057 H 
ATOM     20  H2  LIA d           5.632  26.029   6.497  0.00  0.00     0.057 H 
ATOM     21  C6  LIA d           4.814  22.868   7.452  0.00  0.00    -0.005 C 
ATOM     22  C5  LIA d           4.125  23.199   8.793  0.00  0.00    -0.034 C 
ATOM     23  H8  LIA d           5.393  21.938   7.556  0.00  0.00     0.057 H 
ATOM     24  H9  LIA d           4.051  22.739   6.669  0.00  0.00     0.057 H 
ATOM     25  H6  LIA d           3.412  22.398   9.038  0.00  0.00     0.037 H 
ATOM     26  H7  LIA d           4.889  23.265   9.582  0.00  0.00     0.037 H 
ATOM     27  H5  LIA d           2.498  24.441   8.033  0.00  0.00     0.073 H 
BRANCH  18  28
ATOM     28  S27 LIA d           6.651  23.590   5.709  0.00  0.00     0.207 S 
ATOM     29  O29 LIA d           5.817  22.801   4.830  0.00  0.00    -0.212 OA
ATOM     30  O30 LIA d           7.785  22.808   6.123  0.00  0.00    -0.212 OA
BRANCH  28  31
ATOM     31  C28 LIA d           7.224  25.067   4.797  0.00  0.00     0.028 C 
ATOM     32  H19 LIA d           8.322  25.065   4.749  0.00  0.00     0.050 H 
ATOM     33  H20 LIA d           6.881  25.974   5.316  0.00  0.00     0.050 H 
ATOM     34  H21 LIA d           6.812  25.050   3.777  0.00  0.00     0.050 H 
ENDBRANCH  28  31
ENDBRANCH  18  28
ENDBRANCH   1  13
BRANCH   5  35
ATOM     35  C14 LIA d          -1.736  28.140   9.957  0.00  0.00     0.203 C 
ATOM     36  O15 LIA d          -2.865  27.621   9.983  0.00  0.00    -0.286 OA
BRANCH  35  37
ATOM     37  C16 LIA d          -1.647  29.576   9.824  0.00  0.00     0.090 A 
ATOM     38  C17 LIA d          -2.285  30.418  10.804  0.00  0.00     0.171 A 
ATOM     39  C18 LIA d          -2.202  31.841  10.700  0.00  0.00     0.156 A 
ATOM     40  F24 LIA d          -2.961  29.889  11.819  0.00  0.00    -0.202 F 
ATOM     41  C19 LIA d          -1.487  32.450   9.627  0.00  0.00    -0.040 A 
ATOM     42  F25 LIA d          -2.789  32.605  11.603  0.00  0.00    -0.203 F 
ATOM     43  C20 LIA d          -0.851  31.642   8.643  0.00  0.00    -0.047 A 
ATOM     44  H12 LIA d          -1.428  33.531   9.561  0.00  0.00     0.088 H 
ATOM     45  C21 LIA d          -0.914  30.197   8.716  0.00  0.00     0.085 A 
ATOM     46  H13 LIA d          -0.313  32.115   7.829  0.00  0.00     0.087 H 
BRANCH  45  47
ATOM     47  O22 LIA d          -0.302  29.358   7.757  0.00  0.00    -0.355 OA
BRANCH  47  48
ATOM     48  C23 LIA d           0.918  29.917   7.208  0.00  0.00     0.010 C 
ATOM     49  H14 LIA d           0.923  29.784   6.116  0.00  0.00     0.066 H 
ATOM     50  H15 LIA d           1.786  29.400   7.643  0.00  0.00     0.066 H 
ATOM     51  H16 LIA d           0.971  30.988   7.448  0.00  0.00     0.066 H 
ENDBRANCH  47  48
ENDBRANCH  45  47
ENDBRANCH  35  37
ENDBRANCH   5  35
TORSDOF 7
ENDMDL
MODEL 6
REMARK VINA RESULT:      -6.5      3.994      8.841
REMARK  7 active torsions:
REMARK  status: ('A' for Active; 'I' for Inactive)
REMARK    1  A    between atoms: N1_1  and  S27_27 
REMARK    2  A    between atoms: C4_4  and  N7_7 
REMARK    3  A    between atoms: C11_11  and  C14_14 
REMARK    4  A    between atoms: C14_14  and  C16_16 
REMARK    5  A    between atoms: C21_21  and  O22_22 
REMARK    6  A    between atoms: O22_22  and  C23_23 
REMARK    7  A    between atoms: S27_27  and  C28_28 
ROOT
ATOM      1  N7  LIA d          -0.597  25.835  12.251  0.00  0.00    -0.218 N 
ATOM      2  C8  LIA d           0.416  25.488  11.407  0.00  0.00     0.724 A 
ATOM      3  N9  LIA d           0.503  26.006  10.151  0.00  0.00    -0.074 NA
ATOM      4  C10 LIA d           1.485  25.667   9.374  0.00  0.00     0.038 A 
ATOM      5  C11 LIA d           2.524  24.739   9.780  0.00  0.00     0.079 A 
ATOM      6  C12 LIA d           2.391  24.204  11.117  0.00  0.00     0.156 A 
ATOM      7  N13 LIA d           1.329  24.600  11.897  0.00  0.00    -0.045 NA
ATOM      8  N26 LIA d           3.262  23.329  11.651  0.00  0.00    -0.383 N 
ATOM      9  H10 LIA d          -0.872  25.257  13.058  0.00  0.00     0.178 HD
ATOM     10  H11 LIA d           1.531  26.095   8.379  0.00  0.00     0.117 H 
ATOM     11  H17 LIA d           3.119  22.979  12.610  0.00  0.00     0.157 HD
ATOM     12  H18 LIA d           4.073  23.009  11.102  0.00  0.00     0.157 HD
ENDROOT
BRANCH   1  13
ATOM     13  C4  LIA d          -1.265  27.100  11.917  0.00  0.00     0.029 C 
ATOM     14  C3  LIA d          -0.202  28.229  11.962  0.00  0.00    -0.034 C 
ATOM     15  C2  LIA d          -0.802  29.564  11.472  0.00  0.00    -0.005 C 
ATOM     16  H3  LIA d           0.151  28.350  12.996  0.00  0.00     0.037 H 
ATOM     17  H4  LIA d           0.643  27.954  11.315  0.00  0.00     0.037 H 
ATOM     18  N1  LIA d          -1.320  29.398  10.086  0.00  0.00    -0.211 NA
ATOM     19  H1  LIA d          -1.625  29.862  12.138  0.00  0.00     0.057 H 
ATOM     20  H2  LIA d          -0.023  30.341  11.482  0.00  0.00     0.057 H 
ATOM     21  C6  LIA d          -2.452  28.424  10.066  0.00  0.00    -0.005 C 
ATOM     22  C5  LIA d          -1.937  27.035  10.501  0.00  0.00    -0.034 C 
ATOM     23  H8  LIA d          -2.865  28.360   9.049  0.00  0.00     0.057 H 
ATOM     24  H9  LIA d          -3.237  28.758  10.760  0.00  0.00     0.057 H 
ATOM     25  H6  LIA d          -2.784  26.334  10.537  0.00  0.00     0.037 H 
ATOM     26  H7  LIA d          -1.197  26.680   9.768  0.00  0.00     0.037 H 
ATOM     27  H5  LIA d          -2.044  27.305  12.666  0.00  0.00     0.073 H 
BRANCH  18  28
ATOM     28  S27 LIA d          -1.790  30.894   9.436  0.00  0.00     0.207 S 
ATOM     29  O29 LIA d          -2.907  30.657   8.549  0.00  0.00    -0.212 OA
ATOM     30  O30 LIA d          -0.691  31.442   8.688  0.00  0.00    -0.212 OA
BRANCH  28  31
ATOM     31  C28 LIA d          -2.312  32.083  10.722  0.00  0.00     0.028 C 
ATOM     32  H19 LIA d          -3.357  32.378  10.547  0.00  0.00     0.050 H 
ATOM     33  H20 LIA d          -1.668  32.975  10.680  0.00  0.00     0.050 H 
ATOM     34  H21 LIA d          -2.225  31.614  11.713  0.00  0.00     0.050 H 
ENDBRANCH  28  31
ENDBRANCH  18  28
ENDBRANCH   1  13
BRANCH   5  35
ATOM     35  C14 LIA d           3.607  24.414   8.864  0.00  0.00     0.203 C 
ATOM     36  O15 LIA d           4.176  23.310   8.922  0.00  0.00    -0.286 OA
BRANCH  35  37
ATOM     37  C16 LIA d           4.067  25.369   7.880  0.00  0.00     0.090 A 
ATOM     38  C17 LIA d           4.370  26.716   8.290  0.00  0.00     0.171 A 
ATOM     39  C18 LIA d           4.837  27.674   7.338  0.00  0.00     0.156 A 
ATOM     40  F24 LIA d           4.220  27.092   9.556  0.00  0.00    -0.202 F 
ATOM     41  C19 LIA d           5.011  27.313   5.970  0.00  0.00    -0.040 A 
ATOM     42  F25 LIA d           5.113  28.907   7.722  0.00  0.00    -0.203 F 
ATOM     43  C20 LIA d           4.716  25.990   5.537  0.00  0.00    -0.047 A 
ATOM     44  H12 LIA d           5.370  28.047   5.257  0.00  0.00     0.088 H 
ATOM     45  C21 LIA d           4.240  24.992   6.473  0.00  0.00     0.085 A 
ATOM     46  H13 LIA d           4.849  25.725   4.494  0.00  0.00     0.087 H 
BRANCH  45  47
ATOM     47  O22 LIA d           3.931  23.669   6.085  0.00  0.00    -0.355 OA
BRANCH  47  48
ATOM     48  C23 LIA d           4.063  23.448   4.658  0.00  0.00     0.010 C 
ATOM     49  H14 LIA d           3.133  23.747   4.153  0.00  0.00     0.066 H 
ATOM     50  H15 LIA d           4.255  22.382   4.468  0.00  0.00     0.066 H 
ATOM     51  H16 LIA d           4.901  24.046   4.271  0.00  0.00     0.066 H 
ENDBRANCH  47  48
ENDBRANCH  45  47
ENDBRANCH  35  37
ENDBRANCH   5  35
TORSDOF 7
ENDMDL
MODEL 7
REMARK VINA RESULT:      -6.2      3.089      4.582
REMARK  7 active torsions:
REMARK  status: ('A' for Active; 'I' for Inactive)
REMARK    1  A    between atoms: N1_1  and  S27_27 
REMARK    2  A    between atoms: C4_4  and  N7_7 
REMARK    3  A    between atoms: C11_11  and  C14_14 
REMARK    4  A    between atoms: C14_14  and  C16_16 
REMARK    5  A    between atoms: C21_21  and  O22_22 
REMARK    6  A    between atoms: O22_22  and  C23_23 
REMARK    7  A    between atoms: S27_27  and  C28_28 
ROOT
ATOM      1  N7  LIA d           2.940  24.553  10.017  0.00  0.00    -0.218 N 
ATOM      2  C8  LIA d           1.768  25.205  10.262  0.00  0.00     0.724 A 
ATOM      3  N9  LIA d           1.252  26.097   9.372  0.00  0.00    -0.074 NA
ATOM      4  C10 LIA d           0.129  26.694   9.626  0.00  0.00     0.038 A 
ATOM      5  C11 LIA d          -0.630  26.457  10.840  0.00  0.00     0.079 A 
ATOM      6  C12 LIA d          -0.044  25.511  11.763  0.00  0.00     0.156 A 
ATOM      7  N13 LIA d           1.150  24.907  11.442  0.00  0.00    -0.045 NA
ATOM      8  N26 LIA d          -0.611  25.178  12.938  0.00  0.00    -0.383 N 
ATOM      9  H10 LIA d           3.508  24.128  10.764  0.00  0.00     0.178 HD
ATOM     10  H11 LIA d          -0.260  27.399   8.900  0.00  0.00     0.117 H 
ATOM     11  H17 LIA d          -0.149  24.498  13.559  0.00  0.00     0.157 HD
ATOM     12  H18 LIA d          -1.506  25.604  13.217  0.00  0.00     0.157 HD
ENDROOT
BRANCH   1  13
ATOM     13  C4  LIA d           3.329  24.506   8.601  0.00  0.00     0.029 C 
ATOM     14  C3  LIA d           4.238  25.728   8.312  0.00  0.00    -0.034 C 
ATOM     15  C2  LIA d           4.809  25.660   6.880  0.00  0.00    -0.005 C 
ATOM     16  H3  LIA d           3.649  26.650   8.423  0.00  0.00     0.037 H 
ATOM     17  H4  LIA d           5.070  25.736   9.032  0.00  0.00     0.037 H 
ATOM     18  N1  LIA d           5.576  24.394   6.709  0.00  0.00    -0.211 NA
ATOM     19  H1  LIA d           3.982  25.688   6.155  0.00  0.00     0.057 H 
ATOM     20  H2  LIA d           5.476  26.517   6.709  0.00  0.00     0.057 H 
ATOM     21  C6  LIA d           4.667  23.215   6.832  0.00  0.00    -0.005 C 
ATOM     22  C5  LIA d           4.078  23.171   8.258  0.00  0.00    -0.034 C 
ATOM     23  H8  LIA d           5.234  22.292   6.641  0.00  0.00     0.057 H 
ATOM     24  H9  LIA d           3.851  23.302   6.100  0.00  0.00     0.057 H 
ATOM     25  H6  LIA d           3.368  22.333   8.328  0.00  0.00     0.037 H 
ATOM     26  H7  LIA d           4.894  23.022   8.980  0.00  0.00     0.037 H 
ATOM     27  H5  LIA d           2.425  24.571   7.977  0.00  0.00     0.073 H 
BRANCH  18  28
ATOM     28  S27 LIA d           6.394  24.382   5.223  0.00  0.00     0.207 S 
ATOM     29  O29 LIA d           6.044  23.158   4.537  0.00  0.00    -0.212 OA
ATOM     30  O30 LIA d           7.810  24.403   5.472  0.00  0.00    -0.212 OA
BRANCH  28  31
ATOM     31  C28 LIA d           5.937  25.796   4.159  0.00  0.00     0.028 C 
ATOM     32  H19 LIA d           6.786  26.491   4.088  0.00  0.00     0.050 H 
ATOM     33  H20 LIA d           5.072  26.318   4.596  0.00  0.00     0.050 H 
ATOM     34  H21 LIA d           5.676  25.431   3.155  0.00  0.00     0.050 H 
ENDBRANCH  28  31
ENDBRANCH  18  28
ENDBRANCH   1  13
BRANCH   5  35
ATOM     35  C14 LIA d          -1.892  27.149  11.056  0.00  0.00     0.203 C 
ATOM     36  O15 LIA d          -2.883  26.538  11.492  0.00  0.00    -0.286 OA
BRANCH  35  37
ATOM     37  C16 LIA d          -2.037  28.554  10.747  0.00  0.00     0.090 A 
ATOM     38  C17 LIA d          -2.894  28.954   9.660  0.00  0.00     0.171 A 
ATOM     39  C18 LIA d          -3.062  30.337   9.342  0.00  0.00     0.156 A 
ATOM     40  F24 LIA d          -3.540  28.047   8.933  0.00  0.00    -0.202 F 
ATOM     41  C19 LIA d          -2.387  31.342  10.096  0.00  0.00    -0.040 A 
ATOM     42  F25 LIA d          -3.850  30.695   8.345  0.00  0.00    -0.203 F 
ATOM     43  C20 LIA d          -1.532  30.974  11.172  0.00  0.00    -0.047 A 
ATOM     44  H12 LIA d          -2.526  32.389   9.848  0.00  0.00     0.088 H 
ATOM     45  C21 LIA d          -1.337  29.582  11.523  0.00  0.00     0.085 A 
ATOM     46  H13 LIA d          -1.021  31.746  11.737  0.00  0.00     0.087 H 
BRANCH  45  47
ATOM     47  O22 LIA d          -0.493  29.174  12.580  0.00  0.00    -0.355 OA
BRANCH  47  48
ATOM     48  C23 LIA d           0.912  29.175  12.222  0.00  0.00     0.010 C 
ATOM     49  H14 LIA d           1.178  30.148  11.784  0.00  0.00     0.066 H 
ATOM     50  H15 LIA d           1.104  28.378  11.488  0.00  0.00     0.066 H 
ATOM     51  H16 LIA d           1.519  28.998  13.122  0.00  0.00     0.066 H 
ENDBRANCH  47  48
ENDBRANCH  45  47
ENDBRANCH  35  37
ENDBRANCH   5  35
TORSDOF 7
ENDMDL
MODEL 8
REMARK VINA RESULT:      -5.9      3.034      4.465
REMARK  7 active torsions:
REMARK  status: ('A' for Active; 'I' for Inactive)
REMARK    1  A    between atoms: N1_1  and  S27_27 
REMARK    2  A    between atoms: C4_4  and  N7_7 
REMARK    3  A    between atoms: C11_11  and  C14_14 
REMARK    4  A    between atoms: C14_14  and  C16_16 
REMARK    5  A    between atoms: C21_21  and  O22_22 
REMARK    6  A    between atoms: O22_22  and  C23_23 
REMARK    7  A    between atoms: S27_27  and  C28_28 
ROOT
ATOM      1  N7  LIA d           1.347  24.646  11.348  0.00  0.00    -0.218 N 
ATOM      2  C8  LIA d           0.396  25.577  11.046  0.00  0.00     0.724 A 
ATOM      3  N9  LIA d           0.719  26.748  10.432  0.00  0.00    -0.074 NA
ATOM      4  C10 LIA d          -0.208  27.609  10.146  0.00  0.00     0.038 A 
ATOM      5  C11 LIA d          -1.609  27.387  10.453  0.00  0.00     0.079 A 
ATOM      6  C12 LIA d          -1.909  26.136  11.112  0.00  0.00     0.156 A 
ATOM      7  N13 LIA d          -0.886  25.259  11.391  0.00  0.00    -0.045 NA
ATOM      8  N26 LIA d          -3.153  25.771  11.472  0.00  0.00    -0.383 N 
ATOM      9  H10 LIA d           1.206  23.919  12.063  0.00  0.00     0.178 HD
ATOM     10  H11 LIA d           0.076  28.534   9.657  0.00  0.00     0.117 H 
ATOM     11  H17 LIA d          -3.311  24.867  11.941  0.00  0.00     0.157 HD
ATOM     12  H18 LIA d          -3.949  26.397  11.280  0.00  0.00     0.157 HD
ENDROOT
BRANCH   1  13
ATOM     13  C4  LIA d           2.588  24.766  10.571  0.00  0.00     0.029 C 
ATOM     14  C3  LIA d           2.430  23.918   9.282  0.00  0.00    -0.034 C 
ATOM     15  C2  LIA d           3.638  24.119   8.343  0.00  0.00    -0.005 C 
ATOM     16  H3  LIA d           2.358  22.855   9.557  0.00  0.00     0.037 H 
ATOM     17  H4  LIA d           1.512  24.224   8.759  0.00  0.00     0.037 H 
ATOM     18  N1  LIA d           3.766  25.562   7.999  0.00  0.00    -0.211 NA
ATOM     19  H1  LIA d           4.554  23.780   8.848  0.00  0.00     0.057 H 
ATOM     20  H2  LIA d           3.489  23.535   7.424  0.00  0.00     0.057 H 
ATOM     21  C6  LIA d           4.075  26.364   9.221  0.00  0.00    -0.005 C 
ATOM     22  C5  LIA d           2.894  26.261  10.210  0.00  0.00    -0.034 C 
ATOM     23  H8  LIA d           4.229  27.416   8.941  0.00  0.00     0.057 H 
ATOM     24  H9  LIA d           4.987  25.973   9.696  0.00  0.00     0.057 H 
ATOM     25  H6  LIA d           3.148  26.808  11.130  0.00  0.00     0.037 H 
ATOM     26  H7  LIA d           2.001  26.710   9.750  0.00  0.00     0.037 H 
ATOM     27  H5  LIA d           3.424  24.370  11.165  0.00  0.00     0.073 H 
BRANCH  18  28
ATOM     28  S27 LIA d           4.947  25.793   6.803  0.00  0.00     0.207 S 
ATOM     29  O29 LIA d           5.245  24.502   6.223  0.00  0.00    -0.212 OA
ATOM     30  O30 LIA d           6.132  26.328   7.417  0.00  0.00    -0.212 OA
BRANCH  28  31
ATOM     31  C28 LIA d           4.387  26.913   5.471  0.00  0.00     0.028 C 
ATOM     32  H19 LIA d           3.870  26.330   4.695  0.00  0.00     0.050 H 
ATOM     33  H20 LIA d           5.258  27.420   5.028  0.00  0.00     0.050 H 
ATOM     34  H21 LIA d           3.698  27.662   5.887  0.00  0.00     0.050 H 
ENDBRANCH  28  31
ENDBRANCH  18  28
ENDBRANCH   1  13
BRANCH   5  35
ATOM     35  C14 LIA d          -2.600  28.388  10.089  0.00  0.00     0.203 C 
ATOM     36  O15 LIA d          -3.788  28.069   9.911  0.00  0.00    -0.286 OA
BRANCH  35  37
ATOM     37  C16 LIA d          -2.231  29.774   9.902  0.00  0.00     0.090 A 
ATOM     38  C17 LIA d          -2.725  30.768  10.820  0.00  0.00     0.171 A 
ATOM     39  C18 LIA d          -2.365  32.142  10.661  0.00  0.00     0.156 A 
ATOM     40  F24 LIA d          -3.525  30.428  11.826  0.00  0.00    -0.202 F 
ATOM     41  C19 LIA d          -1.510  32.550   9.596  0.00  0.00    -0.040 A 
ATOM     42  F25 LIA d          -2.822  33.046  11.507  0.00  0.00    -0.203 F 
ATOM     43  C20 LIA d          -1.010  31.589   8.673  0.00  0.00    -0.047 A 
ATOM     44  H12 LIA d          -1.240  33.595   9.488  0.00  0.00     0.088 H 
ATOM     45  C21 LIA d          -1.355  30.188   8.801  0.00  0.00     0.085 A 
ATOM     46  H13 LIA d          -0.364  31.910   7.864  0.00  0.00     0.087 H 
BRANCH  45  47
ATOM     47  O22 LIA d          -0.884  29.203   7.905  0.00  0.00    -0.355 OA
BRANCH  47  48
ATOM     48  C23 LIA d           0.381  29.550   7.288  0.00  0.00     0.010 C 
ATOM     49  H14 LIA d           0.736  28.706   6.678  0.00  0.00     0.066 H 
ATOM     50  H15 LIA d           1.122  29.771   8.071  0.00  0.00     0.066 H 
ATOM     51  H16 LIA d           0.247  30.435   6.649  0.00  0.00     0.066 H 
ENDBRANCH  47  48
ENDBRANCH  45  47
ENDBRANCH  35  37
ENDBRANCH   5  35
TORSDOF 7
ENDMDL
MODEL 9
REMARK VINA RESULT:      -5.9      2.095      2.782
REMARK  7 active torsions:
REMARK  status: ('A' for Active; 'I' for Inactive)
REMARK    1  A    between atoms: N1_1  and  S27_27 
REMARK    2  A    between atoms: C4_4  and  N7_7 
REMARK    3  A    between atoms: C11_11  and  C14_14 
REMARK    4  A    between atoms: C14_14  and  C16_16 
REMARK    5  A    between atoms: C21_21  and  O22_22 
REMARK    6  A    between atoms: O22_22  and  C23_23 
REMARK    7  A    between atoms: S27_27  and  C28_28 
ROOT
ATOM      1  N7  LIA d           2.605  28.723   5.999  0.00  0.00    -0.218 N 
ATOM      2  C8  LIA d           1.907  28.771   7.170  0.00  0.00     0.724 A 
ATOM      3  N9  LIA d           2.116  27.860   8.159  0.00  0.00    -0.074 NA
ATOM      4  C10 LIA d           1.446  27.937   9.267  0.00  0.00     0.038 A 
ATOM      5  C11 LIA d           0.457  28.969   9.517  0.00  0.00     0.079 A 
ATOM      6  C12 LIA d           0.257  29.911   8.438  0.00  0.00     0.156 A 
ATOM      7  N13 LIA d           0.996  29.782   7.286  0.00  0.00    -0.045 NA
ATOM      8  N26 LIA d          -0.624  30.927   8.500  0.00  0.00    -0.383 N 
ATOM      9  H10 LIA d           2.274  29.175   5.135  0.00  0.00     0.178 HD
ATOM     10  H11 LIA d           1.633  27.200  10.040  0.00  0.00     0.117 H 
ATOM     11  H17 LIA d          -0.727  31.569   7.700  0.00  0.00     0.157 HD
ATOM     12  H18 LIA d          -1.196  31.062   9.345  0.00  0.00     0.157 HD
ENDROOT
BRANCH   1  13
ATOM     13  C4  LIA d           3.867  27.974   6.071  0.00  0.00     0.029 C 
ATOM     14  C3  LIA d           3.739  26.926   7.206  0.00  0.00    -0.034 C 
ATOM     15  C2  LIA d           4.973  26.000   7.238  0.00  0.00    -0.005 C 
ATOM     16  H3  LIA d           3.653  27.447   8.170  0.00  0.00     0.037 H 
ATOM     17  H4  LIA d           2.837  26.319   7.036  0.00  0.00     0.037 H 
ATOM     18  N1  LIA d           5.119  25.320   5.920  0.00  0.00    -0.211 NA
ATOM     19  H1  LIA d           5.874  26.597   7.443  0.00  0.00     0.057 H 
ATOM     20  H2  LIA d           4.845  25.246   8.027  0.00  0.00     0.057 H 
ATOM     21  C6  LIA d           5.400  26.320   4.847  0.00  0.00    -0.005 C 
ATOM     22  C5  LIA d           4.192  27.271   4.707  0.00  0.00    -0.034 C 
ATOM     23  H8  LIA d           5.568  25.797   3.894  0.00  0.00     0.057 H 
ATOM     24  H9  LIA d           6.296  26.900   5.110  0.00  0.00     0.057 H 
ATOM     25  H6  LIA d           4.424  28.038   3.954  0.00  0.00     0.037 H 
ATOM     26  H7  LIA d           3.314  26.692   4.384  0.00  0.00     0.037 H 
ATOM     27  H5  LIA d           4.685  28.670   6.310  0.00  0.00     0.073 H 
BRANCH  18  28
ATOM     28  S27 LIA d           6.333  24.137   5.986  0.00  0.00     0.207 S 
ATOM     29  O29 LIA d           7.295  24.434   4.947  0.00  0.00    -0.212 OA
ATOM     30  O30 LIA d           5.742  22.850   5.738  0.00  0.00    -0.212 OA
BRANCH  28  31
ATOM     31  C28 LIA d           7.204  24.113   7.593  0.00  0.00     0.028 C 
ATOM     32  H19 LIA d           8.269  24.337   7.437  0.00  0.00     0.050 H 
ATOM     33  H20 LIA d           7.102  23.118   8.050  0.00  0.00     0.050 H 
ATOM     34  H21 LIA d           6.764  24.870   8.259  0.00  0.00     0.050 H 
ENDBRANCH  28  31
ENDBRANCH  18  28
ENDBRANCH   1  13
BRANCH   5  35
ATOM     35  C14 LIA d          -0.249  29.007  10.789  0.00  0.00     0.203 C 
ATOM     36  O15 LIA d           0.347  29.315  11.836  0.00  0.00    -0.286 OA
BRANCH  35  37
ATOM     37  C16 LIA d          -1.651  28.666  10.877  0.00  0.00     0.090 A 
ATOM     38  C17 LIA d          -2.642  29.697  10.708  0.00  0.00     0.171 A 
ATOM     39  C18 LIA d          -4.035  29.382  10.781  0.00  0.00     0.156 A 
ATOM     40  F24 LIA d          -2.282  30.958  10.486  0.00  0.00    -0.202 F 
ATOM     41  C19 LIA d          -4.465  28.044  11.019  0.00  0.00    -0.040 A 
ATOM     42  F25 LIA d          -4.936  30.334  10.625  0.00  0.00    -0.203 F 
ATOM     43  C20 LIA d          -3.507  27.006  11.192  0.00  0.00    -0.047 A 
ATOM     44  H12 LIA d          -5.524  27.816  11.067  0.00  0.00     0.088 H 
ATOM     45  C21 LIA d          -2.087  27.288  11.127  0.00  0.00     0.085 A 
ATOM     46  H13 LIA d          -3.843  25.992  11.376  0.00  0.00     0.087 H 
BRANCH  45  47
ATOM     47  O22 LIA d          -1.103  26.288  11.298  0.00  0.00    -0.355 OA
BRANCH  47  48
ATOM     48  C23 LIA d          -0.904  25.917  12.685  0.00  0.00     0.010 C 
ATOM     49  H14 LIA d          -0.239  26.647  13.169  0.00  0.00     0.066 H 
ATOM     50  H15 LIA d          -0.447  24.917  12.735  0.00  0.00     0.066 H 
ATOM     51  H16 LIA d          -1.873  25.902  13.204  0.00  0.00     0.066 H 
ENDBRANCH  47  48
ENDBRANCH  45  47
ENDBRANCH  35  37
ENDBRANCH   5  35
TORSDOF 7
ENDMDL
