MODEL 1
REMARK VINA RESULT:      -4.8      0.000      0.000
REMARK  6 active torsions:
REMARK  status: ('A' for Active; 'I' for Inactive)
REMARK    1  A    between atoms: N_1  and  CA_2 
REMARK    2  A    between atoms: CA_2  and  C_3 
REMARK    3  A    between atoms: CA_2  and  CB_5 
REMARK    4  A    between atoms: CB_5  and  CG_6 
REMARK    5  A    between atoms: CG_6  and  CD1_7 
REMARK    6  A    between atoms: CG_6  and  CD2_8 
ROOT
ATOM      1  CB  LEU d          34.497  -1.068  37.763  0.00  0.00    -0.026 C 
ATOM      2  H5  LEU d          34.685  -1.603  36.820  0.00  0.00     0.037 H 
ATOM      3  H6  LEU d          35.036  -0.110  37.755  0.00  0.00     0.037 H 
ENDROOT
BRANCH   1   4
ATOM      4  CA  LEU d          35.098  -1.909  38.879  0.00  0.00     0.182 C 
ATOM      5  H4  LEU d          34.404  -2.721  39.142  0.00  0.00     0.101 H 
BRANCH   4   6
ATOM      6  N   LEU d          35.361  -1.073  40.068  0.00  0.00    -0.065 N 
ATOM      7  H1  LEU d          36.284  -0.675  40.000  0.00  0.00     0.275 HD
ATOM      8  H2  LEU d          35.300  -1.641  40.899  0.00  0.00     0.275 HD
ATOM      9  H3  LEU d          34.678  -0.334  40.116  0.00  0.00     0.275 HD
ENDBRANCH   4   6
BRANCH   4  10
ATOM     10  C   LEU d          36.405  -2.484  38.417  0.00  0.00     0.204 C 
ATOM     11  O   LEU d          36.587  -2.658  37.198  0.00  0.00    -0.646 OA
ATOM     12  OXT LEU d          37.258  -2.807  39.249  0.00  0.00    -0.646 OA
ENDBRANCH   4  10
ENDBRANCH   1   4
BRANCH   1  13
ATOM     13  CG  LEU d          32.998  -0.739  37.800  0.00  0.00    -0.059 C 
ATOM     14  H7  LEU d          32.620  -0.841  36.773  0.00  0.00     0.038 H 
BRANCH  13  15
ATOM     15  CD1 LEU d          32.198  -1.734  38.692  0.00  0.00    -0.073 C 
ATOM     16  H8  LEU d          31.949  -1.251  39.648  0.00  0.00     0.028 H 
ATOM     17  H9  LEU d          32.809  -2.629  38.882  0.00  0.00     0.028 H 
ATOM     18  H10 LEU d          31.271  -2.025  38.175  0.00  0.00     0.028 H 
ENDBRANCH  13  15
BRANCH  13  19
ATOM     19  CD2 LEU d          32.746   0.667  38.231  0.00  0.00    -0.073 C 
ATOM     20  H11 LEU d          31.985   0.676  39.026  0.00  0.00     0.028 H 
ATOM     21  H12 LEU d          32.386   1.254  37.373  0.00  0.00     0.028 H 
ATOM     22  H13 LEU d          33.679   1.108  38.610  0.00  0.00     0.028 H 
ENDBRANCH  13  19
ENDBRANCH   1  13
TORSDOF 6
ENDMDL
MODEL 2
REMARK VINA RESULT:      -4.7      1.095      1.873
REMARK  6 active torsions:
REMARK  status: ('A' for Active; 'I' for Inactive)
REMARK    1  A    between atoms: N_1  and  CA_2 
REMARK    2  A    between atoms: CA_2  and  C_3 
REMARK    3  A    between atoms: CA_2  and  CB_5 
REMARK    4  A    between atoms: CB_5  and  CG_6 
REMARK    5  A    between atoms: CG_6  and  CD1_7 
REMARK    6  A    between atoms: CG_6  and  CD2_8 
ROOT
ATOM      1  CB  LEU d          34.332  -0.693  39.173  0.00  0.00    -0.026 C 
ATOM      2  H5  LEU d          34.790  -0.069  38.391  0.00  0.00     0.037 H 
ATOM      3  H6  LEU d          34.673  -0.351  40.161  0.00  0.00     0.037 H 
ENDROOT
BRANCH   1   4
ATOM      4  CA  LEU d          34.862  -2.106  38.982  0.00  0.00     0.182 C 
ATOM      5  H4  LEU d          34.018  -2.805  38.886  0.00  0.00     0.101 H 
BRANCH   4   6
ATOM      6  N   LEU d          35.706  -2.497  40.130  0.00  0.00    -0.065 N 
ATOM      7  H1  LEU d          35.746  -1.738  40.791  0.00  0.00     0.275 HD
ATOM      8  H2  LEU d          36.636  -2.711  39.806  0.00  0.00     0.275 HD
ATOM      9  H3  LEU d          35.311  -3.311  40.575  0.00  0.00     0.275 HD
ENDBRANCH   4   6
BRANCH   4  10
ATOM     10  C   LEU d          35.710  -2.155  37.745  0.00  0.00     0.204 C 
ATOM     11  O   LEU d          36.695  -2.914  37.721  0.00  0.00    -0.646 OA
ATOM     12  OXT LEU d          35.440  -1.419  36.791  0.00  0.00    -0.646 OA
ENDBRANCH   4  10
ENDBRANCH   1   4
BRANCH   1  13
ATOM     13  CG  LEU d          32.818  -0.448  39.112  0.00  0.00    -0.059 C 
ATOM     14  H7  LEU d          32.483  -0.247  40.140  0.00  0.00     0.038 H 
BRANCH  13  15
ATOM     15  CD1 LEU d          32.456   0.799  38.253  0.00  0.00    -0.073 C 
ATOM     16  H8  LEU d          31.735   0.510  37.473  0.00  0.00     0.028 H 
ATOM     17  H9  LEU d          33.367   1.196  37.780  0.00  0.00     0.028 H 
ATOM     18  H10 LEU d          32.010   1.571  38.897  0.00  0.00     0.028 H 
ENDBRANCH  13  15
BRANCH  13  19
ATOM     19  CD2 LEU d          32.077  -1.650  38.628  0.00  0.00    -0.073 C 
ATOM     20  H11 LEU d          31.790  -1.504  37.576  0.00  0.00     0.028 H 
ATOM     21  H12 LEU d          31.174  -1.794  39.238  0.00  0.00     0.028 H 
ATOM     22  H13 LEU d          32.722  -2.537  38.713  0.00  0.00     0.028 H 
ENDBRANCH  13  19
ENDBRANCH   1  13
TORSDOF 6
ENDMDL
MODEL 3
REMARK VINA RESULT:      -4.0      2.733      3.479
REMARK  6 active torsions:
REMARK  status: ('A' for Active; 'I' for Inactive)
REMARK    1  A    between atoms: N_1  and  CA_2 
REMARK    2  A    between atoms: CA_2  and  C_3 
REMARK    3  A    between atoms: CA_2  and  CB_5 
REMARK    4  A    between atoms: CB_5  and  CG_6 
REMARK    5  A    between atoms: CG_6  and  CD1_7 
REMARK    6  A    between atoms: CG_6  and  CD2_8 
ROOT
ATOM      1  CB  LEU d          34.023  -2.102  37.901  0.00  0.00    -0.026 C 
ATOM      2  H5  LEU d          34.326  -3.141  37.706  0.00  0.00     0.037 H 
ATOM      3  H6  LEU d          32.971  -1.966  37.612  0.00  0.00     0.037 H 
ENDROOT
BRANCH   1   4
ATOM      4  CA  LEU d          34.856  -1.216  36.986  0.00  0.00     0.182 C 
ATOM      5  H4  LEU d          34.912  -1.672  35.986  0.00  0.00     0.101 H 
BRANCH   4   6
ATOM      6  N   LEU d          36.217  -1.047  37.534  0.00  0.00    -0.065 N 
ATOM      7  H1  LEU d          36.382  -0.071  37.725  0.00  0.00     0.275 HD
ATOM      8  H2  LEU d          36.893  -1.377  36.863  0.00  0.00     0.275 HD
ATOM      9  H3  LEU d          36.304  -1.577  38.387  0.00  0.00     0.275 HD
ENDBRANCH   4   6
BRANCH   4  10
ATOM     10  C   LEU d          34.219   0.139  36.895  0.00  0.00     0.204 C 
ATOM     11  O   LEU d          34.347   0.928  37.849  0.00  0.00    -0.646 OA
ATOM     12  OXT LEU d          33.553   0.436  35.899  0.00  0.00    -0.646 OA
ENDBRANCH   4  10
ENDBRANCH   1   4
BRANCH   1  13
ATOM     13  CG  LEU d          34.102  -1.889  39.419  0.00  0.00    -0.059 C 
ATOM     14  H7  LEU d          34.798  -1.056  39.593  0.00  0.00     0.038 H 
BRANCH  13  15
ATOM     15  CD1 LEU d          32.728  -1.481  40.029  0.00  0.00    -0.073 C 
ATOM     16  H8  LEU d          32.819  -0.497  40.512  0.00  0.00     0.028 H 
ATOM     17  H9  LEU d          32.421  -2.228  40.777  0.00  0.00     0.028 H 
ATOM     18  H10 LEU d          31.973  -1.430  39.230  0.00  0.00     0.028 H 
ENDBRANCH  13  15
BRANCH  13  19
ATOM     19  CD2 LEU d          34.652  -3.084  40.123  0.00  0.00    -0.073 C 
ATOM     20  H11 LEU d          34.838  -2.834  41.179  0.00  0.00     0.028 H 
ATOM     21  H12 LEU d          35.595  -3.388  39.647  0.00  0.00     0.028 H 
ATOM     22  H13 LEU d          33.928  -3.910  40.064  0.00  0.00     0.028 H 
ENDBRANCH  13  19
ENDBRANCH   1  13
TORSDOF 6
ENDMDL
MODEL 4
REMARK VINA RESULT:      -3.9      1.787      2.081
REMARK  6 active torsions:
REMARK  status: ('A' for Active; 'I' for Inactive)
REMARK    1  A    between atoms: N_1  and  CA_2 
REMARK    2  A    between atoms: CA_2  and  C_3 
REMARK    3  A    between atoms: CA_2  and  CB_5 
REMARK    4  A    between atoms: CB_5  and  CG_6 
REMARK    5  A    between atoms: CG_6  and  CD1_7 
REMARK    6  A    between atoms: CG_6  and  CD2_8 
ROOT
ATOM      1  CB  LEU d          35.468  -0.859  37.458  0.00  0.00    -0.026 C 
ATOM      2  H5  LEU d          35.937  -0.654  36.485  0.00  0.00     0.037 H 
ATOM      3  H6  LEU d          35.898  -0.193  38.220  0.00  0.00     0.037 H 
ENDROOT
BRANCH   1   4
ATOM      4  CA  LEU d          35.847  -2.282  37.844  0.00  0.00     0.182 C 
ATOM      5  H4  LEU d          36.737  -2.591  37.276  0.00  0.00     0.101 H 
BRANCH   4   6
ATOM      6  N   LEU d          34.730  -3.205  37.562  0.00  0.00    -0.065 N 
ATOM      7  H1  LEU d          34.208  -3.369  38.409  0.00  0.00     0.275 HD
ATOM      8  H2  LEU d          35.095  -4.080  37.218  0.00  0.00     0.275 HD
ATOM      9  H3  LEU d          34.124  -2.798  36.867  0.00  0.00     0.275 HD
ENDBRANCH   4   6
BRANCH   4  10
ATOM     10  C   LEU d          36.135  -2.336  39.315  0.00  0.00     0.204 C 
ATOM     11  O   LEU d          37.320  -2.371  39.695  0.00  0.00    -0.646 OA
ATOM     12  OXT LEU d          35.200  -2.381  40.119  0.00  0.00    -0.646 OA
ENDBRANCH   4  10
ENDBRANCH   1   4
BRANCH   1  13
ATOM     13  CG  LEU d          33.984  -0.491  37.327  0.00  0.00    -0.059 C 
ATOM     14  H7  LEU d          33.429  -1.431  37.194  0.00  0.00     0.038 H 
BRANCH  13  15
ATOM     15  CD1 LEU d          33.431   0.196  38.611  0.00  0.00    -0.073 C 
ATOM     16  H8  LEU d          32.354  -0.007  38.701  0.00  0.00     0.028 H 
ATOM     17  H9  LEU d          33.595   1.282  38.545  0.00  0.00     0.028 H 
ATOM     18  H10 LEU d          33.955  -0.202  39.494  0.00  0.00     0.028 H 
ENDBRANCH  13  15
BRANCH  13  19
ATOM     19  CD2 LEU d          33.722   0.355  36.127  0.00  0.00    -0.073 C 
ATOM     20  H11 LEU d          33.150  -0.225  35.387  0.00  0.00     0.028 H 
ATOM     21  H12 LEU d          34.678   0.671  35.685  0.00  0.00     0.028 H 
ATOM     22  H13 LEU d          33.144   1.243  36.423  0.00  0.00     0.028 H 
ENDBRANCH  13  19
ENDBRANCH   1  13
TORSDOF 6
ENDMDL
MODEL 5
REMARK VINA RESULT:      -3.8      2.543      3.856
REMARK  6 active torsions:
REMARK  status: ('A' for Active; 'I' for Inactive)
REMARK    1  A    between atoms: N_1  and  CA_2 
REMARK    2  A    between atoms: CA_2  and  C_3 
REMARK    3  A    between atoms: CA_2  and  CB_5 
REMARK    4  A    between atoms: CB_5  and  CG_6 
REMARK    5  A    between atoms: CG_6  and  CD1_7 
REMARK    6  A    between atoms: CG_6  and  CD2_8 
ROOT
ATOM      1  CB  LEU d          34.118  -1.974  38.496  0.00  0.00    -0.026 C 
ATOM      2  H5  LEU d          33.904  -1.944  37.417  0.00  0.00     0.037 H 
ATOM      3  H6  LEU d          33.298  -2.488  39.018  0.00  0.00     0.037 H 
ENDROOT
BRANCH   1   4
ATOM      4  CA  LEU d          34.126  -0.534  38.988  0.00  0.00     0.182 C 
ATOM      5  H4  LEU d          35.142  -0.261  39.309  0.00  0.00     0.101 H 
BRANCH   4   6
ATOM      6  N   LEU d          33.186  -0.371  40.116  0.00  0.00    -0.065 N 
ATOM      7  H1  LEU d          33.691  -0.058  40.930  0.00  0.00     0.275 HD
ATOM      8  H2  LEU d          32.743  -1.255  40.314  0.00  0.00     0.275 HD
ATOM      9  H3  LEU d          32.484   0.310  39.872  0.00  0.00     0.275 HD
ENDBRANCH   4   6
BRANCH   4  10
ATOM     10  C   LEU d          33.680   0.371  37.878  0.00  0.00     0.204 C 
ATOM     11  O   LEU d          34.387   0.463  36.857  0.00  0.00    -0.646 OA
ATOM     12  OXT LEU d          32.647   1.034  38.007  0.00  0.00    -0.646 OA
ENDBRANCH   4  10
ENDBRANCH   1   4
BRANCH   1  13
ATOM     13  CG  LEU d          35.376  -2.833  38.681  0.00  0.00    -0.059 C 
ATOM     14  H7  LEU d          35.089  -3.874  38.473  0.00  0.00     0.038 H 
BRANCH  13  15
ATOM     15  CD1 LEU d          36.503  -2.452  37.675  0.00  0.00    -0.073 C 
ATOM     16  H8  LEU d          36.302  -1.454  37.260  0.00  0.00     0.028 H 
ATOM     17  H9  LEU d          36.532  -3.189  36.859  0.00  0.00     0.028 H 
ATOM     18  H10 LEU d          37.472  -2.444  38.197  0.00  0.00     0.028 H 
ENDBRANCH  13  15
BRANCH  13  19
ATOM     19  CD2 LEU d          35.887  -2.782  40.082  0.00  0.00    -0.073 C 
ATOM     20  H11 LEU d          36.380  -1.814  40.257  0.00  0.00     0.028 H 
ATOM     21  H12 LEU d          36.610  -3.596  40.238  0.00  0.00     0.028 H 
ATOM     22  H13 LEU d          35.047  -2.899  40.783  0.00  0.00     0.028 H 
ENDBRANCH  13  19
ENDBRANCH   1  13
TORSDOF 6
ENDMDL
MODEL 6
REMARK VINA RESULT:      -3.7      2.073      2.463
REMARK  6 active torsions:
REMARK  status: ('A' for Active; 'I' for Inactive)
REMARK    1  A    between atoms: N_1  and  CA_2 
REMARK    2  A    between atoms: CA_2  and  C_3 
REMARK    3  A    between atoms: CA_2  and  CB_5 
REMARK    4  A    between atoms: CB_5  and  CG_6 
REMARK    5  A    between atoms: CG_6  and  CD1_7 
REMARK    6  A    between atoms: CG_6  and  CD2_8 
ROOT
ATOM      1  CB  LEU d          34.681  -0.820  38.155  0.00  0.00    -0.026 C 
ATOM      2  H5  LEU d          34.343  -1.676  37.554  0.00  0.00     0.037 H 
ATOM      3  H6  LEU d          35.727  -0.588  37.908  0.00  0.00     0.037 H 
ENDROOT
BRANCH   1   4
ATOM      4  CA  LEU d          34.654  -1.260  39.612  0.00  0.00     0.182 C 
ATOM      5  H4  LEU d          34.108  -0.516  40.210  0.00  0.00     0.101 H 
BRANCH   4   6
ATOM      6  N   LEU d          36.029  -1.405  40.130  0.00  0.00    -0.065 N 
ATOM      7  H1  LEU d          35.995  -1.694  41.095  0.00  0.00     0.275 HD
ATOM      8  H2  LEU d          36.509  -0.521  40.061  0.00  0.00     0.275 HD
ATOM      9  H3  LEU d          36.522  -2.098  39.588  0.00  0.00     0.275 HD
ENDBRANCH   4   6
BRANCH   4  10
ATOM     10  C   LEU d          33.976  -2.594  39.713  0.00  0.00     0.204 C 
ATOM     11  O   LEU d          34.590  -3.610  39.338  0.00  0.00    -0.646 OA
ATOM     12  OXT LEU d          32.816  -2.661  40.130  0.00  0.00    -0.646 OA
ENDBRANCH   4  10
ENDBRANCH   1   4
BRANCH   1  13
ATOM     13  CG  LEU d          33.840   0.390  37.725  0.00  0.00    -0.059 C 
ATOM     14  H7  LEU d          34.414   1.291  37.987  0.00  0.00     0.038 H 
BRANCH  13  15
ATOM     15  CD1 LEU d          33.598   0.424  36.187  0.00  0.00    -0.073 C 
ATOM     16  H8  LEU d          34.531   0.166  35.664  0.00  0.00     0.028 H 
ATOM     17  H9  LEU d          33.278   1.433  35.887  0.00  0.00     0.028 H 
ATOM     18  H10 LEU d          32.816  -0.304  35.923  0.00  0.00     0.028 H 
ENDBRANCH  13  15
BRANCH  13  19
ATOM     19  CD2 LEU d          32.543   0.459  38.460  0.00  0.00    -0.073 C 
ATOM     20  H11 LEU d          32.329  -0.519  38.917  0.00  0.00     0.028 H 
ATOM     21  H12 LEU d          31.737   0.719  37.758  0.00  0.00     0.028 H 
ATOM     22  H13 LEU d          32.606   1.226  39.245  0.00  0.00     0.028 H 
ENDBRANCH  13  19
ENDBRANCH   1  13
TORSDOF 6
ENDMDL
MODEL 7
REMARK VINA RESULT:      -3.7      2.727      3.907
REMARK  6 active torsions:
REMARK  status: ('A' for Active; 'I' for Inactive)
REMARK    1  A    between atoms: N_1  and  CA_2 
REMARK    2  A    between atoms: CA_2  and  C_3 
REMARK    3  A    between atoms: CA_2  and  CB_5 
REMARK    4  A    between atoms: CB_5  and  CG_6 
REMARK    5  A    between atoms: CG_6  and  CD1_7 
REMARK    6  A    between atoms: CG_6  and  CD2_8 
ROOT
ATOM      1  CB  LEU d          34.637  -2.160  37.704  0.00  0.00    -0.026 C 
ATOM      2  H5  LEU d          35.332  -2.489  36.918  0.00  0.00     0.037 H 
ATOM      3  H6  LEU d          33.824  -2.893  37.806  0.00  0.00     0.037 H 
ENDROOT
BRANCH   1   4
ATOM      4  CA  LEU d          34.008  -0.859  37.227  0.00  0.00     0.182 C 
ATOM      5  H4  LEU d          33.696  -0.966  36.177  0.00  0.00     0.101 H 
BRANCH   4   6
ATOM      6  N   LEU d          34.971   0.253  37.350  0.00  0.00    -0.065 N 
ATOM      7  H1  LEU d          34.723   0.985  36.702  0.00  0.00     0.275 HD
ATOM      8  H2  LEU d          35.899  -0.080  37.141  0.00  0.00     0.275 HD
ATOM      9  H3  LEU d          34.948   0.615  38.291  0.00  0.00     0.275 HD
ENDBRANCH   4   6
BRANCH   4  10
ATOM     10  C   LEU d          32.818  -0.541  38.084  0.00  0.00     0.204 C 
ATOM     11  O   LEU d          32.074  -1.470  38.447  0.00  0.00    -0.646 OA
ATOM     12  OXT LEU d          32.576   0.632  38.383  0.00  0.00    -0.646 OA
ENDBRANCH   4  10
ENDBRANCH   1   4
BRANCH   1  13
ATOM     13  CG  LEU d          35.418  -2.170  39.026  0.00  0.00    -0.059 C 
ATOM     14  H7  LEU d          35.449  -1.133  39.390  0.00  0.00     0.038 H 
BRANCH  13  15
ATOM     15  CD1 LEU d          34.714  -3.026  40.120  0.00  0.00    -0.073 C 
ATOM     16  H8  LEU d          34.471  -2.390  40.984  0.00  0.00     0.028 H 
ATOM     17  H9  LEU d          35.385  -3.837  40.440  0.00  0.00     0.028 H 
ATOM     18  H10 LEU d          33.788  -3.456  39.709  0.00  0.00     0.028 H 
ENDBRANCH  13  15
BRANCH  13  19
ATOM     19  CD2 LEU d          36.828  -2.620  38.838  0.00  0.00    -0.073 C 
ATOM     20  H11 LEU d          37.430  -2.310  39.706  0.00  0.00     0.028 H 
ATOM     21  H12 LEU d          37.240  -2.164  37.925  0.00  0.00     0.028 H 
ATOM     22  H13 LEU d          36.855  -3.715  38.745  0.00  0.00     0.028 H 
ENDBRANCH  13  19
ENDBRANCH   1  13
TORSDOF 6
ENDMDL
MODEL 8
REMARK VINA RESULT:      -3.3      2.289      3.180
REMARK  6 active torsions:
REMARK  status: ('A' for Active; 'I' for Inactive)
REMARK    1  A    between atoms: N_1  and  CA_2 
REMARK    2  A    between atoms: CA_2  and  C_3 
REMARK    3  A    between atoms: CA_2  and  CB_5 
REMARK    4  A    between atoms: CB_5  and  CG_6 
REMARK    5  A    between atoms: CG_6  and  CD1_7 
REMARK    6  A    between atoms: CG_6  and  CD2_8 
ROOT
ATOM      1  CB  LEU d          34.181  -0.644  39.441  0.00  0.00    -0.026 C 
ATOM      2  H5  LEU d          34.297  -0.029  40.346  0.00  0.00     0.037 H 
ATOM      3  H6  LEU d          35.104  -1.216  39.267  0.00  0.00     0.037 H 
ENDROOT
BRANCH   1   4
ATOM      4  CA  LEU d          34.024   0.315  38.270  0.00  0.00     0.182 C 
ATOM      5  H4  LEU d          34.695   1.175  38.407  0.00  0.00     0.101 H 
BRANCH   4   6
ATOM      6  N   LEU d          32.626   0.782  38.173  0.00  0.00    -0.065 N 
ATOM      7  H1  LEU d          32.248   0.903  39.099  0.00  0.00     0.275 HD
ATOM      8  H2  LEU d          32.078   0.101  37.672  0.00  0.00     0.275 HD
ATOM      9  H3  LEU d          32.600   1.662  37.681  0.00  0.00     0.275 HD
ENDBRANCH   4   6
BRANCH   4  10
ATOM     10  C   LEU d          34.364  -0.401  36.996  0.00  0.00     0.204 C 
ATOM     11  O   LEU d          35.331  -1.184  36.986  0.00  0.00    -0.646 OA
ATOM     12  OXT LEU d          33.707  -0.176  35.975  0.00  0.00    -0.646 OA
ENDBRANCH   4  10
ENDBRANCH   1   4
BRANCH   1  13
ATOM     13  CG  LEU d          33.069  -1.662  39.728  0.00  0.00    -0.059 C 
ATOM     14  H7  LEU d          32.490  -1.275  40.579  0.00  0.00     0.038 H 
BRANCH  13  15
ATOM     15  CD1 LEU d          32.087  -1.816  38.529  0.00  0.00    -0.073 C 
ATOM     16  H8  LEU d          32.322  -2.739  37.979  0.00  0.00     0.028 H 
ATOM     17  H9  LEU d          32.191  -0.952  37.856  0.00  0.00     0.028 H 
ATOM     18  H10 LEU d          31.054  -1.865  38.906  0.00  0.00     0.028 H 
ENDBRANCH  13  15
BRANCH  13  19
ATOM     19  CD2 LEU d          33.618  -2.990  40.129  0.00  0.00    -0.073 C 
ATOM     20  H11 LEU d          34.651  -2.867  40.488  0.00  0.00     0.028 H 
ATOM     21  H12 LEU d          33.609  -3.667  39.262  0.00  0.00     0.028 H 
ATOM     22  H13 LEU d          32.998  -3.416  40.931  0.00  0.00     0.028 H 
ENDBRANCH  13  19
ENDBRANCH   1  13
TORSDOF 6
ENDMDL
