MODEL 1
REMARK VINA RESULT:      -6.6      0.000      0.000
REMARK WARNING: 32 MAX_TORS EXCEEDED!!!
REMARK  33 active torsions:
REMARK  status: ('A' for Active; 'I' for Inactive)
REMARK    1  A    between atoms: CA_2  and  C_3 
REMARK       I    between atoms: C_3  and  N_8 
REMARK    2  A    between atoms: N_8  and  CA_9 
REMARK    3  A    between atoms: CA_9  and  C_10 
REMARK    4  A    between atoms: CA_9  and  CB_12 
REMARK       I    between atoms: C_10  and  N_18 
REMARK    5  A    between atoms: CB_12  and  CG_13 
REMARK    6  A    between atoms: N_18  and  CA_19 
REMARK    7  A    between atoms: CA_19  and  C_20 
REMARK    8  A    between atoms: CA_19  and  CB_22 
REMARK       I    between atoms: C_20  and  N_26 
REMARK    9  A    between atoms: CB_22  and  CG_23 
REMARK   10  A    between atoms: CG_23  and  CD1_24 
REMARK   11  A    between atoms: CG_23  and  CD2_25 
REMARK   12  A    between atoms: N_26  and  CA_27 
REMARK   13  A    between atoms: CA_27  and  C_28 
REMARK   14  A    between atoms: CA_27  and  CB_30 
REMARK       I    between atoms: C_28  and  N_32 
REMARK   15  A    between atoms: CB_30  and  OG_31 
REMARK   16  A    between atoms: N_32  and  C1_33 
REMARK   17  A    between atoms: C1_33  and  C2_34 
REMARK   18  A    between atoms: C1_33  and  C9_41 
REMARK   19  A    between atoms: C2_34  and  C3_35 
REMARK   20  A    between atoms: C9_41  and  N2_42 
REMARK   21  A    between atoms: N2_42  and  C10_43 
REMARK   22  A    between atoms: C10_43  and  C11_44 
REMARK   23  A    between atoms: C10_43  and  C_48 
REMARK   24  A    between atoms: C11_44  and  C12_45 
REMARK   25  A    between atoms: C12_45  and  SD_46 
REMARK   26  A    between atoms: SD_46  and  C13_47 
REMARK       I    between atoms: C_48  and  N_50 
REMARK   27  A    between atoms: N_50  and  CA_51 
REMARK   28  A    between atoms: CA_51  and  C_52 
REMARK   29  A    between atoms: CA_51  and  CB_54 
REMARK       I    between atoms: C_52  and  N_55 
REMARK   30  A    between atoms: N_55  and  CA_56 
REMARK   31  A    between atoms: CA_56  and  C_57 
REMARK   32  A    between atoms: CA_56  and  CB_59 
REMARK   33  A    between atoms: CB_59  and  CG_60 
ROOT
ATOM      1  C   PRO d          -0.297  30.884  16.718  0.00  0.00     0.242 C 
ATOM      2  O   PRO d           0.543  31.470  17.433  0.00  0.00    -0.271 OA
ATOM      3  N   PRO d          -1.192  30.046  17.250  0.00  0.00    -0.353 N 
ATOM      4  H33 PRO d          -1.789  29.525  16.641  0.00  0.00     0.163 HD
ENDROOT
BRANCH   3   5
ATOM      5  C1  PRO d          -1.325  29.866  18.690  0.00  0.00     0.039 C 
ATOM      6  H34 PRO d          -0.773  30.679  19.186  0.00  0.00     0.075 H 
BRANCH   5   7
ATOM      7  C2  PRO d          -2.780  29.943  19.088  0.00  0.00    -0.021 C 
ATOM      8  H35 PRO d          -3.348  29.340  18.364  0.00  0.00     0.043 H 
ATOM      9  H36 PRO d          -3.086  30.996  19.008  0.00  0.00     0.043 H 
BRANCH   7  10
ATOM     10  C3  PRO d          -3.172  29.463  20.484  0.00  0.00    -0.056 A 
ATOM     11  C4  PRO d          -2.802  30.258  21.575  0.00  0.00    -0.077 A 
ATOM     12  C6  PRO d          -3.154  29.872  22.866  0.00  0.00    -0.082 A 
ATOM     13  H37 PRO d          -2.241  31.172  21.415  0.00  0.00     0.084 H 
ATOM     14  C8  PRO d          -3.869  28.695  23.081  0.00  0.00    -0.083 A 
ATOM     15  H39 PRO d          -2.871  30.491  23.710  0.00  0.00     0.083 H 
ATOM     16  C7  PRO d          -4.229  27.901  21.997  0.00  0.00    -0.082 A 
ATOM     17  H41 PRO d          -4.144  28.400  24.087  0.00  0.00     0.083 H 
ATOM     18  C5  PRO d          -3.890  28.279  20.702  0.00  0.00    -0.077 A 
ATOM     19  H40 PRO d          -4.778  26.980  22.163  0.00  0.00     0.083 H 
ATOM     20  H38 PRO d          -4.180  27.658  19.863  0.00  0.00     0.084 H 
ENDBRANCH   7  10
ENDBRANCH   5   7
BRANCH   5  21
ATOM     21  C9  PRO d          -0.774  28.533  19.193  0.00  0.00     0.101 C 
ATOM     22  H42 PRO d          -1.613  27.916  19.547  0.00  0.00     0.079 H 
ATOM     23  H43 PRO d          -0.085  28.729  20.028  0.00  0.00     0.079 H 
BRANCH  21  24
ATOM     24  N2  PRO d          -0.065  27.804  18.171  0.00  0.00    -0.060 N 
ATOM     25  H44 PRO d           0.069  28.422  17.386  0.00  0.00     0.278 HD
ATOM     26  H45 PRO d          -0.638  27.024  17.892  0.00  0.00     0.278 HD
BRANCH  24  27
ATOM     27  C10 PRO d           1.250  27.280  18.562  0.00  0.00     0.178 C 
ATOM     28  H46 PRO d           1.407  27.511  19.626  0.00  0.00     0.099 H 
BRANCH  27  29
ATOM     29  C11 PRO d           1.247  25.745  18.381  0.00  0.00    -0.022 C 
ATOM     30  H47 PRO d           2.291  25.436  18.220  0.00  0.00     0.037 H 
ATOM     31  H48 PRO d           0.656  25.526  17.480  0.00  0.00     0.037 H 
BRANCH  29  32
ATOM     32  C12 PRO d           0.687  24.866  19.511  0.00  0.00    -0.021 C 
ATOM     33  H49 PRO d          -0.412  24.894  19.450  0.00  0.00     0.049 H 
ATOM     34  H50 PRO d           1.011  25.298  20.469  0.00  0.00     0.049 H 
BRANCH  32  35
ATOM     35  SD  PRO d           1.204  23.135  19.476  0.00  0.00    -0.173 SA
BRANCH  35  36
ATOM     36  C13 PRO d           2.074  23.077  21.010  0.00  0.00    -0.035 C 
ATOM     37  H51 PRO d           2.795  23.906  21.053  0.00  0.00     0.041 H 
ATOM     38  H52 PRO d           2.609  22.120  21.092  0.00  0.00     0.041 H 
ATOM     39  H53 PRO d           1.359  23.169  21.840  0.00  0.00     0.041 H 
ENDBRANCH  35  36
ENDBRANCH  32  35
ENDBRANCH  29  32
ENDBRANCH  27  29
BRANCH  27  40
ATOM     40  C   PRO d           2.424  27.911  17.759  0.00  0.00     0.249 C 
ATOM     41  O   PRO d           2.594  27.595  16.571  0.00  0.00    -0.271 OA
ATOM     42  N   PRO d           3.179  28.859  18.314  0.00  0.00    -0.346 N 
ATOM     43  H54 PRO d           2.931  29.239  19.206  0.00  0.00     0.163 HD
BRANCH  42  44
ATOM     44  CA  PRO d           4.365  29.342  17.621  0.00  0.00     0.086 C 
ATOM     45  H55 PRO d           4.722  28.660  16.835  0.00  0.00     0.086 H 
BRANCH  44  46
ATOM     46  C   PRO d           5.274  29.387  18.848  0.00  0.00     0.240 C 
ATOM     47  O   PRO d           6.381  28.828  18.848  0.00  0.00    -0.271 OA
ATOM     48  N   PRO d           4.844  30.226  19.786  0.00  0.00    -0.344 N 
ATOM     49  H59 PRO d           3.972  30.695  19.646  0.00  0.00     0.163 HD
BRANCH  48  50
ATOM     50  CA  PRO d           5.590  30.488  21.008  0.00  0.00     0.101 C 
ATOM     51  H60 PRO d           6.400  29.750  21.105  0.00  0.00     0.090 H 
BRANCH  50  52
ATOM     52  C   PRO d           4.677  30.367  22.223  0.00  0.00     0.197 C 
ATOM     53  O   PRO d           3.457  30.413  22.018  0.00  0.00    -0.646 OA
ATOM     54  OXT PRO d           5.212  30.137  23.313  0.00  0.00    -0.646 OA
ENDBRANCH  50  52
BRANCH  50  55
ATOM     55  CB  PRO d           6.210  31.908  20.890  0.00  0.00     0.003 C 
ATOM     56  H61 PRO d           6.856  32.054  21.768  0.00  0.00     0.046 H 
ATOM     57  H62 PRO d           5.379  32.628  20.922  0.00  0.00     0.046 H 
BRANCH  55  58
ATOM     58  CG  PRO d           7.050  32.240  19.650  0.00  0.00     0.030 A 
ATOM     59  ND1 PRO d           8.130  31.618  19.177  0.00  0.00    -0.353 N 
ATOM     60  CE1 PRO d           8.566  32.285  18.131  0.00  0.00     0.063 A 
ATOM     61  H63 PRO d           8.551  30.761  19.564  0.00  0.00     0.166 HD
ATOM     62  NE2 PRO d           7.774  33.332  17.925  0.00  0.00    -0.254 NA
ATOM     63  H65 PRO d           9.436  32.022  17.531  0.00  0.00     0.143 H 
ATOM     64  CD2 PRO d           6.830  33.341  18.830  0.00  0.00     0.025 A 
ATOM     65  H64 PRO d           6.026  34.069  18.922  0.00  0.00     0.117 H 
ENDBRANCH  55  58
ENDBRANCH  50  55
ENDBRANCH  48  50
ENDBRANCH  44  46
BRANCH  44  66
ATOM     66  CB  PRO d           4.139  30.733  17.058  0.00  0.00    -0.049 C 
ATOM     67  H56 PRO d           3.713  30.655  16.047  0.00  0.00     0.030 H 
ATOM     68  H57 PRO d           5.098  31.270  17.011  0.00  0.00     0.030 H 
ATOM     69  H58 PRO d           3.443  31.283  17.709  0.00  0.00     0.030 H 
ENDBRANCH  44  66
ENDBRANCH  42  44
ENDBRANCH  27  40
ENDBRANCH  24  27
ENDBRANCH  21  24
ENDBRANCH   5  21
ENDBRANCH   3   5
BRANCH   1  70
ATOM     70  CA  PRO d          -0.361  31.049  15.189  0.00  0.00     0.109 C 
ATOM     71  H29 PRO d          -1.279  31.594  14.925  0.00  0.00     0.090 H 
BRANCH  70  72
ATOM     72  N   PRO d           0.795  31.822  14.707  0.00  0.00    -0.344 N 
ATOM     73  C   PRO d           0.732  32.806  13.802  0.00  0.00     0.241 C 
ATOM     74  O   PRO d          -0.338  33.053  13.222  0.00  0.00    -0.271 OA
ATOM     75  H28 PRO d           1.694  31.596  15.084  0.00  0.00     0.163 HD
BRANCH  73  76
ATOM     76  CA  PRO d           2.040  33.488  13.395  0.00  0.00     0.089 C 
ATOM     77  H18 PRO d           2.261  33.161  12.369  0.00  0.00     0.087 H 
BRANCH  76  78
ATOM     78  N   PRO d           1.932  34.940  13.416  0.00  0.00    -0.346 N 
ATOM     79  C   PRO d           1.940  35.617  12.271  0.00  0.00     0.241 C 
ATOM     80  O   PRO d           1.955  35.021  11.189  0.00  0.00    -0.271 OA
ATOM     81  H17 PRO d           1.852  35.425  14.286  0.00  0.00     0.163 HD
BRANCH  79  82
ATOM     82  CA  PRO d           1.961  37.133  12.204  0.00  0.00     0.094 C 
ATOM     83  H11 PRO d           2.005  37.490  11.164  0.00  0.00     0.088 H 
BRANCH  82  84
ATOM     84  N   PRO d           0.723  37.596  12.850  0.00  0.00    -0.346 N 
ATOM     85  C   PRO d          -0.484  37.735  12.256  0.00  0.00     0.249 C 
ATOM     86  O   PRO d          -0.708  37.398  11.079  0.00  0.00    -0.271 OA
ATOM     87  H10 PRO d           0.779  37.830  13.821  0.00  0.00     0.163 HD
BRANCH  85  88
ATOM     88  CA  PRO d          -1.664  38.320  13.047  0.00  0.00     0.178 C 
ATOM     89  N   PRO d          -2.824  37.504  12.709  0.00  0.00    -0.062 N 
ATOM     90  CD  PRO d          -3.622  37.334  13.923  0.00  0.00     0.083 C 
ATOM     91  H1  PRO d          -2.523  36.605  12.367  0.00  0.00     0.278 HD
ATOM     92  H2  PRO d          -3.373  37.967  12.001  0.00  0.00     0.278 HD
ATOM     93  CG  PRO d          -2.980  38.223  14.993  0.00  0.00    -0.040 C 
ATOM     94  H8  PRO d          -3.606  36.282  14.243  0.00  0.00     0.075 H 
ATOM     95  H9  PRO d          -4.661  37.646  13.742  0.00  0.00     0.075 H 
ATOM     96  CB  PRO d          -1.517  38.213  14.561  0.00  0.00    -0.028 C 
ATOM     97  H6  PRO d          -3.398  39.240  14.973  0.00  0.00     0.035 H 
ATOM     98  H7  PRO d          -3.104  37.794  15.999  0.00  0.00     0.035 H 
ATOM     99  H4  PRO d          -0.967  39.071  14.975  0.00  0.00     0.036 H 
ATOM    100  H5  PRO d          -1.014  37.280  14.854  0.00  0.00     0.036 H 
ATOM    101  H3  PRO d          -1.815  39.371  12.762  0.00  0.00     0.099 H 
ENDBRANCH  85  88
ENDBRANCH  82  84
BRANCH  82 102
ATOM    102  CB  PRO d           3.202  37.572  12.965  0.00  0.00     0.002 C 
ATOM    103  H12 PRO d           3.856  36.699  13.106  0.00  0.00     0.046 H 
ATOM    104  H13 PRO d           2.894  37.962  13.946  0.00  0.00     0.046 H 
BRANCH 102 105
ATOM    105  CG  PRO d           3.971  38.640  12.241  0.00  0.00     0.030 A 
ATOM    106  ND1 PRO d           4.099  38.731  10.927  0.00  0.00    -0.353 N 
ATOM    107  CE1 PRO d           4.884  39.748  10.721  0.00  0.00     0.063 A 
ATOM    108  H14 PRO d           3.668  38.123  10.215  0.00  0.00     0.166 HD
ATOM    109  NE2 PRO d           5.236  40.296  11.866  0.00  0.00    -0.254 NA
ATOM    110  H16 PRO d           5.205  40.097   9.741  0.00  0.00     0.143 H 
ATOM    111  CD2 PRO d           4.691  39.644  12.849  0.00  0.00     0.025 A 
ATOM    112  H15 PRO d           4.783  39.846  13.915  0.00  0.00     0.117 H 
ENDBRANCH 102 105
ENDBRANCH  82 102
ENDBRANCH  79  82
ENDBRANCH  76  78
BRANCH  76 113
ATOM    113  CB  PRO d           3.284  33.175  14.284  0.00  0.00    -0.035 C 
ATOM    114  H19 PRO d           3.059  32.264  14.858  0.00  0.00     0.037 H 
ATOM    115  H20 PRO d           3.419  34.020  14.974  0.00  0.00     0.037 H 
BRANCH 113 116
ATOM    116  CG  PRO d           4.667  32.941  13.541  0.00  0.00    -0.059 C 
ATOM    117  H21 PRO d           4.640  31.970  13.025  0.00  0.00     0.038 H 
BRANCH 116 118
ATOM    118  CD1 PRO d           4.997  34.069  12.566  0.00  0.00    -0.073 C 
ATOM    119  H22 PRO d           5.576  34.846  13.087  0.00  0.00     0.028 H 
ATOM    120  H23 PRO d           4.064  34.504  12.180  0.00  0.00     0.028 H 
ATOM    121  H24 PRO d           5.589  33.669  11.730  0.00  0.00     0.028 H 
ENDBRANCH 116 118
BRANCH 116 122
ATOM    122  CD2 PRO d           5.837  33.016  14.509  0.00  0.00    -0.073 C 
ATOM    123  H25 PRO d           6.744  33.319  13.966  0.00  0.00     0.028 H 
ATOM    124  H26 PRO d           5.996  32.029  14.968  0.00  0.00     0.028 H 
ATOM    125  H27 PRO d           5.616  33.754  15.294  0.00  0.00     0.028 H 
ENDBRANCH 116 122
ENDBRANCH 113 116
ENDBRANCH  76 113
ENDBRANCH  73  76
ENDBRANCH  70  72
BRANCH  70 126
ATOM    126  CB  PRO d          -0.408  29.632  14.533  0.00  0.00     0.044 C 
ATOM    127  H30 PRO d           0.093  29.699  13.556  0.00  0.00     0.077 H 
ATOM    128  H31 PRO d          -1.465  29.367  14.386  0.00  0.00     0.077 H 
BRANCH 126 129
ATOM    129  OG  PRO d           0.210  28.569  15.267  0.00  0.00    -0.398 OA
ATOM    130  H32 PRO d           0.062  27.747  14.816  0.00  0.00     0.209 HD
ENDBRANCH 126 129
ENDBRANCH  70 126
ENDBRANCH   1  70
TORSDOF 33
ENDMDL
MODEL 2
REMARK VINA RESULT:      -6.6      1.633      2.158
REMARK WARNING: 32 MAX_TORS EXCEEDED!!!
REMARK  33 active torsions:
REMARK  status: ('A' for Active; 'I' for Inactive)
REMARK    1  A    between atoms: CA_2  and  C_3 
REMARK       I    between atoms: C_3  and  N_8 
REMARK    2  A    between atoms: N_8  and  CA_9 
REMARK    3  A    between atoms: CA_9  and  C_10 
REMARK    4  A    between atoms: CA_9  and  CB_12 
REMARK       I    between atoms: C_10  and  N_18 
REMARK    5  A    between atoms: CB_12  and  CG_13 
REMARK    6  A    between atoms: N_18  and  CA_19 
REMARK    7  A    between atoms: CA_19  and  C_20 
REMARK    8  A    between atoms: CA_19  and  CB_22 
REMARK       I    between atoms: C_20  and  N_26 
REMARK    9  A    between atoms: CB_22  and  CG_23 
REMARK   10  A    between atoms: CG_23  and  CD1_24 
REMARK   11  A    between atoms: CG_23  and  CD2_25 
REMARK   12  A    between atoms: N_26  and  CA_27 
REMARK   13  A    between atoms: CA_27  and  C_28 
REMARK   14  A    between atoms: CA_27  and  CB_30 
REMARK       I    between atoms: C_28  and  N_32 
REMARK   15  A    between atoms: CB_30  and  OG_31 
REMARK   16  A    between atoms: N_32  and  C1_33 
REMARK   17  A    between atoms: C1_33  and  C2_34 
REMARK   18  A    between atoms: C1_33  and  C9_41 
REMARK   19  A    between atoms: C2_34  and  C3_35 
REMARK   20  A    between atoms: C9_41  and  N2_42 
REMARK   21  A    between atoms: N2_42  and  C10_43 
REMARK   22  A    between atoms: C10_43  and  C11_44 
REMARK   23  A    between atoms: C10_43  and  C_48 
REMARK   24  A    between atoms: C11_44  and  C12_45 
REMARK   25  A    between atoms: C12_45  and  SD_46 
REMARK   26  A    between atoms: SD_46  and  C13_47 
REMARK       I    between atoms: C_48  and  N_50 
REMARK   27  A    between atoms: N_50  and  CA_51 
REMARK   28  A    between atoms: CA_51  and  C_52 
REMARK   29  A    between atoms: CA_51  and  CB_54 
REMARK       I    between atoms: C_52  and  N_55 
REMARK   30  A    between atoms: N_55  and  CA_56 
REMARK   31  A    between atoms: CA_56  and  C_57 
REMARK   32  A    between atoms: CA_56  and  CB_59 
REMARK   33  A    between atoms: CB_59  and  CG_60 
ROOT
ATOM      1  C   PRO d          -0.072  31.121  16.613  0.00  0.00     0.242 C 
ATOM      2  O   PRO d           0.894  31.661  17.194  0.00  0.00    -0.271 OA
ATOM      3  N   PRO d          -1.002  30.450  17.299  0.00  0.00    -0.353 N 
ATOM      4  H33 PRO d          -1.710  29.953  16.796  0.00  0.00     0.163 HD
ENDROOT
BRANCH   3   5
ATOM      5  C1  PRO d          -1.019  30.417  18.756  0.00  0.00     0.039 C 
ATOM      6  H34 PRO d          -0.448  31.283  19.121  0.00  0.00     0.075 H 
BRANCH   5   7
ATOM      7  C2  PRO d          -2.441  30.515  19.258  0.00  0.00    -0.021 C 
ATOM      8  H35 PRO d          -2.681  29.558  19.745  0.00  0.00     0.043 H 
ATOM      9  H36 PRO d          -3.088  30.652  18.380  0.00  0.00     0.043 H 
BRANCH   7  10
ATOM     10  C3  PRO d          -2.780  31.626  20.249  0.00  0.00    -0.056 A 
ATOM     11  C4  PRO d          -2.414  31.441  21.587  0.00  0.00    -0.077 A 
ATOM     12  C6  PRO d          -2.684  32.436  22.524  0.00  0.00    -0.082 A 
ATOM     13  H37 PRO d          -1.922  30.525  21.894  0.00  0.00     0.084 H 
ATOM     14  C8  PRO d          -3.322  33.614  22.140  0.00  0.00    -0.083 A 
ATOM     15  H39 PRO d          -2.396  32.293  23.559  0.00  0.00     0.083 H 
ATOM     16  C7  PRO d          -3.694  33.793  20.812  0.00  0.00    -0.082 A 
ATOM     17  H41 PRO d          -3.527  34.386  22.872  0.00  0.00     0.083 H 
ATOM     18  C5  PRO d          -3.423  32.811  19.865  0.00  0.00    -0.077 A 
ATOM     19  H40 PRO d          -4.198  34.705  20.512  0.00  0.00     0.083 H 
ATOM     20  H38 PRO d          -3.709  32.962  18.830  0.00  0.00     0.084 H 
ENDBRANCH   7  10
ENDBRANCH   5   7
BRANCH   5  21
ATOM     21  C9  PRO d          -0.403  29.149  19.345  0.00  0.00     0.101 C 
ATOM     22  H42 PRO d          -1.124  28.325  19.237  0.00  0.00     0.079 H 
ATOM     23  H43 PRO d          -0.200  29.320  20.413  0.00  0.00     0.079 H 
BRANCH  21  24
ATOM     24  N2  PRO d           0.828  28.775  18.695  0.00  0.00    -0.060 N 
ATOM     25  H44 PRO d           1.065  29.503  18.040  0.00  0.00     0.278 HD
ATOM     26  H45 PRO d           0.666  27.914  18.197  0.00  0.00     0.278 HD
BRANCH  24  27
ATOM     27  C10 PRO d           1.979  28.574  19.583  0.00  0.00     0.178 C 
ATOM     28  H46 PRO d           2.280  29.555  19.980  0.00  0.00     0.099 H 
BRANCH  27  29
ATOM     29  C11 PRO d           1.546  27.673  20.762  0.00  0.00    -0.022 C 
ATOM     30  H47 PRO d           0.467  27.833  20.912  0.00  0.00     0.037 H 
ATOM     31  H48 PRO d           2.095  28.017  21.651  0.00  0.00     0.037 H 
BRANCH  29  32
ATOM     32  C12 PRO d           1.765  26.155  20.656  0.00  0.00    -0.021 C 
ATOM     33  H49 PRO d           1.809  25.746  21.677  0.00  0.00     0.049 H 
ATOM     34  H50 PRO d           2.728  25.986  20.153  0.00  0.00     0.049 H 
BRANCH  32  35
ATOM     35  SD  PRO d           0.493  25.250  19.746  0.00  0.00    -0.173 SA
BRANCH  35  36
ATOM     36  C13 PRO d           1.441  23.837  19.283  0.00  0.00    -0.035 C 
ATOM     37  H51 PRO d           2.287  24.153  18.655  0.00  0.00     0.041 H 
ATOM     38  H52 PRO d           0.806  23.138  18.718  0.00  0.00     0.041 H 
ATOM     39  H53 PRO d           1.821  23.337  20.186  0.00  0.00     0.041 H 
ENDBRANCH  35  36
ENDBRANCH  32  35
ENDBRANCH  29  32
ENDBRANCH  27  29
BRANCH  27  40
ATOM     40  C   PRO d           3.210  27.955  18.860  0.00  0.00     0.249 C 
ATOM     41  O   PRO d           3.046  27.321  17.805  0.00  0.00    -0.271 OA
ATOM     42  N   PRO d           4.440  28.190  19.315  0.00  0.00    -0.346 N 
ATOM     43  H54 PRO d           4.582  28.845  20.058  0.00  0.00     0.163 HD
BRANCH  42  44
ATOM     44  CA  PRO d           5.577  27.494  18.730  0.00  0.00     0.086 C 
ATOM     45  H55 PRO d           5.316  26.519  18.290  0.00  0.00     0.086 H 
BRANCH  44  46
ATOM     46  C   PRO d           6.391  27.383  20.018  0.00  0.00     0.240 C 
ATOM     47  O   PRO d           7.491  26.810  20.035  0.00  0.00    -0.271 OA
ATOM     48  N   PRO d           5.898  28.115  21.012  0.00  0.00    -0.344 N 
ATOM     49  H59 PRO d           5.043  28.612  20.864  0.00  0.00     0.163 HD
BRANCH  48  50
ATOM     50  CA  PRO d           6.552  28.223  22.308  0.00  0.00     0.101 C 
ATOM     51  H60 PRO d           6.975  27.246  22.584  0.00  0.00     0.090 H 
BRANCH  50  52
ATOM     52  C   PRO d           5.546  28.635  23.377  0.00  0.00     0.197 C 
ATOM     53  O   PRO d           5.955  28.685  24.545  0.00  0.00    -0.646 OA
ATOM     54  OXT PRO d           4.424  28.983  22.995  0.00  0.00    -0.646 OA
ENDBRANCH  50  52
BRANCH  50  55
ATOM     55  CB  PRO d           7.706  29.255  22.172  0.00  0.00     0.003 C 
ATOM     56  H61 PRO d           8.380  28.887  21.385  0.00  0.00     0.046 H 
ATOM     57  H62 PRO d           8.240  29.272  23.134  0.00  0.00     0.046 H 
BRANCH  55  58
ATOM     58  CG  PRO d           7.354  30.707  21.824  0.00  0.00     0.030 A 
ATOM     59  ND1 PRO d           7.214  31.754  22.637  0.00  0.00    -0.353 N 
ATOM     60  CE1 PRO d           6.842  32.789  21.917  0.00  0.00     0.063 A 
ATOM     61  H63 PRO d           7.369  31.753  23.656  0.00  0.00     0.166 HD
ATOM     62  NE2 PRO d           6.743  32.418  20.645  0.00  0.00    -0.254 NA
ATOM     63  H65 PRO d           6.645  33.789  22.301  0.00  0.00     0.143 H 
ATOM     64  CD2 PRO d           7.053  31.152  20.542  0.00  0.00     0.025 A 
ATOM     65  H64 PRO d           7.071  30.560  19.628  0.00  0.00     0.117 H 
ENDBRANCH  55  58
ENDBRANCH  50  55
ENDBRANCH  48  50
ENDBRANCH  44  46
BRANCH  44  66
ATOM     66  CB  PRO d           6.286  28.367  17.710  0.00  0.00    -0.049 C 
ATOM     67  H56 PRO d           7.025  29.001  18.222  0.00  0.00     0.030 H 
ATOM     68  H57 PRO d           5.550  29.003  17.198  0.00  0.00     0.030 H 
ATOM     69  H58 PRO d           6.797  27.729  16.974  0.00  0.00     0.030 H 
ENDBRANCH  44  66
ENDBRANCH  42  44
ENDBRANCH  27  40
ENDBRANCH  24  27
ENDBRANCH  21  24
ENDBRANCH   5  21
ENDBRANCH   3   5
BRANCH   1  70
ATOM     70  CA  PRO d          -0.259  31.155  15.086  0.00  0.00     0.109 C 
ATOM     71  H29 PRO d          -1.173  31.719  14.850  0.00  0.00     0.090 H 
BRANCH  70  72
ATOM     72  N   PRO d           0.883  31.826  14.443  0.00  0.00    -0.344 N 
ATOM     73  C   PRO d           0.788  32.894  13.642  0.00  0.00     0.241 C 
ATOM     74  O   PRO d          -0.327  33.324  13.304  0.00  0.00    -0.271 OA
ATOM     75  H28 PRO d           1.796  31.457  14.618  0.00  0.00     0.163 HD
BRANCH  73  76
ATOM     76  CA  PRO d           2.079  33.449  13.036  0.00  0.00     0.089 C 
ATOM     77  H18 PRO d           2.060  33.197  11.966  0.00  0.00     0.087 H 
BRANCH  76  78
ATOM     78  N   PRO d           2.175  34.894  13.180  0.00  0.00    -0.346 N 
ATOM     79  C   PRO d           2.073  35.671  12.104  0.00  0.00     0.241 C 
ATOM     80  O   PRO d           1.815  35.183  10.999  0.00  0.00    -0.271 OA
ATOM     81  H17 PRO d           2.317  35.302  14.081  0.00  0.00     0.163 HD
BRANCH  79  82
ATOM     82  CA  PRO d           2.289  37.173  12.141  0.00  0.00     0.094 C 
ATOM     83  H11 PRO d           2.197  37.618  11.139  0.00  0.00     0.088 H 
BRANCH  82  84
ATOM     84  N   PRO d           1.259  37.719  13.038  0.00  0.00    -0.346 N 
ATOM     85  C   PRO d          -0.013  38.032  12.697  0.00  0.00     0.249 C 
ATOM     86  O   PRO d          -0.492  37.809  11.570  0.00  0.00    -0.271 OA
ATOM     87  H10 PRO d           1.523  37.874  13.990  0.00  0.00     0.163 HD
BRANCH  85  88
ATOM     88  CA  PRO d          -0.944  38.683  13.731  0.00  0.00     0.178 C 
ATOM     89  N   PRO d          -1.968  37.691  14.036  0.00  0.00    -0.062 N 
ATOM     90  CD  PRO d          -2.258  37.771  15.467  0.00  0.00     0.083 C 
ATOM     91  H1  PRO d          -1.631  36.769  13.805  0.00  0.00     0.278 HD
ATOM     92  H2  PRO d          -2.803  37.886  13.506  0.00  0.00     0.278 HD
ATOM     93  CG  PRO d          -1.478  38.977  16.001  0.00  0.00    -0.040 C 
ATOM     94  H8  PRO d          -1.930  36.852  15.974  0.00  0.00     0.075 H 
ATOM     95  H9  PRO d          -3.336  37.914  15.629  0.00  0.00     0.075 H 
ATOM     96  CB  PRO d          -0.275  39.003  15.062  0.00  0.00    -0.028 C 
ATOM     97  H6  PRO d          -2.067  39.902  15.925  0.00  0.00     0.035 H 
ATOM     98  H7  PRO d          -1.168  38.825  17.046  0.00  0.00     0.035 H 
ATOM     99  H4  PRO d           0.204  39.993  15.047  0.00  0.00     0.036 H 
ATOM    100  H5  PRO d           0.469  38.240  15.335  0.00  0.00     0.036 H 
ATOM    101  H3  PRO d          -1.385  39.597  13.307  0.00  0.00     0.099 H 
ENDBRANCH  85  88
ENDBRANCH  82  84
BRANCH  82 102
ATOM    102  CB  PRO d           3.692  37.384  12.687  0.00  0.00     0.002 C 
ATOM    103  H12 PRO d           4.306  36.510  12.428  0.00  0.00     0.046 H 
ATOM    104  H13 PRO d           3.634  37.481  13.781  0.00  0.00     0.046 H 
BRANCH 102 105
ATOM    105  CG  PRO d           4.345  38.615  12.127  0.00  0.00     0.030 A 
ATOM    106  ND1 PRO d           4.474  38.894  10.840  0.00  0.00    -0.353 N 
ATOM    107  CE1 PRO d           5.144  40.009  10.788  0.00  0.00     0.063 A 
ATOM    108  H14 PRO d           4.118  38.344  10.045  0.00  0.00     0.166 HD
ATOM    109  NE2 PRO d           5.423  40.433  12.003  0.00  0.00    -0.254 NA
ATOM    110  H16 PRO d           5.433  40.518   9.870  0.00  0.00     0.143 H 
ATOM    111  CD2 PRO d           4.945  39.601  12.878  0.00  0.00     0.025 A 
ATOM    112  H15 PRO d           5.005  39.668  13.964  0.00  0.00     0.117 H 
ENDBRANCH 102 105
ENDBRANCH  82 102
ENDBRANCH  79  82
ENDBRANCH  76  78
BRANCH  76 113
ATOM    113  CB  PRO d           3.411  32.905  13.640  0.00  0.00    -0.035 C 
ATOM    114  H19 PRO d           4.142  32.837  12.821  0.00  0.00     0.037 H 
ATOM    115  H20 PRO d           3.209  31.899  14.036  0.00  0.00     0.037 H 
BRANCH 113 116
ATOM    116  CG  PRO d           4.079  33.751  14.806  0.00  0.00    -0.059 C 
ATOM    117  H21 PRO d           3.719  34.788  14.750  0.00  0.00     0.038 H 
BRANCH 116 118
ATOM    118  CD1 PRO d           3.807  33.151  16.183  0.00  0.00    -0.073 C 
ATOM    119  H22 PRO d           4.534  33.549  16.906  0.00  0.00     0.028 H 
ATOM    120  H23 PRO d           3.902  32.057  16.131  0.00  0.00     0.028 H 
ATOM    121  H24 PRO d           2.788  33.416  16.503  0.00  0.00     0.028 H 
ENDBRANCH 116 118
BRANCH 116 122
ATOM    122  CD2 PRO d           5.596  33.691  14.736  0.00  0.00    -0.073 C 
ATOM    123  H25 PRO d           6.011  34.698  14.893  0.00  0.00     0.028 H 
ATOM    124  H26 PRO d           5.903  33.318  13.747  0.00  0.00     0.028 H 
ATOM    125  H27 PRO d           5.973  33.014  15.516  0.00  0.00     0.028 H 
ENDBRANCH 116 122
ENDBRANCH 113 116
ENDBRANCH  76 113
ENDBRANCH  73  76
ENDBRANCH  70  72
BRANCH  70 126
ATOM    126  CB  PRO d          -0.421  29.691  14.568  0.00  0.00     0.044 C 
ATOM    127  H30 PRO d           0.115  29.613  13.610  0.00  0.00     0.077 H 
ATOM    128  H31 PRO d          -1.493  29.510  14.403  0.00  0.00     0.077 H 
BRANCH 126 129
ATOM    129  OG  PRO d           0.069  28.653  15.425  0.00  0.00    -0.398 OA
ATOM    130  H32 PRO d           0.849  28.956  15.873  0.00  0.00     0.209 HD
ENDBRANCH 126 129
ENDBRANCH  70 126
ENDBRANCH   1  70
TORSDOF 33
ENDMDL
MODEL 3
REMARK VINA RESULT:      -6.0      2.844     11.033
REMARK WARNING: 32 MAX_TORS EXCEEDED!!!
REMARK  33 active torsions:
REMARK  status: ('A' for Active; 'I' for Inactive)
REMARK    1  A    between atoms: CA_2  and  C_3 
REMARK       I    between atoms: C_3  and  N_8 
REMARK    2  A    between atoms: N_8  and  CA_9 
REMARK    3  A    between atoms: CA_9  and  C_10 
REMARK    4  A    between atoms: CA_9  and  CB_12 
REMARK       I    between atoms: C_10  and  N_18 
REMARK    5  A    between atoms: CB_12  and  CG_13 
REMARK    6  A    between atoms: N_18  and  CA_19 
REMARK    7  A    between atoms: CA_19  and  C_20 
REMARK    8  A    between atoms: CA_19  and  CB_22 
REMARK       I    between atoms: C_20  and  N_26 
REMARK    9  A    between atoms: CB_22  and  CG_23 
REMARK   10  A    between atoms: CG_23  and  CD1_24 
REMARK   11  A    between atoms: CG_23  and  CD2_25 
REMARK   12  A    between atoms: N_26  and  CA_27 
REMARK   13  A    between atoms: CA_27  and  C_28 
REMARK   14  A    between atoms: CA_27  and  CB_30 
REMARK       I    between atoms: C_28  and  N_32 
REMARK   15  A    between atoms: CB_30  and  OG_31 
REMARK   16  A    between atoms: N_32  and  C1_33 
REMARK   17  A    between atoms: C1_33  and  C2_34 
REMARK   18  A    between atoms: C1_33  and  C9_41 
REMARK   19  A    between atoms: C2_34  and  C3_35 
REMARK   20  A    between atoms: C9_41  and  N2_42 
REMARK   21  A    between atoms: N2_42  and  C10_43 
REMARK   22  A    between atoms: C10_43  and  C11_44 
REMARK   23  A    between atoms: C10_43  and  C_48 
REMARK   24  A    between atoms: C11_44  and  C12_45 
REMARK   25  A    between atoms: C12_45  and  SD_46 
REMARK   26  A    between atoms: SD_46  and  C13_47 
REMARK       I    between atoms: C_48  and  N_50 
REMARK   27  A    between atoms: N_50  and  CA_51 
REMARK   28  A    between atoms: CA_51  and  C_52 
REMARK   29  A    between atoms: CA_51  and  CB_54 
REMARK       I    between atoms: C_52  and  N_55 
REMARK   30  A    between atoms: N_55  and  CA_56 
REMARK   31  A    between atoms: CA_56  and  C_57 
REMARK   32  A    between atoms: CA_56  and  CB_59 
REMARK   33  A    between atoms: CB_59  and  CG_60 
ROOT
ATOM      1  C   PRO d           1.346  29.385  16.773  0.00  0.00     0.242 C 
ATOM      2  O   PRO d           2.175  29.013  15.916  0.00  0.00    -0.271 OA
ATOM      3  N   PRO d           1.331  30.644  17.220  0.00  0.00    -0.353 N 
ATOM      4  H33 PRO d           0.717  30.884  17.971  0.00  0.00     0.163 HD
ENDROOT
BRANCH   3   5
ATOM      5  C1  PRO d           2.182  31.680  16.647  0.00  0.00     0.039 C 
ATOM      6  H34 PRO d           2.289  32.482  17.392  0.00  0.00     0.075 H 
BRANCH   5   7
ATOM      7  C2  PRO d           3.547  31.112  16.334  0.00  0.00    -0.021 C 
ATOM      8  H35 PRO d           3.470  30.593  15.367  0.00  0.00     0.043 H 
ATOM      9  H36 PRO d           3.786  30.384  17.123  0.00  0.00     0.043 H 
BRANCH   7  10
ATOM     10  C3  PRO d           4.725  32.078  16.237  0.00  0.00    -0.056 A 
ATOM     11  C4  PRO d           5.631  32.111  17.304  0.00  0.00    -0.077 A 
ATOM     12  C6  PRO d           6.733  32.962  17.252  0.00  0.00    -0.082 A 
ATOM     13  H37 PRO d           5.476  31.476  18.168  0.00  0.00     0.084 H 
ATOM     14  C8  PRO d           6.937  33.787  16.147  0.00  0.00    -0.083 A 
ATOM     15  H39 PRO d           7.437  32.983  18.076  0.00  0.00     0.083 H 
ATOM     16  C7  PRO d           6.031  33.761  15.093  0.00  0.00    -0.082 A 
ATOM     17  H41 PRO d           7.797  34.445  16.111  0.00  0.00     0.083 H 
ATOM     18  C5  PRO d           4.931  32.910  15.129  0.00  0.00    -0.077 A 
ATOM     19  H40 PRO d           6.183  34.408  14.236  0.00  0.00     0.083 H 
ATOM     20  H38 PRO d           4.234  32.890  14.299  0.00  0.00     0.084 H 
ENDBRANCH   7  10
ENDBRANCH   5   7
BRANCH   5  21
ATOM     21  C9  PRO d           1.624  32.286  15.361  0.00  0.00     0.101 C 
ATOM     22  H42 PRO d           2.465  32.542  14.698  0.00  0.00     0.079 H 
ATOM     23  H43 PRO d           1.068  33.201  15.615  0.00  0.00     0.079 H 
BRANCH  21  24
ATOM     24  N2  PRO d           0.741  31.388  14.660  0.00  0.00    -0.060 N 
ATOM     25  H44 PRO d           0.262  30.827  15.346  0.00  0.00     0.278 HD
ATOM     26  H45 PRO d           1.305  30.794  14.073  0.00  0.00     0.278 HD
BRANCH  24  27
ATOM     27  C10 PRO d          -0.273  32.028  13.813  0.00  0.00     0.178 C 
ATOM     28  H46 PRO d          -0.616  31.289  13.073  0.00  0.00     0.099 H 
BRANCH  27  29
ATOM     29  C11 PRO d          -1.473  32.438  14.697  0.00  0.00    -0.022 C 
ATOM     30  H47 PRO d          -2.387  32.206  14.129  0.00  0.00     0.037 H 
ATOM     31  H48 PRO d          -1.403  33.525  14.852  0.00  0.00     0.037 H 
BRANCH  29  32
ATOM     32  C12 PRO d          -1.628  31.794  16.084  0.00  0.00    -0.021 C 
ATOM     33  H49 PRO d          -1.018  32.370  16.796  0.00  0.00     0.049 H 
ATOM     34  H50 PRO d          -1.246  30.764  16.024  0.00  0.00     0.049 H 
BRANCH  32  35
ATOM     35  SD  PRO d          -3.317  31.726  16.722  0.00  0.00    -0.173 SA
BRANCH  35  36
ATOM     36  C13 PRO d          -3.862  33.329  16.225  0.00  0.00    -0.035 C 
ATOM     37  H51 PRO d          -3.387  34.090  16.860  0.00  0.00     0.041 H 
ATOM     38  H52 PRO d          -4.955  33.393  16.330  0.00  0.00     0.041 H 
ATOM     39  H53 PRO d          -3.585  33.501  15.175  0.00  0.00     0.041 H 
ENDBRANCH  35  36
ENDBRANCH  32  35
ENDBRANCH  29  32
ENDBRANCH  27  29
BRANCH  27  40
ATOM     40  C   PRO d           0.268  33.263  13.036  0.00  0.00     0.249 C 
ATOM     41  O   PRO d          -0.425  34.291  12.961  0.00  0.00    -0.271 OA
ATOM     42  N   PRO d           1.505  33.252  12.542  0.00  0.00    -0.346 N 
ATOM     43  H54 PRO d           2.123  32.495  12.755  0.00  0.00     0.163 HD
BRANCH  42  44
ATOM     44  CA  PRO d           1.957  34.343  11.690  0.00  0.00     0.086 C 
ATOM     45  H55 PRO d           2.898  34.129  11.164  0.00  0.00     0.086 H 
BRANCH  44  46
ATOM     46  C   PRO d           2.103  35.379  12.804  0.00  0.00     0.240 C 
ATOM     47  O   PRO d           2.784  35.146  13.813  0.00  0.00    -0.271 OA
ATOM     48  N   PRO d           1.607  36.570  12.478  0.00  0.00    -0.344 N 
ATOM     49  H59 PRO d           1.150  36.673  11.595  0.00  0.00     0.163 HD
BRANCH  48  50
ATOM     50  CA  PRO d           1.705  37.728  13.355  0.00  0.00     0.101 C 
ATOM     51  H60 PRO d           1.331  37.460  14.354  0.00  0.00     0.090 H 
BRANCH  50  52
ATOM     52  C   PRO d           0.860  38.876  12.813  0.00  0.00     0.197 C 
ATOM     53  O   PRO d           0.423  38.758  11.660  0.00  0.00    -0.646 OA
ATOM     54  OXT PRO d           0.591  39.797  13.590  0.00  0.00    -0.646 OA
ENDBRANCH  50  52
BRANCH  50  55
ATOM     55  CB  PRO d           3.206  38.116  13.463  0.00  0.00     0.003 C 
ATOM     56  H61 PRO d           3.767  37.190  13.656  0.00  0.00     0.046 H 
ATOM     57  H62 PRO d           3.305  38.793  14.325  0.00  0.00     0.046 H 
BRANCH  55  58
ATOM     58  CG  PRO d           3.872  38.808  12.266  0.00  0.00     0.030 A 
ATOM     59  ND1 PRO d           3.575  38.712  10.970  0.00  0.00    -0.353 N 
ATOM     60  CE1 PRO d           4.449  39.425  10.293  0.00  0.00     0.063 A 
ATOM     61  H63 PRO d           2.796  38.172  10.567  0.00  0.00     0.166 HD
ATOM     62  NE2 PRO d           5.305  39.982  11.143  0.00  0.00    -0.254 NA
ATOM     63  H65 PRO d           4.467  39.540   9.210  0.00  0.00     0.143 H 
ATOM     64  CD2 PRO d           4.986  39.634  12.363  0.00  0.00     0.025 A 
ATOM     65  H64 PRO d           5.495  39.934  13.277  0.00  0.00     0.117 H 
ENDBRANCH  55  58
ENDBRANCH  50  55
ENDBRANCH  48  50
ENDBRANCH  44  46
BRANCH  44  66
ATOM     66  CB  PRO d           0.875  34.751  10.706  0.00  0.00    -0.049 C 
ATOM     67  H56 PRO d           1.273  34.698   9.682  0.00  0.00     0.030 H 
ATOM     68  H57 PRO d           0.553  35.780  10.921  0.00  0.00     0.030 H 
ATOM     69  H58 PRO d           0.017  34.069  10.801  0.00  0.00     0.030 H 
ENDBRANCH  44  66
ENDBRANCH  42  44
ENDBRANCH  27  40
ENDBRANCH  24  27
ENDBRANCH  21  24
ENDBRANCH   5  21
ENDBRANCH   3   5
BRANCH   1  70
ATOM     70  CA  PRO d           0.307  28.439  17.401  0.00  0.00     0.109 C 
ATOM     71  H29 PRO d          -0.153  27.834  16.607  0.00  0.00     0.090 H 
BRANCH  70  72
ATOM     72  N   PRO d           0.952  27.532  18.365  0.00  0.00    -0.344 N 
ATOM     73  C   PRO d           1.280  26.260  18.113  0.00  0.00     0.241 C 
ATOM     74  O   PRO d           0.945  25.728  17.042  0.00  0.00    -0.271 OA
ATOM     75  H28 PRO d           1.161  27.894  19.274  0.00  0.00     0.163 HD
BRANCH  73  76
ATOM     76  CA  PRO d           1.923  25.451  19.243  0.00  0.00     0.089 C 
ATOM     77  H18 PRO d           2.692  24.816  18.778  0.00  0.00     0.087 H 
BRANCH  76  78
ATOM     78  N   PRO d           2.554  26.305  20.239  0.00  0.00    -0.346 N 
ATOM     79  C   PRO d           3.847  26.151  20.514  0.00  0.00     0.241 C 
ATOM     80  O   PRO d           4.534  25.349  19.874  0.00  0.00    -0.271 OA
ATOM     81  H17 PRO d           2.018  27.003  20.714  0.00  0.00     0.163 HD
BRANCH  79  82
ATOM     82  CA  PRO d           4.554  26.907  21.624  0.00  0.00     0.094 C 
ATOM     83  H11 PRO d           5.520  26.443  21.874  0.00  0.00     0.088 H 
BRANCH  82  84
ATOM     84  N   PRO d           4.758  28.278  21.132  0.00  0.00    -0.346 N 
ATOM     85  C   PRO d           5.903  28.994  21.215  0.00  0.00     0.249 C 
ATOM     86  O   PRO d           6.968  28.528  21.659  0.00  0.00    -0.271 OA
ATOM     87  H10 PRO d           3.977  28.723  20.693  0.00  0.00     0.163 HD
BRANCH  85  88
ATOM     88  CA  PRO d           5.929  30.453  20.734  0.00  0.00     0.178 C 
ATOM     89  N   PRO d           5.124  31.209  21.686  0.00  0.00    -0.062 N 
ATOM     90  CD  PRO d           5.774  32.501  21.897  0.00  0.00     0.083 C 
ATOM     91  H1  PRO d           5.065  30.708  22.559  0.00  0.00     0.278 HD
ATOM     92  H2  PRO d           4.197  31.348  21.315  0.00  0.00     0.278 HD
ATOM     93  CG  PRO d           6.937  32.570  20.901  0.00  0.00    -0.040 C 
ATOM     94  H8  PRO d           6.152  32.574  22.927  0.00  0.00     0.075 H 
ATOM     95  H9  PRO d           5.064  33.320  21.708  0.00  0.00     0.075 H 
ATOM     96  CB  PRO d           7.310  31.097  20.765  0.00  0.00    -0.028 C 
ATOM     97  H6  PRO d           6.616  32.994  19.938  0.00  0.00     0.035 H 
ATOM     98  H7  PRO d           7.774  33.161  21.301  0.00  0.00     0.035 H 
ATOM     99  H4  PRO d           7.867  30.905  19.837  0.00  0.00     0.036 H 
ATOM    100  H5  PRO d           7.901  30.748  21.625  0.00  0.00     0.036 H 
ATOM    101  H3  PRO d           5.513  30.514  19.719  0.00  0.00     0.099 H 
ENDBRANCH  85  88
ENDBRANCH  82  84
BRANCH  82 102
ATOM    102  CB  PRO d           3.621  26.864  22.824  0.00  0.00     0.002 C 
ATOM    103  H12 PRO d           4.158  26.415  23.672  0.00  0.00     0.046 H 
ATOM    104  H13 PRO d           2.750  26.242  22.572  0.00  0.00     0.046 H 
BRANCH 102 105
ATOM    105  CG  PRO d           3.140  28.229  23.225  0.00  0.00     0.030 A 
ATOM    106  ND1 PRO d           2.135  28.881  22.662  0.00  0.00    -0.353 N 
ATOM    107  CE1 PRO d           2.090  30.037  23.258  0.00  0.00     0.063 A 
ATOM    108  H14 PRO d           1.518  28.544  21.909  0.00  0.00     0.166 HD
ATOM    109  NE2 PRO d           3.028  30.116  24.180  0.00  0.00    -0.254 NA
ATOM    110  H16 PRO d           1.378  30.828  23.028  0.00  0.00     0.143 H 
ATOM    111  CD2 PRO d           3.712  29.012  24.203  0.00  0.00     0.025 A 
ATOM    112  H15 PRO d           4.551  28.761  24.851  0.00  0.00     0.117 H 
ENDBRANCH 102 105
ENDBRANCH  82 102
ENDBRANCH  79  82
ENDBRANCH  76  78
BRANCH  76 113
ATOM    113  CB  PRO d           0.965  24.532  20.063  0.00  0.00    -0.035 C 
ATOM    114  H19 PRO d           0.037  24.421  19.483  0.00  0.00     0.037 H 
ATOM    115  H20 PRO d           0.746  25.046  21.011  0.00  0.00     0.037 H 
BRANCH 113 116
ATOM    116  CG  PRO d           1.484  23.075  20.419  0.00  0.00    -0.059 C 
ATOM    117  H21 PRO d           2.566  23.114  20.608  0.00  0.00     0.038 H 
BRANCH 116 118
ATOM    118  CD1 PRO d           0.742  22.473  21.609  0.00  0.00    -0.073 C 
ATOM    119  H22 PRO d           1.379  21.719  22.094  0.00  0.00     0.028 H 
ATOM    120  H23 PRO d          -0.186  21.998  21.259  0.00  0.00     0.028 H 
ATOM    121  H24 PRO d           0.499  23.267  22.330  0.00  0.00     0.028 H 
ENDBRANCH 116 118
BRANCH 116 122
ATOM    122  CD2 PRO d           1.154  22.084  19.314  0.00  0.00    -0.073 C 
ATOM    123  H25 PRO d           0.160  21.650  19.495  0.00  0.00     0.028 H 
ATOM    124  H26 PRO d           1.908  21.283  19.304  0.00  0.00     0.028 H 
ATOM    125  H27 PRO d           1.157  22.603  18.344  0.00  0.00     0.028 H 
ENDBRANCH 116 122
ENDBRANCH 113 116
ENDBRANCH  76 113
ENDBRANCH  73  76
ENDBRANCH  70  72
BRANCH  70 126
ATOM    126  CB  PRO d          -0.803  29.298  18.088  0.00  0.00     0.044 C 
ATOM    127  H30 PRO d          -0.879  30.249  17.538  0.00  0.00     0.077 H 
ATOM    128  H31 PRO d          -0.482  29.496  19.120  0.00  0.00     0.077 H 
BRANCH 126 129
ATOM    129  OG  PRO d          -2.113  28.722  18.142  0.00  0.00    -0.398 OA
ATOM    130  H32 PRO d          -2.762  29.402  18.011  0.00  0.00     0.209 HD
ENDBRANCH 126 129
ENDBRANCH  70 126
ENDBRANCH   1  70
TORSDOF 33
ENDMDL
MODEL 4
REMARK VINA RESULT:      -5.7      2.119      2.723
REMARK WARNING: 32 MAX_TORS EXCEEDED!!!
REMARK  33 active torsions:
REMARK  status: ('A' for Active; 'I' for Inactive)
REMARK    1  A    between atoms: CA_2  and  C_3 
REMARK       I    between atoms: C_3  and  N_8 
REMARK    2  A    between atoms: N_8  and  CA_9 
REMARK    3  A    between atoms: CA_9  and  C_10 
REMARK    4  A    between atoms: CA_9  and  CB_12 
REMARK       I    between atoms: C_10  and  N_18 
REMARK    5  A    between atoms: CB_12  and  CG_13 
REMARK    6  A    between atoms: N_18  and  CA_19 
REMARK    7  A    between atoms: CA_19  and  C_20 
REMARK    8  A    between atoms: CA_19  and  CB_22 
REMARK       I    between atoms: C_20  and  N_26 
REMARK    9  A    between atoms: CB_22  and  CG_23 
REMARK   10  A    between atoms: CG_23  and  CD1_24 
REMARK   11  A    between atoms: CG_23  and  CD2_25 
REMARK   12  A    between atoms: N_26  and  CA_27 
REMARK   13  A    between atoms: CA_27  and  C_28 
REMARK   14  A    between atoms: CA_27  and  CB_30 
REMARK       I    between atoms: C_28  and  N_32 
REMARK   15  A    between atoms: CB_30  and  OG_31 
REMARK   16  A    between atoms: N_32  and  C1_33 
REMARK   17  A    between atoms: C1_33  and  C2_34 
REMARK   18  A    between atoms: C1_33  and  C9_41 
REMARK   19  A    between atoms: C2_34  and  C3_35 
REMARK   20  A    between atoms: C9_41  and  N2_42 
REMARK   21  A    between atoms: N2_42  and  C10_43 
REMARK   22  A    between atoms: C10_43  and  C11_44 
REMARK   23  A    between atoms: C10_43  and  C_48 
REMARK   24  A    between atoms: C11_44  and  C12_45 
REMARK   25  A    between atoms: C12_45  and  SD_46 
REMARK   26  A    between atoms: SD_46  and  C13_47 
REMARK       I    between atoms: C_48  and  N_50 
REMARK   27  A    between atoms: N_50  and  CA_51 
REMARK   28  A    between atoms: CA_51  and  C_52 
REMARK   29  A    between atoms: CA_51  and  CB_54 
REMARK       I    between atoms: C_52  and  N_55 
REMARK   30  A    between atoms: N_55  and  CA_56 
REMARK   31  A    between atoms: CA_56  and  C_57 
REMARK   32  A    between atoms: CA_56  and  CB_59 
REMARK   33  A    between atoms: CB_59  and  CG_60 
ROOT
ATOM      1  C   PRO d           0.415  29.816  17.669  0.00  0.00     0.242 C 
ATOM      2  O   PRO d          -0.027  30.945  17.969  0.00  0.00    -0.271 OA
ATOM      3  N   PRO d           0.626  28.885  18.605  0.00  0.00    -0.353 N 
ATOM      4  H33 PRO d           1.066  28.026  18.343  0.00  0.00     0.163 HD
ENDROOT
BRANCH   3   5
ATOM      5  C1  PRO d           0.236  29.082  19.995  0.00  0.00     0.039 C 
ATOM      6  H34 PRO d           0.328  30.154  20.225  0.00  0.00     0.075 H 
BRANCH   5   7
ATOM      7  C2  PRO d          -1.201  28.656  20.193  0.00  0.00    -0.021 C 
ATOM      8  H35 PRO d          -1.723  28.817  19.239  0.00  0.00     0.043 H 
ATOM      9  H36 PRO d          -1.632  29.313  20.962  0.00  0.00     0.043 H 
BRANCH   7  10
ATOM     10  C3  PRO d          -1.472  27.217  20.623  0.00  0.00    -0.056 A 
ATOM     11  C4  PRO d          -1.523  26.236  19.625  0.00  0.00    -0.077 A 
ATOM     12  C6  PRO d          -1.747  24.905  19.970  0.00  0.00    -0.082 A 
ATOM     13  H37 PRO d          -1.388  26.512  18.585  0.00  0.00     0.084 H 
ATOM     14  C8  PRO d          -1.929  24.543  21.303  0.00  0.00    -0.083 A 
ATOM     15  H39 PRO d          -1.781  24.147  19.197  0.00  0.00     0.083 H 
ATOM     16  C7  PRO d          -1.888  25.518  22.293  0.00  0.00    -0.082 A 
ATOM     17  H41 PRO d          -2.100  23.505  21.567  0.00  0.00     0.083 H 
ATOM     18  C5  PRO d          -1.657  26.850  21.963  0.00  0.00    -0.077 A 
ATOM     19  H40 PRO d          -2.037  25.239  23.331  0.00  0.00     0.083 H 
ATOM     20  H38 PRO d          -1.619  27.603  22.742  0.00  0.00     0.084 H 
ENDBRANCH   7  10
ENDBRANCH   5   7
BRANCH   5  21
ATOM     21  C9  PRO d           1.095  28.300  20.987  0.00  0.00     0.101 C 
ATOM     22  H42 PRO d           0.432  27.712  21.639  0.00  0.00     0.079 H 
ATOM     23  H43 PRO d           1.668  29.014  21.596  0.00  0.00     0.079 H 
BRANCH  21  24
ATOM     24  N2  PRO d           2.017  27.403  20.337  0.00  0.00    -0.060 N 
ATOM     25  H44 PRO d           2.425  27.891  19.555  0.00  0.00     0.278 HD
ATOM     26  H45 PRO d           1.494  26.609  20.002  0.00  0.00     0.278 HD
BRANCH  24  27
ATOM     27  C10 PRO d           3.112  26.900  21.175  0.00  0.00     0.178 C 
ATOM     28  H46 PRO d           3.249  27.599  22.014  0.00  0.00     0.099 H 
BRANCH  27  29
ATOM     29  C11 PRO d           2.710  25.518  21.742  0.00  0.00    -0.022 C 
ATOM     30  H47 PRO d           2.237  25.695  22.719  0.00  0.00     0.037 H 
ATOM     31  H48 PRO d           3.638  24.945  21.882  0.00  0.00     0.037 H 
BRANCH  29  32
ATOM     32  C12 PRO d           1.751  24.634  20.930  0.00  0.00    -0.021 C 
ATOM     33  H49 PRO d           1.908  24.854  19.863  0.00  0.00     0.049 H 
ATOM     34  H50 PRO d           0.723  24.901  21.211  0.00  0.00     0.049 H 
BRANCH  32  35
ATOM     35  SD  PRO d           1.951  22.853  21.167  0.00  0.00    -0.173 SA
BRANCH  35  36
ATOM     36  C13 PRO d           0.877  22.285  19.888  0.00  0.00    -0.035 C 
ATOM     37  H51 PRO d          -0.079  21.965  20.328  0.00  0.00     0.041 H 
ATOM     38  H52 PRO d           1.344  21.435  19.368  0.00  0.00     0.041 H 
ATOM     39  H53 PRO d           0.697  23.099  19.171  0.00  0.00     0.041 H 
ENDBRANCH  35  36
ENDBRANCH  32  35
ENDBRANCH  29  32
ENDBRANCH  27  29
BRANCH  27  40
ATOM     40  C   PRO d           4.467  26.795  20.417  0.00  0.00     0.249 C 
ATOM     41  O   PRO d           4.845  25.693  19.988  0.00  0.00    -0.271 OA
ATOM     42  N   PRO d           5.165  27.896  20.143  0.00  0.00    -0.346 N 
ATOM     43  H54 PRO d           4.775  28.797  20.331  0.00  0.00     0.163 HD
BRANCH  42  44
ATOM     44  CA  PRO d           6.499  27.785  19.567  0.00  0.00     0.086 C 
ATOM     45  H55 PRO d           6.980  26.815  19.759  0.00  0.00     0.086 H 
BRANCH  44  46
ATOM     46  C   PRO d           7.119  28.940  20.351  0.00  0.00     0.240 C 
ATOM     47  O   PRO d           8.340  28.989  20.565  0.00  0.00    -0.271 OA
ATOM     48  N   PRO d           6.265  29.933  20.584  0.00  0.00    -0.344 N 
ATOM     49  H59 PRO d           5.315  29.826  20.291  0.00  0.00     0.163 HD
BRANCH  48  50
ATOM     50  CA  PRO d           6.657  31.168  21.247  0.00  0.00     0.101 C 
ATOM     51  H60 PRO d           7.693  31.076  21.605  0.00  0.00     0.090 H 
BRANCH  50  52
ATOM     52  C   PRO d           5.753  31.437  22.445  0.00  0.00     0.197 C 
ATOM     53  O   PRO d           5.196  32.542  22.492  0.00  0.00    -0.646 OA
ATOM     54  OXT PRO d           5.563  30.504  23.232  0.00  0.00    -0.646 OA
ENDBRANCH  50  52
BRANCH  50  55
ATOM     55  CB  PRO d           6.584  32.313  20.199  0.00  0.00     0.003 C 
ATOM     56  H61 PRO d           6.954  33.226  20.689  0.00  0.00     0.046 H 
ATOM     57  H62 PRO d           5.524  32.443  19.934  0.00  0.00     0.046 H 
BRANCH  55  58
ATOM     58  CG  PRO d           7.363  32.157  18.886  0.00  0.00     0.030 A 
ATOM     59  ND1 PRO d           8.650  32.402  18.641  0.00  0.00    -0.353 N 
ATOM     60  CE1 PRO d           8.873  32.195  17.362  0.00  0.00     0.063 A 
ATOM     61  H63 PRO d           9.350  32.703  19.334  0.00  0.00     0.166 HD
ATOM     62  NE2 PRO d           7.739  31.816  16.780  0.00  0.00    -0.254 NA
ATOM     63  H65 PRO d           9.832  32.315  16.859  0.00  0.00     0.143 H 
ATOM     64  CD2 PRO d           6.790  31.775  17.679  0.00  0.00     0.025 A 
ATOM     65  H64 PRO d           5.751  31.495  17.512  0.00  0.00     0.117 H 
ENDBRANCH  55  58
ENDBRANCH  50  55
ENDBRANCH  48  50
ENDBRANCH  44  46
BRANCH  44  66
ATOM     66  CB  PRO d           6.477  28.086  18.080  0.00  0.00    -0.049 C 
ATOM     67  H56 PRO d           5.503  28.520  17.808  0.00  0.00     0.030 H 
ATOM     68  H57 PRO d           6.633  27.156  17.515  0.00  0.00     0.030 H 
ATOM     69  H58 PRO d           7.278  28.801  17.838  0.00  0.00     0.030 H 
ENDBRANCH  44  66
ENDBRANCH  42  44
ENDBRANCH  27  40
ENDBRANCH  24  27
ENDBRANCH  21  24
ENDBRANCH   5  21
ENDBRANCH   3   5
BRANCH   1  70
ATOM     70  CA  PRO d           0.776  29.411  16.229  0.00  0.00     0.109 C 
ATOM     71  H29 PRO d          -0.149  29.201  15.672  0.00  0.00     0.090 H 
BRANCH  70  72
ATOM     72  N   PRO d           1.490  30.506  15.550  0.00  0.00    -0.344 N 
ATOM     73  C   PRO d           0.910  31.435  14.782  0.00  0.00     0.241 C 
ATOM     74  O   PRO d          -0.299  31.352  14.507  0.00  0.00    -0.271 OA
ATOM     75  H28 PRO d           2.482  30.559  15.673  0.00  0.00     0.163 HD
BRANCH  73  76
ATOM     76  CA  PRO d           1.810  32.488  14.132  0.00  0.00     0.089 C 
ATOM     77  H18 PRO d           2.234  32.026  13.228  0.00  0.00     0.087 H 
BRANCH  76  78
ATOM     78  N   PRO d           1.070  33.682  13.750  0.00  0.00    -0.346 N 
ATOM     79  C   PRO d           0.641  33.818  12.498  0.00  0.00     0.241 C 
ATOM     80  O   PRO d           0.793  32.906  11.679  0.00  0.00    -0.271 OA
ATOM     81  H17 PRO d           0.885  34.396  14.425  0.00  0.00     0.163 HD
BRANCH  79  82
ATOM     82  CA  PRO d          -0.023  35.082  11.981  0.00  0.00     0.094 C 
ATOM     83  H11 PRO d          -0.662  34.874  11.110  0.00  0.00     0.088 H 
BRANCH  82  84
ATOM     84  N   PRO d          -0.830  35.612  13.091  0.00  0.00    -0.346 N 
ATOM     85  C   PRO d          -1.990  36.299  12.977  0.00  0.00     0.249 C 
ATOM     86  O   PRO d          -2.564  36.495  11.890  0.00  0.00    -0.271 OA
ATOM     87  H10 PRO d          -0.490  35.449  14.017  0.00  0.00     0.163 HD
BRANCH  85  88
ATOM     88  CA  PRO d          -2.669  36.868  14.233  0.00  0.00     0.178 C 
ATOM     89  N   PRO d          -1.816  37.956  14.697  0.00  0.00    -0.062 N 
ATOM     90  CD  PRO d          -2.684  39.032  15.176  0.00  0.00     0.083 C 
ATOM     91  H1  PRO d          -1.243  38.290  13.937  0.00  0.00     0.278 HD
ATOM     92  H2  PRO d          -1.226  37.633  15.447  0.00  0.00     0.278 HD
ATOM     93  CG  PRO d          -4.115  38.486  15.136  0.00  0.00    -0.040 C 
ATOM     94  H8  PRO d          -2.594  39.912  14.523  0.00  0.00     0.075 H 
ATOM     95  H9  PRO d          -2.412  39.309  16.205  0.00  0.00     0.075 H 
ATOM     96  CB  PRO d          -4.033  37.498  13.976  0.00  0.00    -0.028 C 
ATOM     97  H6  PRO d          -4.379  37.981  16.077  0.00  0.00     0.035 H 
ATOM     98  H7  PRO d          -4.844  39.285  14.931  0.00  0.00     0.035 H 
ATOM     99  H4  PRO d          -4.839  36.751  14.024  0.00  0.00     0.036 H 
ATOM    100  H5  PRO d          -4.065  38.011  13.004  0.00  0.00     0.036 H 
ATOM    101  H3  PRO d          -2.761  36.079  14.992  0.00  0.00     0.099 H 
ENDBRANCH  85  88
ENDBRANCH  82  84
BRANCH  82 102
ATOM    102  CB  PRO d           1.106  36.024  11.595  0.00  0.00     0.002 C 
ATOM    103  H12 PRO d           1.184  36.050  10.498  0.00  0.00     0.046 H 
ATOM    104  H13 PRO d           2.045  35.643  12.021  0.00  0.00     0.046 H 
BRANCH 102 105
ATOM    105  CG  PRO d           0.881  37.423  12.095  0.00  0.00     0.030 A 
ATOM    106  ND1 PRO d           0.179  38.355  11.470  0.00  0.00    -0.353 N 
ATOM    107  CE1 PRO d           0.286  39.425  12.203  0.00  0.00     0.063 A 
ATOM    108  H14 PRO d          -0.343  38.254  10.588  0.00  0.00     0.166 HD
ATOM    109  NE2 PRO d           1.023  39.180  13.268  0.00  0.00    -0.254 NA
ATOM    110  H16 PRO d          -0.169  40.386  11.970  0.00  0.00     0.143 H 
ATOM    111  CD2 PRO d           1.419  37.943  13.251  0.00  0.00     0.025 A 
ATOM    112  H15 PRO d           2.038  37.432  13.987  0.00  0.00     0.117 H 
ENDBRANCH 102 105
ENDBRANCH  82 102
ENDBRANCH  79  82
ENDBRANCH  76  78
BRANCH  76 113
ATOM    113  CB  PRO d           2.989  33.020  15.005  0.00  0.00    -0.035 C 
ATOM    114  H19 PRO d           3.523  32.146  15.406  0.00  0.00     0.037 H 
ATOM    115  H20 PRO d           2.552  33.595  15.835  0.00  0.00     0.037 H 
BRANCH 113 116
ATOM    116  CG  PRO d           4.060  33.949  14.292  0.00  0.00    -0.059 C 
ATOM    117  H21 PRO d           3.708  34.990  14.318  0.00  0.00     0.038 H 
BRANCH 116 118
ATOM    118  CD1 PRO d           5.444  33.823  14.922  0.00  0.00    -0.073 C 
ATOM    119  H22 PRO d           5.958  34.795  14.875  0.00  0.00     0.028 H 
ATOM    120  H23 PRO d           6.029  33.072  14.374  0.00  0.00     0.028 H 
ATOM    121  H24 PRO d           5.341  33.513  15.973  0.00  0.00     0.028 H 
ENDBRANCH 116 118
BRANCH 116 122
ATOM    122  CD2 PRO d           4.326  33.494  12.866  0.00  0.00    -0.073 C 
ATOM    123  H25 PRO d           5.044  32.660  12.875  0.00  0.00     0.028 H 
ATOM    124  H26 PRO d           4.742  34.331  12.286  0.00  0.00     0.028 H 
ATOM    125  H27 PRO d           3.384  33.161  12.406  0.00  0.00     0.028 H 
ENDBRANCH 116 122
ENDBRANCH 113 116
ENDBRANCH  76 113
ENDBRANCH  73  76
ENDBRANCH  70  72
BRANCH  70 126
ATOM    126  CB  PRO d           1.643  28.113  16.274  0.00  0.00     0.044 C 
ATOM    127  H30 PRO d           2.308  28.184  17.149  0.00  0.00     0.077 H 
ATOM    128  H31 PRO d           2.248  28.081  15.356  0.00  0.00     0.077 H 
BRANCH 126 129
ATOM    129  OG  PRO d           0.931  26.874  16.370  0.00  0.00    -0.398 OA
ATOM    130  H32 PRO d           0.300  26.927  17.077  0.00  0.00     0.209 HD
ENDBRANCH 126 129
ENDBRANCH  70 126
ENDBRANCH   1  70
TORSDOF 33
ENDMDL
MODEL 5
REMARK VINA RESULT:      -5.7      2.012      2.620
REMARK WARNING: 32 MAX_TORS EXCEEDED!!!
REMARK  33 active torsions:
REMARK  status: ('A' for Active; 'I' for Inactive)
REMARK    1  A    between atoms: CA_2  and  C_3 
REMARK       I    between atoms: C_3  and  N_8 
REMARK    2  A    between atoms: N_8  and  CA_9 
REMARK    3  A    between atoms: CA_9  and  C_10 
REMARK    4  A    between atoms: CA_9  and  CB_12 
REMARK       I    between atoms: C_10  and  N_18 
REMARK    5  A    between atoms: CB_12  and  CG_13 
REMARK    6  A    between atoms: N_18  and  CA_19 
REMARK    7  A    between atoms: CA_19  and  C_20 
REMARK    8  A    between atoms: CA_19  and  CB_22 
REMARK       I    between atoms: C_20  and  N_26 
REMARK    9  A    between atoms: CB_22  and  CG_23 
REMARK   10  A    between atoms: CG_23  and  CD1_24 
REMARK   11  A    between atoms: CG_23  and  CD2_25 
REMARK   12  A    between atoms: N_26  and  CA_27 
REMARK   13  A    between atoms: CA_27  and  C_28 
REMARK   14  A    between atoms: CA_27  and  CB_30 
REMARK       I    between atoms: C_28  and  N_32 
REMARK   15  A    between atoms: CB_30  and  OG_31 
REMARK   16  A    between atoms: N_32  and  C1_33 
REMARK   17  A    between atoms: C1_33  and  C2_34 
REMARK   18  A    between atoms: C1_33  and  C9_41 
REMARK   19  A    between atoms: C2_34  and  C3_35 
REMARK   20  A    between atoms: C9_41  and  N2_42 
REMARK   21  A    between atoms: N2_42  and  C10_43 
REMARK   22  A    between atoms: C10_43  and  C11_44 
REMARK   23  A    between atoms: C10_43  and  C_48 
REMARK   24  A    between atoms: C11_44  and  C12_45 
REMARK   25  A    between atoms: C12_45  and  SD_46 
REMARK   26  A    between atoms: SD_46  and  C13_47 
REMARK       I    between atoms: C_48  and  N_50 
REMARK   27  A    between atoms: N_50  and  CA_51 
REMARK   28  A    between atoms: CA_51  and  C_52 
REMARK   29  A    between atoms: CA_51  and  CB_54 
REMARK       I    between atoms: C_52  and  N_55 
REMARK   30  A    between atoms: N_55  and  CA_56 
REMARK   31  A    between atoms: CA_56  and  C_57 
REMARK   32  A    between atoms: CA_56  and  CB_59 
REMARK   33  A    between atoms: CB_59  and  CG_60 
ROOT
ATOM      1  C   PRO d          -0.272  30.256  17.329  0.00  0.00     0.242 C 
ATOM      2  O   PRO d          -0.254  31.449  17.696  0.00  0.00    -0.271 OA
ATOM      3  N   PRO d          -0.565  29.273  18.186  0.00  0.00    -0.353 N 
ATOM      4  H33 PRO d          -0.481  28.324  17.882  0.00  0.00     0.163 HD
ENDROOT
BRANCH   3   5
ATOM      5  C1  PRO d          -1.003  29.540  19.550  0.00  0.00     0.039 C 
ATOM      6  H34 PRO d          -0.988  30.629  19.705  0.00  0.00     0.075 H 
BRANCH   5   7
ATOM      7  C2  PRO d          -2.412  29.033  19.749  0.00  0.00    -0.021 C 
ATOM      8  H35 PRO d          -2.901  29.033  18.763  0.00  0.00     0.043 H 
ATOM      9  H36 PRO d          -2.925  29.744  20.413  0.00  0.00     0.043 H 
BRANCH   7  10
ATOM     10  C3  PRO d          -2.599  27.640  20.347  0.00  0.00    -0.056 A 
ATOM     11  C4  PRO d          -2.718  26.561  19.464  0.00  0.00    -0.077 A 
ATOM     12  C6  PRO d          -2.869  25.269  19.962  0.00  0.00    -0.082 A 
ATOM     13  H37 PRO d          -2.693  26.731  18.393  0.00  0.00     0.084 H 
ATOM     14  C8  PRO d          -2.909  25.043  21.337  0.00  0.00    -0.083 A 
ATOM     15  H39 PRO d          -2.957  24.434  19.277  0.00  0.00     0.083 H 
ATOM     16  C7  PRO d          -2.800  26.117  22.214  0.00  0.00    -0.082 A 
ATOM     17  H41 PRO d          -3.024  24.036  21.720  0.00  0.00     0.083 H 
ATOM     18  C5  PRO d          -2.641  27.411  21.729  0.00  0.00    -0.077 A 
ATOM     19  H40 PRO d          -2.840  25.944  23.284  0.00  0.00     0.083 H 
ATOM     20  H38 PRO d          -2.549  28.241  22.420  0.00  0.00     0.084 H 
ENDBRANCH   7  10
ENDBRANCH   5   7
BRANCH   5  21
ATOM     21  C9  PRO d          -0.119  28.890  20.614  0.00  0.00     0.101 C 
ATOM     22  H42 PRO d          -0.519  27.890  20.840  0.00  0.00     0.079 H 
ATOM     23  H43 PRO d          -0.148  29.509  21.522  0.00  0.00     0.079 H 
BRANCH  21  24
ATOM     24  N2  PRO d           1.252  28.754  20.190  0.00  0.00    -0.060 N 
ATOM     25  H44 PRO d           1.795  29.453  20.671  0.00  0.00     0.278 HD
ATOM     26  H45 PRO d           1.287  28.924  19.197  0.00  0.00     0.278 HD
BRANCH  24  27
ATOM     27  C10 PRO d           1.869  27.446  20.446  0.00  0.00     0.178 C 
ATOM     28  H46 PRO d           2.009  27.341  21.532  0.00  0.00     0.099 H 
BRANCH  27  29
ATOM     29  C11 PRO d           0.906  26.339  19.960  0.00  0.00    -0.022 C 
ATOM     30  H47 PRO d           1.220  26.061  18.942  0.00  0.00     0.037 H 
ATOM     31  H48 PRO d          -0.102  26.778  19.926  0.00  0.00     0.037 H 
BRANCH  29  32
ATOM     32  C12 PRO d           0.803  25.037  20.771  0.00  0.00    -0.021 C 
ATOM     33  H49 PRO d          -0.177  24.582  20.560  0.00  0.00     0.049 H 
ATOM     34  H50 PRO d           0.864  25.296  21.838  0.00  0.00     0.049 H 
BRANCH  32  35
ATOM     35  SD  PRO d           2.077  23.804  20.422  0.00  0.00    -0.173 SA
BRANCH  35  36
ATOM     36  C13 PRO d           2.799  23.695  22.028  0.00  0.00    -0.035 C 
ATOM     37  H51 PRO d           3.338  22.741  22.124  0.00  0.00     0.041 H 
ATOM     38  H52 PRO d           2.007  23.746  22.790  0.00  0.00     0.041 H 
ATOM     39  H53 PRO d           3.500  24.529  22.173  0.00  0.00     0.041 H 
ENDBRANCH  35  36
ENDBRANCH  32  35
ENDBRANCH  29  32
ENDBRANCH  27  29
BRANCH  27  40
ATOM     40  C   PRO d           3.260  27.282  19.769  0.00  0.00     0.249 C 
ATOM     41  O   PRO d           3.343  26.710  18.670  0.00  0.00    -0.271 OA
ATOM     42  N   PRO d           4.339  27.840  20.316  0.00  0.00    -0.346 N 
ATOM     43  H54 PRO d           4.243  28.449  21.103  0.00  0.00     0.163 HD
BRANCH  42  44
ATOM     44  CA  PRO d           5.658  27.563  19.765  0.00  0.00     0.086 C 
ATOM     45  H55 PRO d           5.723  26.594  19.247  0.00  0.00     0.086 H 
BRANCH  44  46
ATOM     46  C   PRO d           6.409  27.595  21.095  0.00  0.00     0.240 C 
ATOM     47  O   PRO d           7.486  26.997  21.240  0.00  0.00    -0.271 OA
ATOM     48  N   PRO d           5.897  28.463  21.963  0.00  0.00    -0.344 N 
ATOM     49  H59 PRO d           5.068  28.961  21.710  0.00  0.00     0.163 HD
BRANCH  48  50
ATOM     50  CA  PRO d           6.496  28.718  23.265  0.00  0.00     0.101 C 
ATOM     51  H60 PRO d           7.551  28.410  23.247  0.00  0.00     0.090 H 
BRANCH  50  52
ATOM     52  C   PRO d           5.776  27.916  24.345  0.00  0.00     0.197 C 
ATOM     53  O   PRO d           6.096  26.726  24.469  0.00  0.00    -0.646 OA
ATOM     54  OXT PRO d           4.998  28.530  25.082  0.00  0.00    -0.646 OA
ENDBRANCH  50  52
BRANCH  50  55
ATOM     55  CB  PRO d           6.417  30.246  23.533  0.00  0.00     0.003 C 
ATOM     56  H61 PRO d           7.148  30.475  24.324  0.00  0.00     0.046 H 
ATOM     57  H62 PRO d           5.402  30.460  23.899  0.00  0.00     0.046 H 
BRANCH  55  58
ATOM     58  CG  PRO d           6.692  31.209  22.371  0.00  0.00     0.030 A 
ATOM     59  ND1 PRO d           7.759  31.281  21.575  0.00  0.00    -0.353 N 
ATOM     60  CE1 PRO d           7.599  32.300  20.760  0.00  0.00     0.063 A 
ATOM     61  H63 PRO d           8.570  30.646  21.595  0.00  0.00     0.166 HD
ATOM     62  NE2 PRO d           6.435  32.886  21.023  0.00  0.00    -0.254 NA
ATOM     63  H65 PRO d           8.305  32.614  19.994  0.00  0.00     0.143 H 
ATOM     64  CD2 PRO d           5.845  32.247  22.000  0.00  0.00     0.025 A 
ATOM     65  H64 PRO d           4.876  32.483  22.438  0.00  0.00     0.117 H 
ENDBRANCH  55  58
ENDBRANCH  50  55
ENDBRANCH  48  50
ENDBRANCH  44  46
BRANCH  44  66
ATOM     66  CB  PRO d           6.116  28.687  18.854  0.00  0.00    -0.049 C 
ATOM     67  H56 PRO d           5.731  28.515  17.838  0.00  0.00     0.030 H 
ATOM     68  H57 PRO d           7.215  28.715  18.829  0.00  0.00     0.030 H 
ATOM     69  H58 PRO d           5.733  29.646  19.234  0.00  0.00     0.030 H 
ENDBRANCH  44  66
ENDBRANCH  42  44
ENDBRANCH  27  40
ENDBRANCH  24  27
ENDBRANCH  21  24
ENDBRANCH   5  21
ENDBRANCH   3   5
BRANCH   1  70
ATOM     70  CA  PRO d           0.061  29.814  15.893  0.00  0.00     0.109 C 
ATOM     71  H29 PRO d          -0.846  29.889  15.275  0.00  0.00     0.090 H 
BRANCH  70  72
ATOM     72  N   PRO d           1.095  30.687  15.313  0.00  0.00    -0.344 N 
ATOM     73  C   PRO d           0.858  31.872  14.737  0.00  0.00     0.241 C 
ATOM     74  O   PRO d          -0.309  32.259  14.563  0.00  0.00    -0.271 OA
ATOM     75  H28 PRO d           2.043  30.373  15.352  0.00  0.00     0.163 HD
BRANCH  73  76
ATOM     76  CA  PRO d           2.051  32.638  14.162  0.00  0.00     0.089 C 
ATOM     77  H18 PRO d           2.526  31.976  13.424  0.00  0.00     0.087 H 
BRANCH  76  78
ATOM     78  N   PRO d           1.646  33.870  13.501  0.00  0.00    -0.346 N 
ATOM     79  C   PRO d           1.245  33.835  12.233  0.00  0.00     0.241 C 
ATOM     80  O   PRO d           1.135  32.758  11.638  0.00  0.00    -0.271 OA
ATOM     81  H17 PRO d           1.668  34.737  13.997  0.00  0.00     0.163 HD
BRANCH  79  82
ATOM     82  CA  PRO d           0.928  35.082  11.428  0.00  0.00     0.094 C 
ATOM     83  H11 PRO d           0.595  34.832  10.410  0.00  0.00     0.088 H 
BRANCH  82  84
ATOM     84  N   PRO d          -0.139  35.787  12.155  0.00  0.00    -0.346 N 
ATOM     85  C   PRO d          -1.414  35.362  12.311  0.00  0.00     0.249 C 
ATOM     86  O   PRO d          -1.817  34.253  11.913  0.00  0.00    -0.271 OA
ATOM     87  H10 PRO d           0.100  36.663  12.574  0.00  0.00     0.163 HD
BRANCH  85  88
ATOM     88  CA  PRO d          -2.439  36.259  13.021  0.00  0.00     0.178 C 
ATOM     89  N   PRO d          -1.672  37.323  13.660  0.00  0.00    -0.062 N 
ATOM     90  CD  PRO d          -2.434  38.565  13.529  0.00  0.00     0.083 C 
ATOM     91  H1  PRO d          -0.777  37.421  13.205  0.00  0.00     0.278 HD
ATOM     92  H2  PRO d          -1.533  37.108  14.635  0.00  0.00     0.278 HD
ATOM     93  CG  PRO d          -3.787  38.183  12.920  0.00  0.00    -0.040 C 
ATOM     94  H8  PRO d          -1.905  39.268  12.869  0.00  0.00     0.075 H 
ATOM     95  H9  PRO d          -2.579  39.028  14.516  0.00  0.00     0.075 H 
ATOM     96  CB  PRO d          -3.412  36.963  12.083  0.00  0.00    -0.028 C 
ATOM     97  H6  PRO d          -4.519  37.925  13.700  0.00  0.00     0.035 H 
ATOM     98  H7  PRO d          -4.189  38.992  12.293  0.00  0.00     0.035 H 
ATOM     99  H4  PRO d          -4.289  36.337  11.865  0.00  0.00     0.036 H 
ATOM    100  H5  PRO d          -2.926  37.254  11.140  0.00  0.00     0.036 H 
ATOM    101  H3  PRO d          -2.998  35.668  13.761  0.00  0.00     0.099 H 
ENDBRANCH  85  88
ENDBRANCH  82  84
BRANCH  82 102
ATOM    102  CB  PRO d           2.215  35.891  11.379  0.00  0.00     0.002 C 
ATOM    103  H12 PRO d           2.514  36.014  10.328  0.00  0.00     0.046 H 
ATOM    104  H13 PRO d           2.999  35.341  11.920  0.00  0.00     0.046 H 
BRANCH 102 105
ATOM    105  CG  PRO d           2.063  37.250  12.000  0.00  0.00     0.030 A 
ATOM    106  ND1 PRO d           2.169  37.515  13.293  0.00  0.00    -0.353 N 
ATOM    107  CE1 PRO d           1.909  38.785  13.412  0.00  0.00     0.063 A 
ATOM    108  H14 PRO d           2.408  36.855  14.047  0.00  0.00     0.166 HD
ATOM    109  NE2 PRO d           1.656  39.315  12.233  0.00  0.00    -0.254 NA
ATOM    110  H16 PRO d           1.901  39.332  14.353  0.00  0.00     0.143 H 
ATOM    111  CD2 PRO d           1.741  38.400  11.315  0.00  0.00     0.025 A 
ATOM    112  H15 PRO d           1.591  38.516  10.242  0.00  0.00     0.117 H 
ENDBRANCH 102 105
ENDBRANCH  82 102
ENDBRANCH  79  82
ENDBRANCH  76  78
BRANCH  76 113
ATOM    113  CB  PRO d           3.141  33.083  15.187  0.00  0.00    -0.035 C 
ATOM    114  H19 PRO d           3.375  32.214  15.820  0.00  0.00     0.037 H 
ATOM    115  H20 PRO d           2.706  33.882  15.806  0.00  0.00     0.037 H 
BRANCH 113 116
ATOM    116  CG  PRO d           4.511  33.628  14.599  0.00  0.00    -0.059 C 
ATOM    117  H21 PRO d           4.395  34.690  14.340  0.00  0.00     0.038 H 
BRANCH 116 118
ATOM    118  CD1 PRO d           5.675  33.425  15.566  0.00  0.00    -0.073 C 
ATOM    119  H22 PRO d           6.551  33.984  15.207  0.00  0.00     0.028 H 
ATOM    120  H23 PRO d           5.921  32.355  15.622  0.00  0.00     0.028 H 
ATOM    121  H24 PRO d           5.390  33.789  16.564  0.00  0.00     0.028 H 
ENDBRANCH 116 118
BRANCH 116 122
ATOM    122  CD2 PRO d           4.961  32.814  13.397  0.00  0.00    -0.073 C 
ATOM    123  H25 PRO d           5.506  33.465  12.696  0.00  0.00     0.028 H 
ATOM    124  H26 PRO d           4.081  32.388  12.893  0.00  0.00     0.028 H 
ATOM    125  H27 PRO d           5.622  32.001  13.731  0.00  0.00     0.028 H 
ENDBRANCH 116 122
ENDBRANCH 113 116
ENDBRANCH  76 113
ENDBRANCH  73  76
ENDBRANCH  70  72
BRANCH  70 126
ATOM    126  CB  PRO d           0.530  28.324  15.922  0.00  0.00     0.044 C 
ATOM    127  H30 PRO d           0.883  28.064  14.913  0.00  0.00     0.077 H 
ATOM    128  H31 PRO d          -0.341  27.704  16.177  0.00  0.00     0.077 H 
BRANCH 126 129
ATOM    129  OG  PRO d           1.578  28.004  16.845  0.00  0.00    -0.398 OA
ATOM    130  H32 PRO d           1.441  28.480  17.655  0.00  0.00     0.209 HD
ENDBRANCH 126 129
ENDBRANCH  70 126
ENDBRANCH   1  70
TORSDOF 33
ENDMDL
MODEL 6
REMARK VINA RESULT:      -5.3      3.550     11.723
REMARK WARNING: 32 MAX_TORS EXCEEDED!!!
REMARK  33 active torsions:
REMARK  status: ('A' for Active; 'I' for Inactive)
REMARK    1  A    between atoms: CA_2  and  C_3 
REMARK       I    between atoms: C_3  and  N_8 
REMARK    2  A    between atoms: N_8  and  CA_9 
REMARK    3  A    between atoms: CA_9  and  C_10 
REMARK    4  A    between atoms: CA_9  and  CB_12 
REMARK       I    between atoms: C_10  and  N_18 
REMARK    5  A    between atoms: CB_12  and  CG_13 
REMARK    6  A    between atoms: N_18  and  CA_19 
REMARK    7  A    between atoms: CA_19  and  C_20 
REMARK    8  A    between atoms: CA_19  and  CB_22 
REMARK       I    between atoms: C_20  and  N_26 
REMARK    9  A    between atoms: CB_22  and  CG_23 
REMARK   10  A    between atoms: CG_23  and  CD1_24 
REMARK   11  A    between atoms: CG_23  and  CD2_25 
REMARK   12  A    between atoms: N_26  and  CA_27 
REMARK   13  A    between atoms: CA_27  and  C_28 
REMARK   14  A    between atoms: CA_27  and  CB_30 
REMARK       I    between atoms: C_28  and  N_32 
REMARK   15  A    between atoms: CB_30  and  OG_31 
REMARK   16  A    between atoms: N_32  and  C1_33 
REMARK   17  A    between atoms: C1_33  and  C2_34 
REMARK   18  A    between atoms: C1_33  and  C9_41 
REMARK   19  A    between atoms: C2_34  and  C3_35 
REMARK   20  A    between atoms: C9_41  and  N2_42 
REMARK   21  A    between atoms: N2_42  and  C10_43 
REMARK   22  A    between atoms: C10_43  and  C11_44 
REMARK   23  A    between atoms: C10_43  and  C_48 
REMARK   24  A    between atoms: C11_44  and  C12_45 
REMARK   25  A    between atoms: C12_45  and  SD_46 
REMARK   26  A    between atoms: SD_46  and  C13_47 
REMARK       I    between atoms: C_48  and  N_50 
REMARK   27  A    between atoms: N_50  and  CA_51 
REMARK   28  A    between atoms: CA_51  and  C_52 
REMARK   29  A    between atoms: CA_51  and  CB_54 
REMARK       I    between atoms: C_52  and  N_55 
REMARK   30  A    between atoms: N_55  and  CA_56 
REMARK   31  A    between atoms: CA_56  and  C_57 
REMARK   32  A    between atoms: CA_56  and  CB_59 
REMARK   33  A    between atoms: CB_59  and  CG_60 
ROOT
ATOM      1  C   PRO d           4.364  31.253  17.026  0.00  0.00     0.242 C 
ATOM      2  O   PRO d           3.324  31.910  16.808  0.00  0.00    -0.271 OA
ATOM      3  N   PRO d           5.570  31.755  16.740  0.00  0.00    -0.353 N 
ATOM      4  H33 PRO d           6.374  31.169  16.841  0.00  0.00     0.163 HD
ENDROOT
BRANCH   3   5
ATOM      5  C1  PRO d           5.750  33.128  16.286  0.00  0.00     0.039 C 
ATOM      6  H34 PRO d           4.796  33.658  16.420  0.00  0.00     0.075 H 
BRANCH   5   7
ATOM      7  C2  PRO d           6.815  33.810  17.113  0.00  0.00    -0.021 C 
ATOM      8  H35 PRO d           6.345  34.679  17.597  0.00  0.00     0.043 H 
ATOM      9  H36 PRO d           7.596  34.154  16.419  0.00  0.00     0.043 H 
BRANCH   7  10
ATOM     10  C3  PRO d           7.506  33.000  18.207  0.00  0.00    -0.056 A 
ATOM     11  C4  PRO d           8.736  32.405  17.901  0.00  0.00    -0.077 A 
ATOM     12  C6  PRO d           9.414  31.674  18.874  0.00  0.00    -0.082 A 
ATOM     13  H37 PRO d           9.159  32.513  16.909  0.00  0.00     0.084 H 
ATOM     14  C8  PRO d           8.874  31.525  20.149  0.00  0.00    -0.083 A 
ATOM     15  H39 PRO d          10.369  31.218  18.637  0.00  0.00     0.083 H 
ATOM     16  C7  PRO d           7.648  32.108  20.450  0.00  0.00    -0.082 A 
ATOM     17  H41 PRO d           9.407  30.957  20.904  0.00  0.00     0.083 H 
ATOM     18  C5  PRO d           6.964  32.847  19.490  0.00  0.00    -0.077 A 
ATOM     19  H40 PRO d           7.222  31.985  21.440  0.00  0.00     0.083 H 
ATOM     20  H38 PRO d           6.013  33.305  19.736  0.00  0.00     0.084 H 
ENDBRANCH   7  10
ENDBRANCH   5   7
BRANCH   5  21
ATOM     21  C9  PRO d           6.159  33.237  14.818  0.00  0.00     0.101 C 
ATOM     22  H42 PRO d           6.770  32.359  14.557  0.00  0.00     0.079 H 
ATOM     23  H43 PRO d           6.756  34.151  14.686  0.00  0.00     0.079 H 
BRANCH  21  24
ATOM     24  N2  PRO d           5.027  33.292  13.928  0.00  0.00    -0.060 N 
ATOM     25  H44 PRO d           4.371  32.583  14.217  0.00  0.00     0.278 HD
ATOM     26  H45 PRO d           5.354  33.088  12.997  0.00  0.00     0.278 HD
BRANCH  24  27
ATOM     27  C10 PRO d           4.315  34.575  13.885  0.00  0.00     0.178 C 
ATOM     28  H46 PRO d           4.483  35.091  14.842  0.00  0.00     0.099 H 
BRANCH  27  29
ATOM     29  C11 PRO d           4.909  35.436  12.747  0.00  0.00    -0.022 C 
ATOM     30  H47 PRO d           5.256  34.743  11.965  0.00  0.00     0.037 H 
ATOM     31  H48 PRO d           5.770  35.977  13.166  0.00  0.00     0.037 H 
BRANCH  29  32
ATOM     32  C12 PRO d           4.013  36.478  12.060  0.00  0.00    -0.021 C 
ATOM     33  H49 PRO d           2.965  36.218  12.272  0.00  0.00     0.049 H 
ATOM     34  H50 PRO d           4.193  36.419  10.976  0.00  0.00     0.049 H 
BRANCH  32  35
ATOM     35  SD  PRO d           4.279  38.190  12.576  0.00  0.00    -0.173 SA
BRANCH  35  36
ATOM     36  C13 PRO d           2.596  38.688  12.749  0.00  0.00    -0.035 C 
ATOM     37  H51 PRO d           1.992  37.831  13.079  0.00  0.00     0.041 H 
ATOM     38  H52 PRO d           2.219  39.051  11.781  0.00  0.00     0.041 H 
ATOM     39  H53 PRO d           2.526  39.494  13.494  0.00  0.00     0.041 H 
ENDBRANCH  35  36
ENDBRANCH  32  35
ENDBRANCH  29  32
ENDBRANCH  27  29
BRANCH  27  40
ATOM     40  C   PRO d           2.779  34.418  13.693  0.00  0.00     0.249 C 
ATOM     41  O   PRO d           2.026  35.364  13.977  0.00  0.00    -0.271 OA
ATOM     42  N   PRO d           2.285  33.314  13.133  0.00  0.00    -0.346 N 
ATOM     43  H54 PRO d           2.903  32.631  12.744  0.00  0.00     0.163 HD
BRANCH  42  44
ATOM     44  CA  PRO d           0.845  33.104  13.089  0.00  0.00     0.086 C 
ATOM     45  H55 PRO d           0.262  34.011  13.307  0.00  0.00     0.086 H 
BRANCH  44  46
ATOM     46  C   PRO d           0.790  32.061  14.204  0.00  0.00     0.240 C 
ATOM     47  O   PRO d           1.824  31.539  14.646  0.00  0.00    -0.271 OA
ATOM     48  N   PRO d          -0.416  31.945  14.751  0.00  0.00    -0.344 N 
ATOM     49  H59 PRO d          -1.169  32.480  14.370  0.00  0.00     0.163 HD
BRANCH  48  50
ATOM     50  CA  PRO d          -0.685  31.067  15.881  0.00  0.00     0.101 C 
ATOM     51  H60 PRO d           0.075  31.233  16.659  0.00  0.00     0.090 H 
BRANCH  50  52
ATOM     52  C   PRO d          -0.623  29.607  15.446  0.00  0.00     0.197 C 
ATOM     53  O   PRO d          -0.473  28.760  16.337  0.00  0.00    -0.646 OA
ATOM     54  OXT PRO d          -0.822  29.363  14.252  0.00  0.00    -0.646 OA
ENDBRANCH  50  52
BRANCH  50  55
ATOM     55  CB  PRO d          -2.082  31.441  16.451  0.00  0.00     0.003 C 
ATOM     56  H61 PRO d          -2.833  31.045  15.752  0.00  0.00     0.046 H 
ATOM     57  H62 PRO d          -2.141  32.540  16.469  0.00  0.00     0.046 H 
BRANCH  55  58
ATOM     58  CG  PRO d          -2.460  30.944  17.852  0.00  0.00     0.030 A 
ATOM     59  ND1 PRO d          -2.642  29.694  18.277  0.00  0.00    -0.353 N 
ATOM     60  CE1 PRO d          -3.023  29.737  19.535  0.00  0.00     0.063 A 
ATOM     61  H63 PRO d          -2.507  28.840  17.717  0.00  0.00     0.166 HD
ATOM     62  NE2 PRO d          -3.086  31.006  19.925  0.00  0.00    -0.254 NA
ATOM     63  H65 PRO d          -3.250  28.872  20.157  0.00  0.00     0.143 H 
ATOM     64  CD2 PRO d          -2.745  31.778  18.926  0.00  0.00     0.025 A 
ATOM     65  H64 PRO d          -2.694  32.866  18.935  0.00  0.00     0.117 H 
ENDBRANCH  55  58
ENDBRANCH  50  55
ENDBRANCH  48  50
ENDBRANCH  44  46
BRANCH  44  66
ATOM     66  CB  PRO d           0.422  32.504  11.760  0.00  0.00    -0.049 C 
ATOM     67  H56 PRO d          -0.576  32.053  11.863  0.00  0.00     0.030 H 
ATOM     68  H57 PRO d           1.144  31.730  11.462  0.00  0.00     0.030 H 
ATOM     69  H58 PRO d           0.392  33.293  10.994  0.00  0.00     0.030 H 
ENDBRANCH  44  66
ENDBRANCH  42  44
ENDBRANCH  27  40
ENDBRANCH  24  27
ENDBRANCH  21  24
ENDBRANCH   5  21
ENDBRANCH   3   5
BRANCH   1  70
ATOM     70  CA  PRO d           4.352  29.828  17.605  0.00  0.00     0.109 C 
ATOM     71  H29 PRO d           5.349  29.380  17.478  0.00  0.00     0.090 H 
BRANCH  70  72
ATOM     72  N   PRO d           4.034  29.858  19.042  0.00  0.00    -0.344 N 
ATOM     73  C   PRO d           3.391  28.888  19.702  0.00  0.00     0.241 C 
ATOM     74  O   PRO d           2.918  27.920  19.084  0.00  0.00    -0.271 OA
ATOM     75  H28 PRO d           4.320  30.663  19.563  0.00  0.00     0.163 HD
BRANCH  73  76
ATOM     76  CA  PRO d           3.120  29.097  21.194  0.00  0.00     0.089 C 
ATOM     77  H18 PRO d           2.781  30.137  21.310  0.00  0.00     0.087 H 
BRANCH  76  78
ATOM     78  N   PRO d           2.086  28.204  21.695  0.00  0.00    -0.346 N 
ATOM     79  C   PRO d           0.811  28.580  21.646  0.00  0.00     0.241 C 
ATOM     80  O   PRO d           0.489  29.644  21.106  0.00  0.00    -0.271 OA
ATOM     81  H17 PRO d           2.332  27.312  22.073  0.00  0.00     0.163 HD
BRANCH  79  82
ATOM     82  CA  PRO d          -0.317  27.771  22.260  0.00  0.00     0.094 C 
ATOM     83  H11 PRO d          -1.300  28.113  21.902  0.00  0.00     0.088 H 
BRANCH  82  84
ATOM     84  N   PRO d          -0.089  26.372  21.866  0.00  0.00    -0.346 N 
ATOM     85  C   PRO d          -0.543  25.776  20.739  0.00  0.00     0.249 C 
ATOM     86  O   PRO d          -1.154  26.386  19.843  0.00  0.00    -0.271 OA
ATOM     87  H10 PRO d           0.453  25.808  22.489  0.00  0.00     0.163 HD
BRANCH  85  88
ATOM     88  CA  PRO d          -0.296  24.276  20.515  0.00  0.00     0.178 C 
ATOM     89  N   PRO d           0.541  24.176  19.325  0.00  0.00    -0.062 N 
ATOM     90  CD  PRO d           1.507  23.101  19.545  0.00  0.00     0.083 C 
ATOM     91  H1  PRO d           1.026  25.047  19.173  0.00  0.00     0.278 HD
ATOM     92  H2  PRO d          -0.030  23.965  18.521  0.00  0.00     0.278 HD
ATOM     93  CG  PRO d           1.118  22.432  20.868  0.00  0.00    -0.040 C 
ATOM     94  H8  PRO d           2.525  23.511  19.612  0.00  0.00     0.075 H 
ATOM     95  H9  PRO d           1.459  22.372  18.723  0.00  0.00     0.075 H 
ATOM     96  CB  PRO d           0.493  23.598  21.628  0.00  0.00    -0.028 C 
ATOM     97  H6  PRO d           0.392  21.621  20.709  0.00  0.00     0.035 H 
ATOM     98  H7  PRO d           2.000  22.037  21.393  0.00  0.00     0.035 H 
ATOM     99  H4  PRO d          -0.165  23.248  22.436  0.00  0.00     0.036 H 
ATOM    100  H5  PRO d           1.261  24.267  22.045  0.00  0.00     0.036 H 
ATOM    101  H3  PRO d          -1.257  23.761  20.374  0.00  0.00     0.099 H 
ENDBRANCH  85  88
ENDBRANCH  82  84
BRANCH  82 102
ATOM    102  CB  PRO d          -0.206  27.966  23.764  0.00  0.00     0.002 C 
ATOM    103  H12 PRO d           0.626  28.654  23.970  0.00  0.00     0.046 H 
ATOM    104  H13 PRO d          -0.002  26.992  24.232  0.00  0.00     0.046 H 
BRANCH 102 105
ATOM    105  CG  PRO d          -1.461  28.534  24.362  0.00  0.00     0.030 A 
ATOM    106  ND1 PRO d          -1.780  29.819  24.392  0.00  0.00    -0.353 N 
ATOM    107  CE1 PRO d          -2.903  29.886  25.046  0.00  0.00     0.063 A 
ATOM    108  H14 PRO d          -1.249  30.602  23.983  0.00  0.00     0.166 HD
ATOM    109  NE2 PRO d          -3.294  28.683  25.411  0.00  0.00    -0.254 NA
ATOM    110  H16 PRO d          -3.442  30.807  25.261  0.00  0.00     0.143 H 
ATOM    111  CD2 PRO d          -2.431  27.800  25.007  0.00  0.00     0.025 A 
ATOM    112  H15 PRO d          -2.467  26.721  25.148  0.00  0.00     0.117 H 
ENDBRANCH 102 105
ENDBRANCH  82 102
ENDBRANCH  79  82
ENDBRANCH  76  78
BRANCH  76 113
ATOM    113  CB  PRO d           4.332  28.870  22.151  0.00  0.00    -0.035 C 
ATOM    114  H19 PRO d           5.246  28.899  21.539  0.00  0.00     0.037 H 
ATOM    115  H20 PRO d           4.219  27.870  22.595  0.00  0.00     0.037 H 
BRANCH 113 116
ATOM    116  CG  PRO d           4.521  29.903  23.341  0.00  0.00    -0.059 C 
ATOM    117  H21 PRO d           4.029  30.850  23.077  0.00  0.00     0.038 H 
BRANCH 116 118
ATOM    118  CD1 PRO d           3.990  29.361  24.665  0.00  0.00    -0.073 C 
ATOM    119  H22 PRO d           3.061  29.888  24.930  0.00  0.00     0.028 H 
ATOM    120  H23 PRO d           4.739  29.521  25.453  0.00  0.00     0.028 H 
ATOM    121  H24 PRO d           3.786  28.285  24.566  0.00  0.00     0.028 H 
ENDBRANCH 116 118
BRANCH 116 122
ATOM    122  CD2 PRO d           5.991  30.117  23.661  0.00  0.00    -0.073 C 
ATOM    123  H25 PRO d           6.609  29.658  22.875  0.00  0.00     0.028 H 
ATOM    124  H26 PRO d           6.227  29.654  24.630  0.00  0.00     0.028 H 
ATOM    125  H27 PRO d           6.202  31.196  23.709  0.00  0.00     0.028 H 
ENDBRANCH 116 122
ENDBRANCH 113 116
ENDBRANCH  76 113
ENDBRANCH  73  76
ENDBRANCH  70  72
BRANCH  70 126
ATOM    126  CB  PRO d           3.311  28.973  16.813  0.00  0.00     0.044 C 
ATOM    127  H30 PRO d           3.109  29.489  15.862  0.00  0.00     0.077 H 
ATOM    128  H31 PRO d           2.389  28.931  17.410  0.00  0.00     0.077 H 
BRANCH 126 129
ATOM    129  OG  PRO d           3.693  27.628  16.505  0.00  0.00    -0.398 OA
ATOM    130  H32 PRO d           2.914  27.107  16.350  0.00  0.00     0.209 HD
ENDBRANCH 126 129
ENDBRANCH  70 126
ENDBRANCH   1  70
TORSDOF 33
ENDMDL
MODEL 7
REMARK VINA RESULT:      -5.1      3.258     11.003
REMARK WARNING: 32 MAX_TORS EXCEEDED!!!
REMARK  33 active torsions:
REMARK  status: ('A' for Active; 'I' for Inactive)
REMARK    1  A    between atoms: CA_2  and  C_3 
REMARK       I    between atoms: C_3  and  N_8 
REMARK    2  A    between atoms: N_8  and  CA_9 
REMARK    3  A    between atoms: CA_9  and  C_10 
REMARK    4  A    between atoms: CA_9  and  CB_12 
REMARK       I    between atoms: C_10  and  N_18 
REMARK    5  A    between atoms: CB_12  and  CG_13 
REMARK    6  A    between atoms: N_18  and  CA_19 
REMARK    7  A    between atoms: CA_19  and  C_20 
REMARK    8  A    between atoms: CA_19  and  CB_22 
REMARK       I    between atoms: C_20  and  N_26 
REMARK    9  A    between atoms: CB_22  and  CG_23 
REMARK   10  A    between atoms: CG_23  and  CD1_24 
REMARK   11  A    between atoms: CG_23  and  CD2_25 
REMARK   12  A    between atoms: N_26  and  CA_27 
REMARK   13  A    between atoms: CA_27  and  C_28 
REMARK   14  A    between atoms: CA_27  and  CB_30 
REMARK       I    between atoms: C_28  and  N_32 
REMARK   15  A    between atoms: CB_30  and  OG_31 
REMARK   16  A    between atoms: N_32  and  C1_33 
REMARK   17  A    between atoms: C1_33  and  C2_34 
REMARK   18  A    between atoms: C1_33  and  C9_41 
REMARK   19  A    between atoms: C2_34  and  C3_35 
REMARK   20  A    between atoms: C9_41  and  N2_42 
REMARK   21  A    between atoms: N2_42  and  C10_43 
REMARK   22  A    between atoms: C10_43  and  C11_44 
REMARK   23  A    between atoms: C10_43  and  C_48 
REMARK   24  A    between atoms: C11_44  and  C12_45 
REMARK   25  A    between atoms: C12_45  and  SD_46 
REMARK   26  A    between atoms: SD_46  and  C13_47 
REMARK       I    between atoms: C_48  and  N_50 
REMARK   27  A    between atoms: N_50  and  CA_51 
REMARK   28  A    between atoms: CA_51  and  C_52 
REMARK   29  A    between atoms: CA_51  and  CB_54 
REMARK       I    between atoms: C_52  and  N_55 
REMARK   30  A    between atoms: N_55  and  CA_56 
REMARK   31  A    between atoms: CA_56  and  C_57 
REMARK   32  A    between atoms: CA_56  and  CB_59 
REMARK   33  A    between atoms: CB_59  and  CG_60 
ROOT
ATOM      1  C   PRO d           0.845  25.576  18.911  0.00  0.00     0.242 C 
ATOM      2  O   PRO d           0.616  25.521  17.684  0.00  0.00    -0.271 OA
ATOM      3  N   PRO d           0.711  26.721  19.588  0.00  0.00    -0.353 N 
ATOM      4  H33 PRO d           0.990  26.751  20.548  0.00  0.00     0.163 HD
ENDROOT
BRANCH   3   5
ATOM      5  C1  PRO d           0.173  27.927  18.973  0.00  0.00     0.039 C 
ATOM      6  H34 PRO d           0.123  27.761  17.887  0.00  0.00     0.075 H 
BRANCH   5   7
ATOM      7  C2  PRO d          -1.220  28.196  19.495  0.00  0.00    -0.021 C 
ATOM      8  H35 PRO d          -1.574  27.269  19.970  0.00  0.00     0.043 H 
ATOM      9  H36 PRO d          -1.854  28.430  18.628  0.00  0.00     0.043 H 
BRANCH   7  10
ATOM     10  C3  PRO d          -1.403  29.324  20.508  0.00  0.00    -0.056 A 
ATOM     11  C4  PRO d          -2.169  30.430  20.122  0.00  0.00    -0.077 A 
ATOM     12  C6  PRO d          -2.383  31.474  21.020  0.00  0.00    -0.082 A 
ATOM     13  H37 PRO d          -2.596  30.474  19.126  0.00  0.00     0.084 H 
ATOM     14  C8  PRO d          -1.832  31.428  22.299  0.00  0.00    -0.083 A 
ATOM     15  H39 PRO d          -2.980  32.327  20.721  0.00  0.00     0.083 H 
ATOM     16  C7  PRO d          -1.063  30.334  22.679  0.00  0.00    -0.082 A 
ATOM     17  H41 PRO d          -2.003  32.242  22.995  0.00  0.00     0.083 H 
ATOM     18  C5  PRO d          -0.850  29.281  21.795  0.00  0.00    -0.077 A 
ATOM     19  H40 PRO d          -0.627  30.301  23.671  0.00  0.00     0.083 H 
ATOM     20  H38 PRO d          -0.255  28.428  22.102  0.00  0.00     0.084 H 
ENDBRANCH   7  10
ENDBRANCH   5   7
BRANCH   5  21
ATOM     21  C9  PRO d           1.017  29.174  19.232  0.00  0.00     0.101 C 
ATOM     22  H42 PRO d           0.926  29.446  20.294  0.00  0.00     0.079 H 
ATOM     23  H43 PRO d           0.632  29.995  18.609  0.00  0.00     0.079 H 
BRANCH  21  24
ATOM     24  N2  PRO d           2.411  28.975  18.924  0.00  0.00    -0.060 N 
ATOM     25  H44 PRO d           2.533  28.013  18.650  0.00  0.00     0.278 HD
ATOM     26  H45 PRO d           2.942  29.157  19.761  0.00  0.00     0.278 HD
BRANCH  24  27
ATOM     27  C10 PRO d           2.951  29.822  17.853  0.00  0.00     0.178 C 
ATOM     28  H46 PRO d           2.938  30.865  18.203  0.00  0.00     0.099 H 
BRANCH  27  29
ATOM     29  C11 PRO d           4.416  29.408  17.583  0.00  0.00    -0.022 C 
ATOM     30  H47 PRO d           4.588  29.517  16.502  0.00  0.00     0.037 H 
ATOM     31  H48 PRO d           4.509  28.349  17.865  0.00  0.00     0.037 H 
BRANCH  29  32
ATOM     32  C12 PRO d           5.546  30.166  18.299  0.00  0.00    -0.021 C 
ATOM     33  H49 PRO d           6.412  29.491  18.374  0.00  0.00     0.049 H 
ATOM     34  H50 PRO d           5.194  30.424  19.308  0.00  0.00     0.049 H 
BRANCH  32  35
ATOM     35  SD  PRO d           6.091  31.687  17.490  0.00  0.00    -0.173 SA
BRANCH  35  36
ATOM     36  C13 PRO d           7.795  31.643  17.945  0.00  0.00    -0.035 C 
ATOM     37  H51 PRO d           8.417  31.695  17.040  0.00  0.00     0.041 H 
ATOM     38  H52 PRO d           8.007  30.707  18.483  0.00  0.00     0.041 H 
ATOM     39  H53 PRO d           8.023  32.499  18.596  0.00  0.00     0.041 H 
ENDBRANCH  35  36
ENDBRANCH  32  35
ENDBRANCH  29  32
ENDBRANCH  27  29
BRANCH  27  40
ATOM     40  C   PRO d           2.123  29.751  16.538  0.00  0.00     0.249 C 
ATOM     41  O   PRO d           2.063  28.681  15.909  0.00  0.00    -0.271 OA
ATOM     42  N   PRO d           1.402  30.800  16.145  0.00  0.00    -0.346 N 
ATOM     43  H54 PRO d           1.309  31.596  16.743  0.00  0.00     0.163 HD
BRANCH  42  44
ATOM     44  CA  PRO d           0.748  30.785  14.844  0.00  0.00     0.086 C 
ATOM     45  H55 PRO d           1.229  30.113  14.118  0.00  0.00     0.086 H 
BRANCH  44  46
ATOM     46  C   PRO d           0.955  32.267  14.532  0.00  0.00     0.240 C 
ATOM     47  O   PRO d           1.746  32.958  15.192  0.00  0.00    -0.271 OA
ATOM     48  N   PRO d           0.372  32.648  13.400  0.00  0.00    -0.344 N 
ATOM     49  H59 PRO d          -0.178  31.983  12.895  0.00  0.00     0.163 HD
BRANCH  48  50
ATOM     50  CA  PRO d           0.500  33.997  12.865  0.00  0.00     0.101 C 
ATOM     51  H60 PRO d           0.232  34.724  13.645  0.00  0.00     0.090 H 
BRANCH  50  52
ATOM     52  C   PRO d          -0.439  34.189  11.680  0.00  0.00     0.197 C 
ATOM     53  O   PRO d           0.083  34.383  10.574  0.00  0.00    -0.646 OA
ATOM     54  OXT PRO d          -1.649  34.043  11.886  0.00  0.00    -0.646 OA
ENDBRANCH  50  52
BRANCH  50  55
ATOM     55  CB  PRO d           1.986  34.208  12.465  0.00  0.00     0.003 C 
ATOM     56  H61 PRO d           2.126  33.742  11.478  0.00  0.00     0.046 H 
ATOM     57  H62 PRO d           2.602  33.682  13.210  0.00  0.00     0.046 H 
BRANCH  55  58
ATOM     58  CG  PRO d           2.523  35.642  12.367  0.00  0.00     0.030 A 
ATOM     59  ND1 PRO d           2.398  36.518  11.369  0.00  0.00    -0.353 N 
ATOM     60  CE1 PRO d           3.072  37.602  11.685  0.00  0.00     0.063 A 
ATOM     61  H63 PRO d           1.865  36.371  10.500  0.00  0.00     0.166 HD
ATOM     62  NE2 PRO d           3.630  37.432  12.880  0.00  0.00    -0.254 NA
ATOM     63  H65 PRO d           3.161  38.494  11.067  0.00  0.00     0.143 H 
ATOM     64  CD2 PRO d           3.315  36.248  13.335  0.00  0.00     0.025 A 
ATOM     65  H64 PRO d           3.615  35.819  14.290  0.00  0.00     0.117 H 
ENDBRANCH  55  58
ENDBRANCH  50  55
ENDBRANCH  48  50
ENDBRANCH  44  46
BRANCH  44  66
ATOM     66  CB  PRO d          -0.728  30.458  14.979  0.00  0.00    -0.049 C 
ATOM     67  H56 PRO d          -1.232  30.636  14.017  0.00  0.00     0.030 H 
ATOM     68  H57 PRO d          -1.176  31.099  15.751  0.00  0.00     0.030 H 
ATOM     69  H58 PRO d          -0.845  29.402  15.264  0.00  0.00     0.030 H 
ENDBRANCH  44  66
ENDBRANCH  42  44
ENDBRANCH  27  40
ENDBRANCH  24  27
ENDBRANCH  21  24
ENDBRANCH   5  21
ENDBRANCH   3   5
BRANCH   1  70
ATOM     70  CA  PRO d           1.318  24.364  19.733  0.00  0.00     0.109 C 
ATOM     71  H29 PRO d           2.280  24.012  19.331  0.00  0.00     0.090 H 
BRANCH  70  72
ATOM     72  N   PRO d           1.510  24.741  21.143  0.00  0.00    -0.344 N 
ATOM     73  C   PRO d           2.109  23.975  22.062  0.00  0.00     0.241 C 
ATOM     74  O   PRO d           2.453  22.815  21.781  0.00  0.00    -0.271 OA
ATOM     75  H28 PRO d           1.169  25.634  21.434  0.00  0.00     0.163 HD
BRANCH  73  76
ATOM     76  CA  PRO d           2.201  24.515  23.491  0.00  0.00     0.089 C 
ATOM     77  H18 PRO d           2.700  23.739  24.090  0.00  0.00     0.087 H 
BRANCH  76  78
ATOM     78  N   PRO d           2.979  25.743  23.566  0.00  0.00    -0.346 N 
ATOM     79  C   PRO d           3.943  25.858  24.476  0.00  0.00     0.241 C 
ATOM     80  O   PRO d           4.239  24.903  25.201  0.00  0.00    -0.271 OA
ATOM     81  H17 PRO d           2.789  26.496  22.936  0.00  0.00     0.163 HD
BRANCH  79  82
ATOM     82  CA  PRO d           4.714  27.143  24.709  0.00  0.00     0.094 C 
ATOM     83  H11 PRO d           5.516  27.004  25.449  0.00  0.00     0.088 H 
BRANCH  82  84
ATOM     84  N   PRO d           5.283  27.530  23.408  0.00  0.00    -0.346 N 
ATOM     85  C   PRO d           6.282  26.894  22.753  0.00  0.00     0.249 C 
ATOM     86  O   PRO d           6.792  25.831  23.152  0.00  0.00    -0.271 OA
ATOM     87  H10 PRO d           4.895  28.339  22.966  0.00  0.00     0.163 HD
BRANCH  85  88
ATOM     88  CA  PRO d           6.829  27.478  21.442  0.00  0.00     0.178 C 
ATOM     89  N   PRO d           6.808  28.927  21.602  0.00  0.00    -0.062 N 
ATOM     90  CD  PRO d           8.012  29.465  20.970  0.00  0.00     0.083 C 
ATOM     91  H1  PRO d           6.800  29.163  22.582  0.00  0.00     0.278 HD
ATOM     92  H2  PRO d           5.988  29.309  21.157  0.00  0.00     0.278 HD
ATOM     93  CG  PRO d           8.697  28.289  20.267  0.00  0.00    -0.040 C 
ATOM     94  H8  PRO d           8.680  29.896  21.730  0.00  0.00     0.075 H 
ATOM     95  H9  PRO d           7.742  30.240  20.237  0.00  0.00     0.075 H 
ATOM     96  CB  PRO d           8.283  27.119  21.155  0.00  0.00    -0.028 C 
ATOM     97  H6  PRO d           8.327  28.164  19.239  0.00  0.00     0.035 H 
ATOM     98  H7  PRO d           9.791  28.412  20.250  0.00  0.00     0.035 H 
ATOM     99  H4  PRO d           8.366  26.160  20.625  0.00  0.00     0.036 H 
ATOM    100  H5  PRO d           8.880  27.080  22.078  0.00  0.00     0.036 H 
ATOM    101  H3  PRO d           6.196  27.157  20.602  0.00  0.00     0.099 H 
ENDBRANCH  85  88
ENDBRANCH  82  84
BRANCH  82 102
ATOM    102  CB  PRO d           3.701  28.158  25.213  0.00  0.00     0.002 C 
ATOM    103  H12 PRO d           4.084  28.610  26.139  0.00  0.00     0.046 H 
ATOM    104  H13 PRO d           2.755  27.638  25.423  0.00  0.00     0.046 H 
BRANCH 102 105
ATOM    105  CG  PRO d           3.439  29.251  24.216  0.00  0.00     0.030 A 
ATOM    106  ND1 PRO d           2.533  29.206  23.253  0.00  0.00    -0.353 N 
ATOM    107  CE1 PRO d           2.675  30.315  22.586  0.00  0.00     0.063 A 
ATOM    108  H14 PRO d           1.856  28.452  23.069  0.00  0.00     0.166 HD
ATOM    109  NE2 PRO d           3.633  31.048  23.113  0.00  0.00    -0.254 NA
ATOM    110  H16 PRO d           2.085  30.596  21.715  0.00  0.00     0.143 H 
ATOM    111  CD2 PRO d           4.143  30.432  24.137  0.00  0.00     0.025 A 
ATOM    112  H15 PRO d           4.948  30.773  24.787  0.00  0.00     0.117 H 
ENDBRANCH 102 105
ENDBRANCH  82 102
ENDBRANCH  79  82
ENDBRANCH  76  78
BRANCH  76 113
ATOM    113  CB  PRO d           0.846  24.866  24.182  0.00  0.00    -0.035 C 
ATOM    114  H19 PRO d           1.020  24.867  25.269  0.00  0.00     0.037 H 
ATOM    115  H20 PRO d           0.129  24.072  23.926  0.00  0.00     0.037 H 
BRANCH 113 116
ATOM    116  CG  PRO d           0.176  26.254  23.804  0.00  0.00    -0.059 C 
ATOM    117  H21 PRO d           0.803  26.765  23.059  0.00  0.00     0.038 H 
BRANCH 116 118
ATOM    118  CD1 PRO d          -1.252  26.085  23.294  0.00  0.00    -0.073 C 
ATOM    119  H22 PRO d          -1.933  25.951  24.148  0.00  0.00     0.028 H 
ATOM    120  H23 PRO d          -1.306  25.204  22.640  0.00  0.00     0.028 H 
ATOM    121  H24 PRO d          -1.547  26.981  22.727  0.00  0.00     0.028 H 
ENDBRANCH 116 118
BRANCH 116 122
ATOM    122  CD2 PRO d          -0.034  27.122  25.034  0.00  0.00    -0.073 C 
ATOM    123  H25 PRO d          -0.007  26.492  25.936  0.00  0.00     0.028 H 
ATOM    124  H26 PRO d          -1.010  27.624  24.966  0.00  0.00     0.028 H 
ATOM    125  H27 PRO d           0.764  27.877  25.091  0.00  0.00     0.028 H 
ENDBRANCH 116 122
ENDBRANCH 113 116
ENDBRANCH  76 113
ENDBRANCH  73  76
ENDBRANCH  70  72
BRANCH  70 126
ATOM    126  CB  PRO d           0.263  23.220  19.591  0.00  0.00     0.044 C 
ATOM    127  H30 PRO d          -0.283  23.382  18.650  0.00  0.00     0.077 H 
ATOM    128  H31 PRO d          -0.434  23.300  20.438  0.00  0.00     0.077 H 
BRANCH 126 129
ATOM    129  OG  PRO d           0.773  21.881  19.573  0.00  0.00    -0.398 OA
ATOM    130  H32 PRO d           0.803  21.568  18.677  0.00  0.00     0.209 HD
ENDBRANCH 126 129
ENDBRANCH  70 126
ENDBRANCH   1  70
TORSDOF 33
ENDMDL
MODEL 8
REMARK VINA RESULT:      -5.1      4.888     10.762
REMARK WARNING: 32 MAX_TORS EXCEEDED!!!
REMARK  33 active torsions:
REMARK  status: ('A' for Active; 'I' for Inactive)
REMARK    1  A    between atoms: CA_2  and  C_3 
REMARK       I    between atoms: C_3  and  N_8 
REMARK    2  A    between atoms: N_8  and  CA_9 
REMARK    3  A    between atoms: CA_9  and  C_10 
REMARK    4  A    between atoms: CA_9  and  CB_12 
REMARK       I    between atoms: C_10  and  N_18 
REMARK    5  A    between atoms: CB_12  and  CG_13 
REMARK    6  A    between atoms: N_18  and  CA_19 
REMARK    7  A    between atoms: CA_19  and  C_20 
REMARK    8  A    between atoms: CA_19  and  CB_22 
REMARK       I    between atoms: C_20  and  N_26 
REMARK    9  A    between atoms: CB_22  and  CG_23 
REMARK   10  A    between atoms: CG_23  and  CD1_24 
REMARK   11  A    between atoms: CG_23  and  CD2_25 
REMARK   12  A    between atoms: N_26  and  CA_27 
REMARK   13  A    between atoms: CA_27  and  C_28 
REMARK   14  A    between atoms: CA_27  and  CB_30 
REMARK       I    between atoms: C_28  and  N_32 
REMARK   15  A    between atoms: CB_30  and  OG_31 
REMARK   16  A    between atoms: N_32  and  C1_33 
REMARK   17  A    between atoms: C1_33  and  C2_34 
REMARK   18  A    between atoms: C1_33  and  C9_41 
REMARK   19  A    between atoms: C2_34  and  C3_35 
REMARK   20  A    between atoms: C9_41  and  N2_42 
REMARK   21  A    between atoms: N2_42  and  C10_43 
REMARK   22  A    between atoms: C10_43  and  C11_44 
REMARK   23  A    between atoms: C10_43  and  C_48 
REMARK   24  A    between atoms: C11_44  and  C12_45 
REMARK   25  A    between atoms: C12_45  and  SD_46 
REMARK   26  A    between atoms: SD_46  and  C13_47 
REMARK       I    between atoms: C_48  and  N_50 
REMARK   27  A    between atoms: N_50  and  CA_51 
REMARK   28  A    between atoms: CA_51  and  C_52 
REMARK   29  A    between atoms: CA_51  and  CB_54 
REMARK       I    between atoms: C_52  and  N_55 
REMARK   30  A    between atoms: N_55  and  CA_56 
REMARK   31  A    between atoms: CA_56  and  C_57 
REMARK   32  A    between atoms: CA_56  and  CB_59 
REMARK   33  A    between atoms: CB_59  and  CG_60 
ROOT
ATOM      1  C   PRO d           0.756  25.372  19.339  0.00  0.00     0.242 C 
ATOM      2  O   PRO d           0.202  25.061  18.263  0.00  0.00    -0.271 OA
ATOM      3  N   PRO d           1.114  26.634  19.592  0.00  0.00    -0.353 N 
ATOM      4  H33 PRO d           1.637  26.832  20.421  0.00  0.00     0.163 HD
ENDROOT
BRANCH   3   5
ATOM      5  C1  PRO d           0.767  27.732  18.698  0.00  0.00     0.039 C 
ATOM      6  H34 PRO d           0.645  27.320  17.686  0.00  0.00     0.075 H 
BRANCH   5   7
ATOM      7  C2  PRO d          -0.535  28.362  19.136  0.00  0.00    -0.021 C 
ATOM      8  H35 PRO d          -0.348  28.862  20.098  0.00  0.00     0.043 H 
ATOM      9  H36 PRO d          -1.259  27.548  19.280  0.00  0.00     0.043 H 
BRANCH   7  10
ATOM     10  C3  PRO d          -1.185  29.388  18.211  0.00  0.00    -0.056 A 
ATOM     11  C4  PRO d          -1.961  30.395  18.796  0.00  0.00    -0.077 A 
ATOM     12  C6  PRO d          -2.558  31.367  17.995  0.00  0.00    -0.082 A 
ATOM     13  H37 PRO d          -2.098  30.419  19.871  0.00  0.00     0.084 H 
ATOM     14  C8  PRO d          -2.393  31.339  16.611  0.00  0.00    -0.083 A 
ATOM     15  H39 PRO d          -3.155  32.148  18.450  0.00  0.00     0.083 H 
ATOM     16  C7  PRO d          -1.630  30.332  16.029  0.00  0.00    -0.082 A 
ATOM     17  H41 PRO d          -2.857  32.098  15.992  0.00  0.00     0.083 H 
ATOM     18  C5  PRO d          -1.022  29.362  16.819  0.00  0.00    -0.077 A 
ATOM     19  H40 PRO d          -1.507  30.304  14.952  0.00  0.00     0.083 H 
ATOM     20  H38 PRO d          -0.422  28.585  16.358  0.00  0.00     0.084 H 
ENDBRANCH   7  10
ENDBRANCH   5   7
BRANCH   5  21
ATOM     21  C9  PRO d           1.823  28.835  18.646  0.00  0.00     0.101 C 
ATOM     22  H42 PRO d           2.700  28.510  19.226  0.00  0.00     0.079 H 
ATOM     23  H43 PRO d           1.404  29.746  19.097  0.00  0.00     0.079 H 
BRANCH  21  24
ATOM     24  N2  PRO d           2.246  29.137  17.302  0.00  0.00    -0.060 N 
ATOM     25  H44 PRO d           1.851  30.028  17.046  0.00  0.00     0.278 HD
ATOM     26  H45 PRO d           1.881  28.420  16.694  0.00  0.00     0.278 HD
BRANCH  24  27
ATOM     27  C10 PRO d           3.697  29.210  17.094  0.00  0.00     0.178 C 
ATOM     28  H46 PRO d           3.927  28.750  16.121  0.00  0.00     0.099 H 
BRANCH  27  29
ATOM     29  C11 PRO d           4.119  30.696  17.051  0.00  0.00    -0.022 C 
ATOM     30  H47 PRO d           5.177  30.723  16.749  0.00  0.00     0.037 H 
ATOM     31  H48 PRO d           4.019  31.090  18.073  0.00  0.00     0.037 H 
BRANCH  29  32
ATOM     32  C12 PRO d           3.360  31.657  16.122  0.00  0.00    -0.021 C 
ATOM     33  H49 PRO d           2.448  31.985  16.644  0.00  0.00     0.049 H 
ATOM     34  H50 PRO d           3.083  31.103  15.214  0.00  0.00     0.049 H 
BRANCH  32  35
ATOM     35  SD  PRO d           4.275  33.132  15.618  0.00  0.00    -0.173 SA
BRANCH  35  36
ATOM     36  C13 PRO d           4.325  32.841  13.878  0.00  0.00    -0.035 C 
ATOM     37  H51 PRO d           5.261  33.243  13.466  0.00  0.00     0.041 H 
ATOM     38  H52 PRO d           3.469  33.340  13.399  0.00  0.00     0.041 H 
ATOM     39  H53 PRO d           4.273  31.760  13.685  0.00  0.00     0.041 H 
ENDBRANCH  35  36
ENDBRANCH  32  35
ENDBRANCH  29  32
ENDBRANCH  27  29
BRANCH  27  40
ATOM     40  C   PRO d           4.511  28.452  18.182  0.00  0.00     0.249 C 
ATOM     41  O   PRO d           4.225  27.275  18.453  0.00  0.00    -0.271 OA
ATOM     42  N   PRO d           5.571  29.030  18.747  0.00  0.00    -0.346 N 
ATOM     43  H54 PRO d           5.906  29.907  18.402  0.00  0.00     0.163 HD
BRANCH  42  44
ATOM     44  CA  PRO d           6.241  28.383  19.866  0.00  0.00     0.086 C 
ATOM     45  H55 PRO d           5.573  27.755  20.474  0.00  0.00     0.086 H 
BRANCH  44  46
ATOM     46  C   PRO d           6.677  29.667  20.569  0.00  0.00     0.240 C 
ATOM     47  O   PRO d           6.343  29.904  21.740  0.00  0.00    -0.271 OA
ATOM     48  N   PRO d           7.578  30.360  19.879  0.00  0.00    -0.344 N 
ATOM     49  H59 PRO d           7.844  30.033  18.973  0.00  0.00     0.163 HD
BRANCH  48  50
ATOM     50  CA  PRO d           8.193  31.577  20.390  0.00  0.00     0.101 C 
ATOM     51  H60 PRO d           8.804  31.334  21.271  0.00  0.00     0.090 H 
BRANCH  50  52
ATOM     52  C   PRO d           7.120  32.579  20.805  0.00  0.00     0.197 C 
ATOM     53  O   PRO d           6.179  32.754  20.020  0.00  0.00    -0.646 OA
ATOM     54  OXT PRO d           7.213  33.073  21.934  0.00  0.00    -0.646 OA
ENDBRANCH  50  52
BRANCH  50  55
ATOM     55  CB  PRO d           9.114  32.147  19.276  0.00  0.00     0.003 C 
ATOM     56  H61 PRO d           9.938  31.432  19.139  0.00  0.00     0.046 H 
ATOM     57  H62 PRO d           9.515  33.103  19.644  0.00  0.00     0.046 H 
BRANCH  55  58
ATOM     58  CG  PRO d           8.511  32.413  17.890  0.00  0.00     0.030 A 
ATOM     59  ND1 PRO d           8.651  31.711  16.766  0.00  0.00    -0.353 N 
ATOM     60  CE1 PRO d           8.014  32.340  15.804  0.00  0.00     0.063 A 
ATOM     61  H63 PRO d           9.170  30.826  16.667  0.00  0.00     0.166 HD
ATOM     62  NE2 PRO d           7.462  33.443  16.300  0.00  0.00    -0.254 NA
ATOM     63  H65 PRO d           7.950  32.012  14.768  0.00  0.00     0.143 H 
ATOM     64  CD2 PRO d           7.738  33.524  17.575  0.00  0.00     0.025 A 
ATOM     65  H64 PRO d           7.422  34.311  18.259  0.00  0.00     0.117 H 
ENDBRANCH  55  58
ENDBRANCH  50  55
ENDBRANCH  48  50
ENDBRANCH  44  46
BRANCH  44  66
ATOM     66  CB  PRO d           7.442  27.585  19.395  0.00  0.00    -0.049 C 
ATOM     67  H56 PRO d           7.419  26.584  19.852  0.00  0.00     0.030 H 
ATOM     68  H57 PRO d           8.366  28.102  19.693  0.00  0.00     0.030 H 
ATOM     69  H58 PRO d           7.412  27.489  18.299  0.00  0.00     0.030 H 
ENDBRANCH  44  66
ENDBRANCH  42  44
ENDBRANCH  27  40
ENDBRANCH  24  27
ENDBRANCH  21  24
ENDBRANCH   5  21
ENDBRANCH   3   5
BRANCH   1  70
ATOM     70  CA  PRO d           1.096  24.347  20.436  0.00  0.00     0.109 C 
ATOM     71  H29 PRO d           2.045  23.852  20.182  0.00  0.00     0.090 H 
BRANCH  70  72
ATOM     72  N   PRO d           1.252  25.018  21.737  0.00  0.00    -0.344 N 
ATOM     73  C   PRO d           2.025  24.576  22.735  0.00  0.00     0.241 C 
ATOM     74  O   PRO d           2.591  23.474  22.646  0.00  0.00    -0.271 OA
ATOM     75  H28 PRO d           0.743  25.867  21.885  0.00  0.00     0.163 HD
BRANCH  73  76
ATOM     76  CA  PRO d           2.050  25.388  24.033  0.00  0.00     0.089 C 
ATOM     77  H18 PRO d           2.468  24.730  24.808  0.00  0.00     0.087 H 
BRANCH  76  78
ATOM     78  N   PRO d           2.883  26.576  23.921  0.00  0.00    -0.346 N 
ATOM     79  C   PRO d           3.972  26.689  24.677  0.00  0.00     0.241 C 
ATOM     80  O   PRO d           4.327  25.762  25.411  0.00  0.00    -0.271 OA
ATOM     81  H17 PRO d           2.639  27.302  23.280  0.00  0.00     0.163 HD
BRANCH  79  82
ATOM     82  CA  PRO d           4.825  27.944  24.720  0.00  0.00     0.094 C 
ATOM     83  H11 PRO d           4.741  28.456  25.690  0.00  0.00     0.088 H 
BRANCH  82  84
ATOM     84  N   PRO d           6.212  27.513  24.489  0.00  0.00    -0.346 N 
ATOM     85  C   PRO d           6.655  26.773  23.447  0.00  0.00     0.249 C 
ATOM     86  O   PRO d           5.930  26.432  22.495  0.00  0.00    -0.271 OA
ATOM     87  H10 PRO d           6.893  27.795  25.166  0.00  0.00     0.163 HD
BRANCH  85  88
ATOM     88  CA  PRO d           8.124  26.326  23.396  0.00  0.00     0.178 C 
ATOM     89  N   PRO d           8.851  27.216  24.293  0.00  0.00    -0.062 N 
ATOM     90  CD  PRO d           9.860  26.422  24.992  0.00  0.00     0.083 C 
ATOM     91  H1  PRO d           8.214  27.625  24.959  0.00  0.00     0.278 HD
ATOM     92  H2  PRO d           9.298  27.947  23.762  0.00  0.00     0.278 HD
ATOM     93  CG  PRO d           9.829  25.026  24.362  0.00  0.00    -0.040 C 
ATOM     94  H8  PRO d           9.620  26.360  26.064  0.00  0.00     0.075 H 
ATOM     95  H9  PRO d          10.855  26.874  24.866  0.00  0.00     0.075 H 
ATOM     96  CB  PRO d           8.370  24.919  23.929  0.00  0.00    -0.028 C 
ATOM     97  H6  PRO d          10.509  24.960  23.500  0.00  0.00     0.035 H 
ATOM     98  H7  PRO d          10.088  24.248  25.094  0.00  0.00     0.035 H 
ATOM     99  H4  PRO d           8.235  24.160  23.146  0.00  0.00     0.036 H 
ATOM    100  H5  PRO d           7.711  24.688  24.780  0.00  0.00     0.036 H 
ATOM    101  H3  PRO d           8.498  26.402  22.365  0.00  0.00     0.099 H 
ENDBRANCH  85  88
ENDBRANCH  82  84
BRANCH  82 102
ATOM    102  CB  PRO d           4.312  28.841  23.605  0.00  0.00     0.002 C 
ATOM    103  H12 PRO d           3.629  28.259  22.970  0.00  0.00     0.046 H 
ATOM    104  H13 PRO d           5.168  29.183  23.005  0.00  0.00     0.046 H 
BRANCH 102 105
ATOM    105  CG  PRO d           3.579  30.043  24.127  0.00  0.00     0.030 A 
ATOM    106  ND1 PRO d           3.289  30.269  25.399  0.00  0.00    -0.353 N 
ATOM    107  CE1 PRO d           2.602  31.374  25.411  0.00  0.00     0.063 A 
ATOM    108  H14 PRO d           3.551  29.689  26.210  0.00  0.00     0.166 HD
ATOM    109  NE2 PRO d           2.469  31.846  24.188  0.00  0.00    -0.254 NA
ATOM    110  H16 PRO d           2.196  31.843  26.306  0.00  0.00     0.143 H 
ATOM    111  CD2 PRO d           3.062  31.054  23.347  0.00  0.00     0.025 A 
ATOM    112  H15 PRO d           3.135  31.164  22.266  0.00  0.00     0.117 H 
ENDBRANCH 102 105
ENDBRANCH  82 102
ENDBRANCH  79  82
ENDBRANCH  76  78
BRANCH  76 113
ATOM    113  CB  PRO d           0.672  25.920  24.537  0.00  0.00    -0.035 C 
ATOM    114  H19 PRO d           0.566  25.617  25.589  0.00  0.00     0.037 H 
ATOM    115  H20 PRO d          -0.110  25.436  23.934  0.00  0.00     0.037 H 
BRANCH 113 116
ATOM    116  CG  PRO d           0.429  27.487  24.464  0.00  0.00    -0.059 C 
ATOM    117  H21 PRO d           1.297  28.007  24.894  0.00  0.00     0.038 H 
BRANCH 116 118
ATOM    118  CD1 PRO d           0.155  27.964  23.041  0.00  0.00    -0.073 C 
ATOM    119  H22 PRO d          -0.385  27.180  22.489  0.00  0.00     0.028 H 
ATOM    120  H23 PRO d           1.109  28.176  22.536  0.00  0.00     0.028 H 
ATOM    121  H24 PRO d          -0.455  28.878  23.071  0.00  0.00     0.028 H 
ENDBRANCH 116 118
BRANCH 116 122
ATOM    122  CD2 PRO d          -0.855  27.882  25.176  0.00  0.00    -0.073 C 
ATOM    123  H25 PRO d          -1.592  28.230  24.437  0.00  0.00     0.028 H 
ATOM    124  H26 PRO d          -0.644  28.691  25.891  0.00  0.00     0.028 H 
ATOM    125  H27 PRO d          -1.259  27.012  25.714  0.00  0.00     0.028 H 
ENDBRANCH 116 122
ENDBRANCH 113 116
ENDBRANCH  76 113
ENDBRANCH  73  76
ENDBRANCH  70  72
BRANCH  70 126
ATOM    126  CB  PRO d          -0.037  23.272  20.486  0.00  0.00     0.044 C 
ATOM    127  H30 PRO d           0.257  22.445  19.822  0.00  0.00     0.077 H 
ATOM    128  H31 PRO d          -0.957  23.738  20.105  0.00  0.00     0.077 H 
BRANCH 126 129
ATOM    129  OG  PRO d          -0.330  22.714  21.772  0.00  0.00    -0.398 OA
ATOM    130  H32 PRO d          -1.212  22.956  22.027  0.00  0.00     0.209 HD
ENDBRANCH 126 129
ENDBRANCH  70 126
ENDBRANCH   1  70
TORSDOF 33
ENDMDL
MODEL 9
REMARK VINA RESULT:      -4.9      3.109      9.337
REMARK WARNING: 32 MAX_TORS EXCEEDED!!!
REMARK  33 active torsions:
REMARK  status: ('A' for Active; 'I' for Inactive)
REMARK    1  A    between atoms: CA_2  and  C_3 
REMARK       I    between atoms: C_3  and  N_8 
REMARK    2  A    between atoms: N_8  and  CA_9 
REMARK    3  A    between atoms: CA_9  and  C_10 
REMARK    4  A    between atoms: CA_9  and  CB_12 
REMARK       I    between atoms: C_10  and  N_18 
REMARK    5  A    between atoms: CB_12  and  CG_13 
REMARK    6  A    between atoms: N_18  and  CA_19 
REMARK    7  A    between atoms: CA_19  and  C_20 
REMARK    8  A    between atoms: CA_19  and  CB_22 
REMARK       I    between atoms: C_20  and  N_26 
REMARK    9  A    between atoms: CB_22  and  CG_23 
REMARK   10  A    between atoms: CG_23  and  CD1_24 
REMARK   11  A    between atoms: CG_23  and  CD2_25 
REMARK   12  A    between atoms: N_26  and  CA_27 
REMARK   13  A    between atoms: CA_27  and  C_28 
REMARK   14  A    between atoms: CA_27  and  CB_30 
REMARK       I    between atoms: C_28  and  N_32 
REMARK   15  A    between atoms: CB_30  and  OG_31 
REMARK   16  A    between atoms: N_32  and  C1_33 
REMARK   17  A    between atoms: C1_33  and  C2_34 
REMARK   18  A    between atoms: C1_33  and  C9_41 
REMARK   19  A    between atoms: C2_34  and  C3_35 
REMARK   20  A    between atoms: C9_41  and  N2_42 
REMARK   21  A    between atoms: N2_42  and  C10_43 
REMARK   22  A    between atoms: C10_43  and  C11_44 
REMARK   23  A    between atoms: C10_43  and  C_48 
REMARK   24  A    between atoms: C11_44  and  C12_45 
REMARK   25  A    between atoms: C12_45  and  SD_46 
REMARK   26  A    between atoms: SD_46  and  C13_47 
REMARK       I    between atoms: C_48  and  N_50 
REMARK   27  A    between atoms: N_50  and  CA_51 
REMARK   28  A    between atoms: CA_51  and  C_52 
REMARK   29  A    between atoms: CA_51  and  CB_54 
REMARK       I    between atoms: C_52  and  N_55 
REMARK   30  A    between atoms: N_55  and  CA_56 
REMARK   31  A    between atoms: CA_56  and  C_57 
REMARK   32  A    between atoms: CA_56  and  CB_59 
REMARK   33  A    between atoms: CB_59  and  CG_60 
ROOT
ATOM      1  C   PRO d           0.843  25.142  18.379  0.00  0.00     0.242 C 
ATOM      2  O   PRO d           0.462  25.164  17.190  0.00  0.00    -0.271 OA
ATOM      3  N   PRO d           0.654  26.191  19.185  0.00  0.00    -0.353 N 
ATOM      4  H33 PRO d           1.052  26.175  20.102  0.00  0.00     0.163 HD
ENDROOT
BRANCH   3   5
ATOM      5  C1  PRO d          -0.114  27.358  18.770  0.00  0.00     0.039 C 
ATOM      6  H34 PRO d          -0.826  27.038  17.995  0.00  0.00     0.075 H 
BRANCH   5   7
ATOM      7  C2  PRO d          -0.881  27.916  19.946  0.00  0.00    -0.021 C 
ATOM      8  H35 PRO d          -1.594  28.655  19.549  0.00  0.00     0.043 H 
ATOM      9  H36 PRO d          -0.155  28.422  20.599  0.00  0.00     0.043 H 
BRANCH   7  10
ATOM     10  C3  PRO d          -1.673  26.944  20.817  0.00  0.00    -0.056 A 
ATOM     11  C4  PRO d          -2.725  26.241  20.219  0.00  0.00    -0.077 A 
ATOM     12  C6  PRO d          -3.463  25.326  20.968  0.00  0.00    -0.082 A 
ATOM     13  H37 PRO d          -2.965  26.407  19.175  0.00  0.00     0.084 H 
ATOM     14  C8  PRO d          -3.165  25.111  22.312  0.00  0.00    -0.083 A 
ATOM     15  H39 PRO d          -4.274  24.779  20.503  0.00  0.00     0.083 H 
ATOM     16  C7  PRO d          -2.125  25.817  22.908  0.00  0.00    -0.082 A 
ATOM     17  H41 PRO d          -3.740  24.397  22.890  0.00  0.00     0.083 H 
ATOM     18  C5  PRO d          -1.376  26.727  22.169  0.00  0.00    -0.077 A 
ATOM     19  H40 PRO d          -1.897  25.657  23.956  0.00  0.00     0.083 H 
ATOM     20  H38 PRO d          -0.562  27.267  22.640  0.00  0.00     0.084 H 
ENDBRANCH   7  10
ENDBRANCH   5   7
BRANCH   5  21
ATOM     21  C9  PRO d           0.747  28.484  18.199  0.00  0.00     0.101 C 
ATOM     22  H42 PRO d           1.292  28.101  17.324  0.00  0.00     0.079 H 
ATOM     23  H43 PRO d           1.466  28.802  18.968  0.00  0.00     0.079 H 
BRANCH  21  24
ATOM     24  N2  PRO d          -0.031  29.628  17.794  0.00  0.00    -0.060 N 
ATOM     25  H44 PRO d           0.609  30.358  17.525  0.00  0.00     0.278 HD
ATOM     26  H45 PRO d          -0.574  29.930  18.587  0.00  0.00     0.278 HD
BRANCH  24  27
ATOM     27  C10 PRO d          -0.954  29.403  16.674  0.00  0.00     0.178 C 
ATOM     28  H46 PRO d          -1.047  28.318  16.520  0.00  0.00     0.099 H 
BRANCH  27  29
ATOM     29  C11 PRO d          -2.342  29.971  17.053  0.00  0.00    -0.022 C 
ATOM     30  H47 PRO d          -2.731  30.489  16.164  0.00  0.00     0.037 H 
ATOM     31  H48 PRO d          -2.183  30.698  17.862  0.00  0.00     0.037 H 
BRANCH  29  32
ATOM     32  C12 PRO d          -3.436  29.001  17.526  0.00  0.00    -0.021 C 
ATOM     33  H49 PRO d          -2.980  28.007  17.648  0.00  0.00     0.049 H 
ATOM     34  H50 PRO d          -4.210  28.956  16.745  0.00  0.00     0.049 H 
BRANCH  32  35
ATOM     35  SD  PRO d          -4.241  29.441  19.083  0.00  0.00    -0.173 SA
BRANCH  35  36
ATOM     36  C13 PRO d          -3.405  30.962  19.403  0.00  0.00    -0.035 C 
ATOM     37  H51 PRO d          -3.207  31.052  20.480  0.00  0.00     0.041 H 
ATOM     38  H52 PRO d          -4.034  31.802  19.074  0.00  0.00     0.041 H 
ATOM     39  H53 PRO d          -2.453  30.980  18.852  0.00  0.00     0.041 H 
ENDBRANCH  35  36
ENDBRANCH  32  35
ENDBRANCH  29  32
ENDBRANCH  27  29
BRANCH  27  40
ATOM     40  C   PRO d          -0.463  30.033  15.339  0.00  0.00     0.249 C 
ATOM     41  O   PRO d          -0.598  29.402  14.278  0.00  0.00    -0.271 OA
ATOM     42  N   PRO d           0.005  31.280  15.321  0.00  0.00    -0.346 N 
ATOM     43  H54 PRO d          -0.052  31.848  16.142  0.00  0.00     0.163 HD
BRANCH  42  44
ATOM     44  CA  PRO d           0.601  31.815  14.104  0.00  0.00     0.086 C 
ATOM     45  H55 PRO d           0.810  31.048  13.344  0.00  0.00     0.086 H 
BRANCH  44  46
ATOM     46  C   PRO d           1.858  32.379  14.763  0.00  0.00     0.240 C 
ATOM     47  O   PRO d           1.856  32.738  15.950  0.00  0.00    -0.271 OA
ATOM     48  N   PRO d           2.946  32.250  14.008  0.00  0.00    -0.344 N 
ATOM     49  H59 PRO d           2.850  31.865  13.091  0.00  0.00     0.163 HD
BRANCH  48  50
ATOM     50  CA  PRO d           4.270  32.648  14.464  0.00  0.00     0.101 C 
ATOM     51  H60 PRO d           5.029  32.031  13.961  0.00  0.00     0.090 H 
BRANCH  50  52
ATOM     52  C   PRO d           4.397  32.440  15.970  0.00  0.00     0.197 C 
ATOM     53  O   PRO d           4.292  31.280  16.389  0.00  0.00    -0.646 OA
ATOM     54  OXT PRO d           4.691  33.426  16.655  0.00  0.00    -0.646 OA
ENDBRANCH  50  52
BRANCH  50  55
ATOM     55  CB  PRO d           4.481  34.136  14.067  0.00  0.00     0.003 C 
ATOM     56  H61 PRO d           5.512  34.228  13.695  0.00  0.00     0.046 H 
ATOM     57  H62 PRO d           4.367  34.735  14.982  0.00  0.00     0.046 H 
BRANCH  55  58
ATOM     58  CG  PRO d           3.560  34.749  13.006  0.00  0.00     0.030 A 
ATOM     59  ND1 PRO d           3.561  34.564  11.685  0.00  0.00    -0.353 N 
ATOM     60  CE1 PRO d           2.640  35.341  11.159  0.00  0.00     0.063 A 
ATOM     61  H63 PRO d           4.177  33.922  11.166  0.00  0.00     0.166 HD
ATOM     62  NE2 PRO d           2.044  36.026  12.130  0.00  0.00    -0.254 NA
ATOM     63  H65 PRO d           2.405  35.414  10.098  0.00  0.00     0.143 H 
ATOM     64  CD2 PRO d           2.573  35.690  13.278  0.00  0.00     0.025 A 
ATOM     65  H64 PRO d           2.294  36.074  14.258  0.00  0.00     0.117 H 
ENDBRANCH  55  58
ENDBRANCH  50  55
ENDBRANCH  48  50
ENDBRANCH  44  46
BRANCH  44  66
ATOM     66  CB  PRO d          -0.254  32.925  13.522  0.00  0.00    -0.049 C 
ATOM     67  H56 PRO d          -0.242  32.860  12.423  0.00  0.00     0.030 H 
ATOM     68  H57 PRO d           0.147  33.900  13.835  0.00  0.00     0.030 H 
ATOM     69  H58 PRO d          -1.288  32.821  13.883  0.00  0.00     0.030 H 
ENDBRANCH  44  66
ENDBRANCH  42  44
ENDBRANCH  27  40
ENDBRANCH  24  27
ENDBRANCH  21  24
ENDBRANCH   5  21
ENDBRANCH   3   5
BRANCH   1  70
ATOM     70  CA  PRO d           1.575  23.941  19.004  0.00  0.00     0.109 C 
ATOM     71  H29 PRO d           1.937  23.283  18.200  0.00  0.00     0.090 H 
BRANCH  70  72
ATOM     72  N   PRO d           2.733  24.396  19.791  0.00  0.00    -0.344 N 
ATOM     73  C   PRO d           2.724  24.598  21.114  0.00  0.00     0.241 C 
ATOM     74  O   PRO d           1.663  24.507  21.753  0.00  0.00    -0.271 OA
ATOM     75  H28 PRO d           3.588  24.567  19.301  0.00  0.00     0.163 HD
BRANCH  73  76
ATOM     76  CA  PRO d           4.014  25.099  21.768  0.00  0.00     0.089 C 
ATOM     77  H18 PRO d           4.721  24.257  21.757  0.00  0.00     0.087 H 
BRANCH  76  78
ATOM     78  N   PRO d           4.599  26.218  21.045  0.00  0.00    -0.346 N 
ATOM     79  C   PRO d           3.831  27.246  20.691  0.00  0.00     0.241 C 
ATOM     80  O   PRO d           2.648  27.297  21.042  0.00  0.00    -0.271 OA
ATOM     81  H17 PRO d           5.572  26.214  20.815  0.00  0.00     0.163 HD
BRANCH  79  82
ATOM     82  CA  PRO d           4.326  28.391  19.826  0.00  0.00     0.094 C 
ATOM     83  H11 PRO d           3.502  28.859  19.268  0.00  0.00     0.088 H 
BRANCH  82  84
ATOM     84  N   PRO d           4.943  29.366  20.739  0.00  0.00    -0.346 N 
ATOM     85  C   PRO d           4.288  30.274  21.499  0.00  0.00     0.249 C 
ATOM     86  O   PRO d           3.047  30.332  21.574  0.00  0.00    -0.271 OA
ATOM     87  H10 PRO d           5.941  29.357  20.804  0.00  0.00     0.163 HD
BRANCH  85  88
ATOM     88  CA  PRO d           5.084  31.288  22.334  0.00  0.00     0.178 C 
ATOM     89  N   PRO d           6.071  30.515  23.079  0.00  0.00    -0.062 N 
ATOM     90  CD  PRO d           7.311  31.289  23.116  0.00  0.00     0.083 C 
ATOM     91  H1  PRO d           6.231  29.632  22.621  0.00  0.00     0.278 HD
ATOM     92  H2  PRO d           5.741  30.353  24.018  0.00  0.00     0.278 HD
ATOM     93  CG  PRO d           6.991  32.653  22.495  0.00  0.00    -0.040 C 
ATOM     94  H8  PRO d           8.093  30.780  22.534  0.00  0.00     0.075 H 
ATOM     95  H9  PRO d           7.650  31.414  24.154  0.00  0.00     0.075 H 
ATOM     96  CB  PRO d           5.885  32.288  21.509  0.00  0.00    -0.028 C 
ATOM     97  H6  PRO d           6.635  33.365  23.253  0.00  0.00     0.035 H 
ATOM     98  H7  PRO d           7.866  33.074  21.978  0.00  0.00     0.035 H 
ATOM     99  H4  PRO d           5.281  33.165  21.236  0.00  0.00     0.036 H 
ATOM    100  H5  PRO d           6.292  31.826  20.597  0.00  0.00     0.036 H 
ATOM    101  H3  PRO d           4.402  31.826  23.009  0.00  0.00     0.099 H 
ENDBRANCH  85  88
ENDBRANCH  82  84
BRANCH  82 102
ATOM    102  CB  PRO d           5.338  27.788  18.866  0.00  0.00     0.002 C 
ATOM    103  H12 PRO d           4.816  27.487  17.946  0.00  0.00     0.046 H 
ATOM    104  H13 PRO d           5.789  26.902  19.337  0.00  0.00     0.046 H 
BRANCH 102 105
ATOM    105  CG  PRO d           6.433  28.752  18.507  0.00  0.00     0.030 A 
ATOM    106  ND1 PRO d           6.290  29.816  17.733  0.00  0.00    -0.353 N 
ATOM    107  CE1 PRO d           7.479  30.335  17.628  0.00  0.00     0.063 A 
ATOM    108  H14 PRO d           5.420  30.162  17.304  0.00  0.00     0.166 HD
ATOM    109  NE2 PRO d           8.350  29.631  18.322  0.00  0.00    -0.254 NA
ATOM    110  H16 PRO d           7.720  31.225  17.049  0.00  0.00     0.143 H 
ATOM    111  CD2 PRO d           7.749  28.631  18.893  0.00  0.00     0.025 A 
ATOM    112  H15 PRO d           8.188  27.868  19.534  0.00  0.00     0.117 H 
ENDBRANCH 102 105
ENDBRANCH  82 102
ENDBRANCH  79  82
ENDBRANCH  76  78
BRANCH  76 113
ATOM    113  CB  PRO d           3.887  25.606  23.239  0.00  0.00    -0.035 C 
ATOM    114  H19 PRO d           2.843  25.451  23.553  0.00  0.00     0.037 H 
ATOM    115  H20 PRO d           4.114  26.683  23.238  0.00  0.00     0.037 H 
BRANCH 113 116
ATOM    116  CG  PRO d           4.819  24.923  24.326  0.00  0.00    -0.059 C 
ATOM    117  H21 PRO d           4.639  25.395  25.303  0.00  0.00     0.038 H 
BRANCH 116 118
ATOM    118  CD1 PRO d           4.608  23.413  24.401  0.00  0.00    -0.073 C 
ATOM    119  H22 PRO d           5.348  22.973  25.085  0.00  0.00     0.028 H 
ATOM    120  H23 PRO d           4.728  22.976  23.400  0.00  0.00     0.028 H 
ATOM    121  H24 PRO d           3.594  23.203  24.773  0.00  0.00     0.028 H 
ENDBRANCH 116 118
BRANCH 116 122
ATOM    122  CD2 PRO d           6.285  25.012  23.934  0.00  0.00    -0.073 C 
ATOM    123  H25 PRO d           6.896  25.179  24.834  0.00  0.00     0.028 H 
ATOM    124  H26 PRO d           6.427  25.848  23.233  0.00  0.00     0.028 H 
ATOM    125  H27 PRO d           6.593  24.072  23.452  0.00  0.00     0.028 H 
ENDBRANCH 116 122
ENDBRANCH 113 116
ENDBRANCH  76 113
ENDBRANCH  73  76
ENDBRANCH  70  72
BRANCH  70 126
ATOM    126  CB  PRO d           0.566  23.144  19.891  0.00  0.00     0.044 C 
ATOM    127  H30 PRO d           0.858  23.287  20.942  0.00  0.00     0.077 H 
ATOM    128  H31 PRO d           0.656  22.080  19.627  0.00  0.00     0.077 H 
BRANCH 126 129
ATOM    129  OG  PRO d          -0.814  23.508  19.770  0.00  0.00    -0.398 OA
ATOM    130  H32 PRO d          -1.289  22.805  19.341  0.00  0.00     0.209 HD
ENDBRANCH 126 129
ENDBRANCH  70 126
ENDBRANCH   1  70
TORSDOF 33
ENDMDL
MODEL 10
REMARK VINA RESULT:      -4.8      3.699     12.032
REMARK WARNING: 32 MAX_TORS EXCEEDED!!!
REMARK  33 active torsions:
REMARK  status: ('A' for Active; 'I' for Inactive)
REMARK    1  A    between atoms: CA_2  and  C_3 
REMARK       I    between atoms: C_3  and  N_8 
REMARK    2  A    between atoms: N_8  and  CA_9 
REMARK    3  A    between atoms: CA_9  and  C_10 
REMARK    4  A    between atoms: CA_9  and  CB_12 
REMARK       I    between atoms: C_10  and  N_18 
REMARK    5  A    between atoms: CB_12  and  CG_13 
REMARK    6  A    between atoms: N_18  and  CA_19 
REMARK    7  A    between atoms: CA_19  and  C_20 
REMARK    8  A    between atoms: CA_19  and  CB_22 
REMARK       I    between atoms: C_20  and  N_26 
REMARK    9  A    between atoms: CB_22  and  CG_23 
REMARK   10  A    between atoms: CG_23  and  CD1_24 
REMARK   11  A    between atoms: CG_23  and  CD2_25 
REMARK   12  A    between atoms: N_26  and  CA_27 
REMARK   13  A    between atoms: CA_27  and  C_28 
REMARK   14  A    between atoms: CA_27  and  CB_30 
REMARK       I    between atoms: C_28  and  N_32 
REMARK   15  A    between atoms: CB_30  and  OG_31 
REMARK   16  A    between atoms: N_32  and  C1_33 
REMARK   17  A    between atoms: C1_33  and  C2_34 
REMARK   18  A    between atoms: C1_33  and  C9_41 
REMARK   19  A    between atoms: C2_34  and  C3_35 
REMARK   20  A    between atoms: C9_41  and  N2_42 
REMARK   21  A    between atoms: N2_42  and  C10_43 
REMARK   22  A    between atoms: C10_43  and  C11_44 
REMARK   23  A    between atoms: C10_43  and  C_48 
REMARK   24  A    between atoms: C11_44  and  C12_45 
REMARK   25  A    between atoms: C12_45  and  SD_46 
REMARK   26  A    between atoms: SD_46  and  C13_47 
REMARK       I    between atoms: C_48  and  N_50 
REMARK   27  A    between atoms: N_50  and  CA_51 
REMARK   28  A    between atoms: CA_51  and  C_52 
REMARK   29  A    between atoms: CA_51  and  CB_54 
REMARK       I    between atoms: C_52  and  N_55 
REMARK   30  A    between atoms: N_55  and  CA_56 
REMARK   31  A    between atoms: CA_56  and  C_57 
REMARK   32  A    between atoms: CA_56  and  CB_59 
REMARK   33  A    between atoms: CB_59  and  CG_60 
ROOT
ATOM      1  C   PRO d           3.624  30.796  16.399  0.00  0.00     0.242 C 
ATOM      2  O   PRO d           3.040  31.030  15.320  0.00  0.00    -0.271 OA
ATOM      3  N   PRO d           4.569  31.619  16.865  0.00  0.00    -0.353 N 
ATOM      4  H33 PRO d           5.079  31.355  17.683  0.00  0.00     0.163 HD
ENDROOT
BRANCH   3   5
ATOM      5  C1  PRO d           4.879  32.888  16.219  0.00  0.00     0.039 C 
ATOM      6  H34 PRO d           3.933  33.426  16.056  0.00  0.00     0.075 H 
BRANCH   5   7
ATOM      7  C2  PRO d           5.772  33.718  17.112  0.00  0.00    -0.021 C 
ATOM      8  H35 PRO d           5.129  34.181  17.876  0.00  0.00     0.043 H 
ATOM      9  H36 PRO d           6.221  34.503  16.486  0.00  0.00     0.043 H 
BRANCH   7  10
ATOM     10  C3  PRO d           6.912  33.015  17.845  0.00  0.00    -0.056 A 
ATOM     11  C4  PRO d           6.772  32.806  19.222  0.00  0.00    -0.077 A 
ATOM     12  C6  PRO d           7.777  32.150  19.930  0.00  0.00    -0.082 A 
ATOM     13  H37 PRO d           5.884  33.155  19.737  0.00  0.00     0.084 H 
ATOM     14  C8  PRO d           8.925  31.705  19.277  0.00  0.00    -0.083 A 
ATOM     15  H39 PRO d           7.665  31.985  20.995  0.00  0.00     0.083 H 
ATOM     16  C7  PRO d           9.067  31.921  17.911  0.00  0.00    -0.082 A 
ATOM     17  H41 PRO d           9.703  31.193  19.832  0.00  0.00     0.083 H 
ATOM     18  C5  PRO d           8.068  32.567  17.191  0.00  0.00    -0.077 A 
ATOM     19  H40 PRO d           9.963  31.582  17.403  0.00  0.00     0.083 H 
ATOM     20  H38 PRO d           8.183  32.725  16.125  0.00  0.00     0.084 H 
ENDBRANCH   7  10
ENDBRANCH   5   7
BRANCH   5  21
ATOM     21  C9  PRO d           5.583  32.731  14.873  0.00  0.00     0.101 C 
ATOM     22  H42 PRO d           5.991  31.712  14.805  0.00  0.00     0.079 H 
ATOM     23  H43 PRO d           6.407  33.459  14.820  0.00  0.00     0.079 H 
BRANCH  21  24
ATOM     24  N2  PRO d           4.701  32.951  13.754  0.00  0.00    -0.060 N 
ATOM     25  H44 PRO d           3.998  32.229  13.768  0.00  0.00     0.278 HD
ATOM     26  H45 PRO d           5.245  32.875  12.910  0.00  0.00     0.278 HD
BRANCH  24  27
ATOM     27  C10 PRO d           4.014  34.248  13.733  0.00  0.00     0.178 C 
ATOM     28  H46 PRO d           4.216  34.758  14.687  0.00  0.00     0.099 H 
BRANCH  27  29
ATOM     29  C11 PRO d           4.596  35.100  12.582  0.00  0.00    -0.022 C 
ATOM     30  H47 PRO d           3.998  34.882  11.684  0.00  0.00     0.037 H 
ATOM     31  H48 PRO d           5.632  34.765  12.424  0.00  0.00     0.037 H 
BRANCH  29  32
ATOM     32  C12 PRO d           4.636  36.629  12.737  0.00  0.00    -0.021 C 
ATOM     33  H49 PRO d           5.021  37.055  11.798  0.00  0.00     0.049 H 
ATOM     34  H50 PRO d           5.327  36.869  13.558  0.00  0.00     0.049 H 
BRANCH  32  35
ATOM     35  SD  PRO d           3.049  37.413  13.098  0.00  0.00    -0.173 SA
BRANCH  35  36
ATOM     36  C13 PRO d           2.264  37.172  11.536  0.00  0.00    -0.035 C 
ATOM     37  H51 PRO d           3.026  37.142  10.744  0.00  0.00     0.041 H 
ATOM     38  H52 PRO d           1.567  38.002  11.344  0.00  0.00     0.041 H 
ATOM     39  H53 PRO d           1.708  36.223  11.547  0.00  0.00     0.041 H 
ENDBRANCH  35  36
ENDBRANCH  32  35
ENDBRANCH  29  32
ENDBRANCH  27  29
BRANCH  27  40
ATOM     40  C   PRO d           2.470  34.122  13.578  0.00  0.00     0.249 C 
ATOM     41  O   PRO d           1.733  34.427  14.530  0.00  0.00    -0.271 OA
ATOM     42  N   PRO d           1.942  33.786  12.402  0.00  0.00    -0.346 N 
ATOM     43  H54 PRO d           2.526  33.714  11.593  0.00  0.00     0.163 HD
BRANCH  42  44
ATOM     44  CA  PRO d           0.514  33.524  12.296  0.00  0.00     0.086 C 
ATOM     45  H55 PRO d          -0.113  34.358  12.646  0.00  0.00     0.086 H 
BRANCH  44  46
ATOM     46  C   PRO d           0.493  32.313  13.226  0.00  0.00     0.240 C 
ATOM     47  O   PRO d           1.384  31.452  13.181  0.00  0.00    -0.271 OA
ATOM     48  N   PRO d          -0.435  32.399  14.176  0.00  0.00    -0.344 N 
ATOM     49  H59 PRO d          -1.053  33.185  14.172  0.00  0.00     0.163 HD
BRANCH  48  50
ATOM     50  CA  PRO d          -0.586  31.396  15.220  0.00  0.00     0.101 C 
ATOM     51  H60 PRO d           0.223  31.511  15.955  0.00  0.00     0.090 H 
BRANCH  50  52
ATOM     52  C   PRO d          -0.505  29.995  14.625  0.00  0.00     0.197 C 
ATOM     53  O   PRO d          -1.315  29.715  13.731  0.00  0.00    -0.646 OA
ATOM     54  OXT PRO d           0.421  29.271  15.005  0.00  0.00    -0.646 OA
ENDBRANCH  50  52
BRANCH  50  55
ATOM     55  CB  PRO d          -1.949  31.646  15.924  0.00  0.00     0.003 C 
ATOM     56  H61 PRO d          -2.731  31.223  15.276  0.00  0.00     0.046 H 
ATOM     57  H62 PRO d          -2.082  32.736  15.996  0.00  0.00     0.046 H 
BRANCH  55  58
ATOM     58  CG  PRO d          -2.165  31.070  17.329  0.00  0.00     0.030 A 
ATOM     59  ND1 PRO d          -1.265  30.816  18.279  0.00  0.00    -0.353 N 
ATOM     60  CE1 PRO d          -1.885  30.264  19.298  0.00  0.00     0.063 A 
ATOM     61  H63 PRO d          -0.256  31.017  18.224  0.00  0.00     0.166 HD
ATOM     62  NE2 PRO d          -3.180  30.162  19.014  0.00  0.00    -0.254 NA
ATOM     63  H65 PRO d          -1.415  29.941  20.226  0.00  0.00     0.143 H 
ATOM     64  CD2 PRO d          -3.396  30.648  17.820  0.00  0.00     0.025 A 
ATOM     65  H64 PRO d          -4.355  30.711  17.308  0.00  0.00     0.117 H 
ENDBRANCH  55  58
ENDBRANCH  50  55
ENDBRANCH  48  50
ENDBRANCH  44  46
BRANCH  44  66
ATOM     66  CB  PRO d           0.136  33.130  10.880  0.00  0.00    -0.049 C 
ATOM     67  H56 PRO d           0.601  33.829  10.168  0.00  0.00     0.030 H 
ATOM     68  H57 PRO d          -0.958  33.168  10.768  0.00  0.00     0.030 H 
ATOM     69  H58 PRO d           0.490  32.109  10.676  0.00  0.00     0.030 H 
ENDBRANCH  44  66
ENDBRANCH  42  44
ENDBRANCH  27  40
ENDBRANCH  24  27
ENDBRANCH  21  24
ENDBRANCH   5  21
ENDBRANCH   3   5
BRANCH   1  70
ATOM     70  CA  PRO d           3.336  29.553  17.258  0.00  0.00     0.109 C 
ATOM     71  H29 PRO d           3.330  28.663  16.611  0.00  0.00     0.090 H 
BRANCH  70  72
ATOM     72  N   PRO d           4.381  29.380  18.280  0.00  0.00    -0.344 N 
ATOM     73  C   PRO d           4.160  29.349  19.600  0.00  0.00     0.241 C 
ATOM     74  O   PRO d           3.026  29.581  20.049  0.00  0.00    -0.271 OA
ATOM     75  H28 PRO d           5.325  29.277  17.966  0.00  0.00     0.163 HD
BRANCH  73  76
ATOM     76  CA  PRO d           5.370  29.186  20.523  0.00  0.00     0.089 C 
ATOM     77  H18 PRO d           5.803  30.188  20.655  0.00  0.00     0.087 H 
BRANCH  76  78
ATOM     78  N   PRO d           4.999  28.655  21.826  0.00  0.00    -0.346 N 
ATOM     79  C   PRO d           5.204  29.388  22.918  0.00  0.00     0.241 C 
ATOM     80  O   PRO d           5.628  30.545  22.828  0.00  0.00    -0.271 OA
ATOM     81  H17 PRO d           4.593  27.745  21.901  0.00  0.00     0.163 HD
BRANCH  79  82
ATOM     82  CA  PRO d           4.967  28.867  24.323  0.00  0.00     0.094 C 
ATOM     83  H11 PRO d           4.180  28.098  24.341  0.00  0.00     0.088 H 
BRANCH  82  84
ATOM     84  N   PRO d           6.246  28.298  24.778  0.00  0.00    -0.346 N 
ATOM     85  C   PRO d           6.692  27.043  24.538  0.00  0.00     0.249 C 
ATOM     86  O   PRO d           6.087  26.231  23.814  0.00  0.00    -0.271 OA
ATOM     87  H10 PRO d           6.842  28.895  25.315  0.00  0.00     0.163 HD
BRANCH  85  88
ATOM     88  CA  PRO d           8.013  26.569  25.161  0.00  0.00     0.178 C 
ATOM     89  N   PRO d           7.854  25.141  25.411  0.00  0.00    -0.062 N 
ATOM     90  CD  PRO d           9.127  24.489  25.106  0.00  0.00     0.083 C 
ATOM     91  H1  PRO d           7.128  24.769  24.819  0.00  0.00     0.278 HD
ATOM     92  H2  PRO d           7.613  24.987  26.377  0.00  0.00     0.278 HD
ATOM     93  CG  PRO d          10.130  25.609  24.812  0.00  0.00    -0.040 C 
ATOM     94  H8  PRO d           9.019  23.835  24.228  0.00  0.00     0.075 H 
ATOM     95  H9  PRO d           9.464  23.893  25.967  0.00  0.00     0.075 H 
ATOM     96  CB  PRO d           9.220  26.691  24.239  0.00  0.00    -0.028 C 
ATOM     97  H6  PRO d          10.632  25.950  25.730  0.00  0.00     0.035 H 
ATOM     98  H7  PRO d          10.886  25.290  24.079  0.00  0.00     0.035 H 
ATOM     99  H4  PRO d           9.683  27.687  24.307  0.00  0.00     0.036 H 
ATOM    100  H5  PRO d           8.953  26.483  23.192  0.00  0.00     0.036 H 
ATOM    101  H3  PRO d           8.201  27.121  26.093  0.00  0.00     0.099 H 
ENDBRANCH  85  88
ENDBRANCH  82  84
BRANCH  82 102
ATOM    102  CB  PRO d           4.549  30.069  25.155  0.00  0.00     0.002 C 
ATOM    103  H12 PRO d           5.199  30.918  24.898  0.00  0.00     0.046 H 
ATOM    104  H13 PRO d           4.672  29.822  26.219  0.00  0.00     0.046 H 
BRANCH 102 105
ATOM    105  CG  PRO d           3.120  30.464  24.913  0.00  0.00     0.030 A 
ATOM    106  ND1 PRO d           2.100  29.626  24.821  0.00  0.00    -0.353 N 
ATOM    107  CE1 PRO d           1.063  30.363  24.549  0.00  0.00     0.063 A 
ATOM    108  H14 PRO d           2.122  28.603  24.941  0.00  0.00     0.166 HD
ATOM    109  NE2 PRO d           1.408  31.633  24.481  0.00  0.00    -0.254 NA
ATOM    110  H16 PRO d           0.054  29.985  24.399  0.00  0.00     0.143 H 
ATOM    111  CD2 PRO d           2.682  31.753  24.702  0.00  0.00     0.025 A 
ATOM    112  H15 PRO d           3.273  32.668  24.718  0.00  0.00     0.117 H 
ENDBRANCH 102 105
ENDBRANCH  82 102
ENDBRANCH  79  82
ENDBRANCH  76  78
BRANCH  76 113
ATOM    113  CB  PRO d           6.497  28.232  20.017  0.00  0.00    -0.035 C 
ATOM    114  H19 PRO d           7.061  28.769  19.239  0.00  0.00     0.037 H 
ATOM    115  H20 PRO d           6.011  27.350  19.575  0.00  0.00     0.037 H 
BRANCH 113 116
ATOM    116  CG  PRO d           7.544  27.712  21.091  0.00  0.00    -0.059 C 
ATOM    117  H21 PRO d           7.006  27.397  21.996  0.00  0.00     0.038 H 
BRANCH 116 118
ATOM    118  CD1 PRO d           8.413  26.580  20.549  0.00  0.00    -0.073 C 
ATOM    119  H22 PRO d           9.391  26.597  21.051  0.00  0.00     0.028 H 
ATOM    120  H23 PRO d           8.553  26.712  19.467  0.00  0.00     0.028 H 
ATOM    121  H24 PRO d           7.918  25.616  20.740  0.00  0.00     0.028 H 
ENDBRANCH 116 118
BRANCH 116 122
ATOM    122  CD2 PRO d           8.584  28.774  21.411  0.00  0.00    -0.073 C 
ATOM    123  H25 PRO d           8.717  28.840  22.501  0.00  0.00     0.028 H 
ATOM    124  H26 PRO d           8.246  29.747  21.023  0.00  0.00     0.028 H 
ATOM    125  H27 PRO d           9.541  28.504  20.941  0.00  0.00     0.028 H 
ENDBRANCH 116 122
ENDBRANCH 113 116
ENDBRANCH  76 113
ENDBRANCH  73  76
ENDBRANCH  70  72
BRANCH  70 126
ATOM    126  CB  PRO d           1.925  29.710  17.912  0.00  0.00     0.044 C 
ATOM    127  H30 PRO d           1.372  30.467  17.336  0.00  0.00     0.077 H 
ATOM    128  H31 PRO d           2.072  30.068  18.941  0.00  0.00     0.077 H 
BRANCH 126 129
ATOM    129  OG  PRO d           1.115  28.531  17.972  0.00  0.00    -0.398 OA
ATOM    130  H32 PRO d           0.204  28.779  18.073  0.00  0.00     0.209 HD
ENDBRANCH 126 129
ENDBRANCH  70 126
ENDBRANCH   1  70
TORSDOF 33
ENDMDL
