MODEL 1
REMARK VINA RESULT:      -5.5      0.000      0.000
REMARK  4 active torsions:
REMARK  status: ('A' for Active; 'I' for Inactive)
REMARK    1  A    between atoms: C1_7  and  P1_1 
REMARK    2  A    between atoms: N1_10  and  C1_7 
REMARK    3  A    between atoms: C2_8  and  C3_9 
REMARK    4  A    between atoms: C2_8  and  N1_10 
ROOT
ATOM      1  N1  GPJ d          59.214   8.960  29.445  0.00  0.00    -0.053 N 
ATOM      2  H5  GPJ d          58.282   9.335  29.531  0.00  0.00     0.278 HD
ATOM      3  H6  GPJ d          59.884   9.712  29.487  0.00  0.00     0.278 HD
ENDROOT
BRANCH   1   4
ATOM      4  C1  GPJ d          59.315   8.379  28.111  0.00  0.00     0.183 C 
ATOM      5  H1  GPJ d          59.505   7.299  28.204  0.00  0.00     0.097 H 
ATOM      6  H2  GPJ d          58.366   8.540  27.578  0.00  0.00     0.097 H 
BRANCH   4   7
ATOM      7  P1  GPJ d          60.597   9.100  27.207  0.00  0.00     0.285 P 
ATOM      8  O1  GPJ d          61.525   9.777  28.159  0.00  0.00    -0.638 OA
ATOM      9  O2  GPJ d          59.883  10.034  26.295  0.00  0.00    -0.638 OA
ATOM     10  O3  GPJ d          61.297   8.017  26.450  0.00  0.00    -0.638 OA
ENDBRANCH   4   7
ENDBRANCH   1   4
BRANCH   1  11
ATOM     11  C2  GPJ d          59.444   8.120  30.633  0.00  0.00     0.161 C 
ATOM     12  H3  GPJ d          58.481   7.920  31.125  0.00  0.00     0.092 H 
ATOM     13  H4  GPJ d          59.900   7.170  30.319  0.00  0.00     0.092 H 
BRANCH  11  14
ATOM     14  C3  GPJ d          60.367   8.811  31.615  0.00  0.00     0.199 C 
ATOM     15  O4  GPJ d          60.517   8.316  32.784  0.00  0.00    -0.647 OA
ATOM     16  O5  GPJ d          60.934   9.818  31.220  0.00  0.00    -0.647 OA
ENDBRANCH  11  14
ENDBRANCH   1  11
TORSDOF 4
ENDMDL
MODEL 2
REMARK VINA RESULT:      -3.7      1.698      4.199
REMARK  4 active torsions:
REMARK  status: ('A' for Active; 'I' for Inactive)
REMARK    1  A    between atoms: C1_7  and  P1_1 
REMARK    2  A    between atoms: N1_10  and  C1_7 
REMARK    3  A    between atoms: C2_8  and  C3_9 
REMARK    4  A    between atoms: C2_8  and  N1_10 
ROOT
ATOM      1  N1  GPJ d          59.757   7.551  28.819  0.00  0.00    -0.053 N 
ATOM      2  H5  GPJ d          59.648   6.569  28.618  0.00  0.00     0.278 HD
ATOM      3  H6  GPJ d          60.738   7.782  28.846  0.00  0.00     0.278 HD
ENDROOT
BRANCH   1   4
ATOM      4  C1  GPJ d          59.237   7.766  30.165  0.00  0.00     0.183 C 
ATOM      5  H1  GPJ d          58.198   8.122  30.095  0.00  0.00     0.097 H 
ATOM      6  H2  GPJ d          59.262   6.814  30.715  0.00  0.00     0.097 H 
BRANCH   4   7
ATOM      7  P1  GPJ d          60.175   8.935  31.023  0.00  0.00     0.285 P 
ATOM      8  O1  GPJ d          60.568   8.352  32.339  0.00  0.00    -0.638 OA
ATOM      9  O2  GPJ d          59.252  10.096  31.130  0.00  0.00    -0.638 OA
ATOM     10  O3  GPJ d          61.378   9.261  30.197  0.00  0.00    -0.638 OA
ENDBRANCH   4   7
ENDBRANCH   1   4
BRANCH   1  11
ATOM     11  C2  GPJ d          59.179   8.286  27.680  0.00  0.00     0.161 C 
ATOM     12  H3  GPJ d          58.600   7.587  27.059  0.00  0.00     0.092 H 
ATOM     13  H4  GPJ d          58.514   9.075  28.061  0.00  0.00     0.092 H 
BRANCH  11  14
ATOM     14  C3  GPJ d          60.265   8.918  26.836  0.00  0.00     0.199 C 
ATOM     15  O4  GPJ d          61.342   8.265  26.615  0.00  0.00    -0.647 OA
ATOM     16  O5  GPJ d          60.040  10.035  26.398  0.00  0.00    -0.647 OA
ENDBRANCH  11  14
ENDBRANCH   1  11
TORSDOF 4
ENDMDL
MODEL 3
REMARK VINA RESULT:      -2.8      1.641      4.185
REMARK  4 active torsions:
REMARK  status: ('A' for Active; 'I' for Inactive)
REMARK    1  A    between atoms: C1_7  and  P1_1 
REMARK    2  A    between atoms: N1_10  and  C1_7 
REMARK    3  A    between atoms: C2_8  and  C3_9 
REMARK    4  A    between atoms: C2_8  and  N1_10 
ROOT
ATOM      1  N1  GPJ d          58.665   8.185  29.010  0.00  0.00    -0.053 N 
ATOM      2  H5  GPJ d          58.584   9.181  29.144  0.00  0.00     0.278 HD
ATOM      3  H6  GPJ d          57.778   7.747  29.204  0.00  0.00     0.278 HD
ENDROOT
BRANCH   1   4
ATOM      4  C1  GPJ d          59.604   7.699  30.014  0.00  0.00     0.183 C 
ATOM      5  H1  GPJ d          59.087   6.985  30.672  0.00  0.00     0.097 H 
ATOM      6  H2  GPJ d          60.440   7.193  29.508  0.00  0.00     0.097 H 
BRANCH   4   7
ATOM      7  P1  GPJ d          60.229   8.994  30.971  0.00  0.00     0.285 P 
ATOM      8  O1  GPJ d          59.224  10.097  30.988  0.00  0.00    -0.638 OA
ATOM      9  O2  GPJ d          61.496   9.346  30.276  0.00  0.00    -0.638 OA
ATOM     10  O3  GPJ d          60.482   8.473  32.349  0.00  0.00    -0.638 OA
ENDBRANCH   4   7
ENDBRANCH   1   4
BRANCH   1  11
ATOM     11  C2  GPJ d          58.941   7.971  27.579  0.00  0.00     0.161 C 
ATOM     12  H3  GPJ d          59.180   6.910  27.414  0.00  0.00     0.092 H 
ATOM     13  H4  GPJ d          58.048   8.240  26.996  0.00  0.00     0.092 H 
BRANCH  11  14
ATOM     14  C3  GPJ d          60.107   8.819  27.119  0.00  0.00     0.199 C 
ATOM     15  O4  GPJ d          60.007  10.093  27.165  0.00  0.00    -0.647 OA
ATOM     16  O5  GPJ d          61.100   8.224  26.730  0.00  0.00    -0.647 OA
ENDBRANCH  11  14
ENDBRANCH   1  11
TORSDOF 4
ENDMDL
