MODEL 1
REMARK VINA RESULT:      -8.2      0.000      0.000
REMARK  15 active torsions:
REMARK  status: ('A' for Active; 'I' for Inactive)
REMARK    1  A    between atoms: C1_1  and  C2_2 
REMARK    2  A    between atoms: C2_2  and  N6_6 
REMARK    3  A    between atoms: C2_2  and  C3_3 
REMARK    4  A    between atoms: N6_6  and  C7_7 
REMARK    5  A    between atoms: C7_7  and  C16_16 
REMARK    6  A    between atoms: C7_7  and  C8_8 
REMARK    7  A    between atoms: C8_8  and  C9_9 
REMARK    8  A    between atoms: C9_9  and  C10_10 
REMARK       I    between atoms: C16_16  and  N18_18 
REMARK    9  A    between atoms: N18_18  and  C19_19 
REMARK   10  A    between atoms: C19_19  and  C27_27 
REMARK   11  A    between atoms: C19_19  and  C20_20 
REMARK   12  A    between atoms: C20_20  and  C21_21 
REMARK   13  A    between atoms: C21_21  and  C22_22 
REMARK   14  A    between atoms: C22_22  and  N23_23 
REMARK       I    between atoms: N23_23  and  C24_24 
REMARK       I    between atoms: C24_24  and  N25_25 
REMARK       I    between atoms: C27_27  and  N29_29 
REMARK   15  A    between atoms: N29_29  and  C30_30 
ROOT
ATOM      1  C16 INH d         -18.257  93.267  80.440  0.00  0.00     0.249 C 
ATOM      2  O17 INH d         -17.926  92.329  79.714  0.00  0.00    -0.271 OA
ATOM      3  N18 INH d         -17.769  94.496  80.311  0.00  0.00    -0.346 N 
ATOM      4  H17 INH d         -18.093  95.219  80.921  0.00  0.00     0.163 HD
ENDROOT
BRANCH   3   5
ATOM      5  C19 INH d         -16.772  94.808  79.298  0.00  0.00     0.089 C 
ATOM      6  H18 INH d         -16.581  93.905  78.699  0.00  0.00     0.087 H 
BRANCH   5   7
ATOM      7  C27 INH d         -15.476  95.278  79.933  0.00  0.00     0.245 C 
ATOM      8  N29 INH d         -14.544  95.709  79.081  0.00  0.00    -0.325 N 
ATOM      9  H30 INH d         -14.809  95.674  78.117  0.00  0.00     0.169 HD
ATOM     10  O28 INH d         -15.373  95.347  81.156  0.00  0.00    -0.271 OA
BRANCH   8  11
ATOM     11  C30 INH d         -13.285  96.192  79.309  0.00  0.00     0.034 A 
ATOM     12  C35 INH d         -12.159  95.385  79.346  0.00  0.00    -0.057 A 
ATOM     13  C34 INH d         -10.887  95.935  79.539  0.00  0.00    -0.081 A 
ATOM     14  H35 INH d         -12.264  94.313  79.223  0.00  0.00     0.086 H 
ATOM     15  C33 INH d         -10.743  97.303  79.697  0.00  0.00    -0.083 A 
ATOM     16  H34 INH d         -10.015  95.292  79.564  0.00  0.00     0.083 H 
ATOM     17  C32 INH d         -11.857  98.121  79.667  0.00  0.00    -0.081 A 
ATOM     18  H33 INH d          -9.759  97.732  79.845  0.00  0.00     0.083 H 
ATOM     19  C31 INH d         -13.127  97.564  79.475  0.00  0.00    -0.057 A 
ATOM     20  H32 INH d         -11.748  99.192  79.792  0.00  0.00     0.083 H 
ATOM     21  H31 INH d         -13.998  98.210  79.455  0.00  0.00     0.086 H 
ENDBRANCH   8  11
ENDBRANCH   5   7
BRANCH   5  22
ATOM     22  C20 INH d         -17.253  95.919  78.397  0.00  0.00    -0.036 C 
ATOM     23  H19 INH d         -16.422  96.203  77.735  0.00  0.00     0.036 H 
ATOM     24  H20 INH d         -17.528  96.775  79.031  0.00  0.00     0.036 H 
BRANCH  22  25
ATOM     25  C21 INH d         -18.419  95.587  77.547  0.00  0.00    -0.048 C 
ATOM     26  H21 INH d         -18.707  94.534  77.682  0.00  0.00     0.035 H 
ATOM     27  H22 INH d         -18.189  95.771  76.488  0.00  0.00     0.035 H 
BRANCH  25  28
ATOM     28  C22 INH d         -19.501  96.483  78.007  0.00  0.00     0.009 C 
ATOM     29  H23 INH d         -19.903  97.020  77.136  0.00  0.00     0.064 H 
ATOM     30  H24 INH d         -19.075  97.206  78.719  0.00  0.00     0.064 H 
BRANCH  28  31
ATOM     31  N23 INH d         -20.590  95.784  78.659  0.00  0.00    -0.227 N 
ATOM     32  C24 INH d         -20.926  96.002  79.929  0.00  0.00     0.665 C 
ATOM     33  N26 INH d         -20.230  96.882  80.654  0.00  0.00    -0.235 N 
ATOM     34  N25 INH d         -21.944  95.341  80.478  0.00  0.00    -0.235 N 
ATOM     35  H28 INH d         -19.442  97.392  80.228  0.00  0.00     0.174 HD
ATOM     36  H29 INH d         -20.480  97.050  81.639  0.00  0.00     0.174 HD
ATOM     37  H26 INH d         -22.201  95.513  81.460  0.00  0.00     0.174 HD
ATOM     38  H27 INH d         -22.476  94.659  79.919  0.00  0.00     0.174 HD
ATOM     39  H25 INH d         -21.126  95.092  78.117  0.00  0.00     0.177 HD
ENDBRANCH  28  31
ENDBRANCH  25  28
ENDBRANCH  22  25
ENDBRANCH   5  22
ENDBRANCH   3   5
BRANCH   1  40
ATOM     40  C7  INH d         -19.279  93.057  81.548  0.00  0.00     0.179 C 
ATOM     41  H7  INH d         -20.038  93.852  81.511  0.00  0.00     0.099 H 
BRANCH  40  42
ATOM     42  N6  INH d         -19.914  91.748  81.344  0.00  0.00    -0.049 N 
ATOM     43  H5  INH d         -19.495  91.316  80.536  0.00  0.00     0.279 HD
ATOM     44  H6  INH d         -19.736  91.180  82.158  0.00  0.00     0.279 HD
BRANCH  42  45
ATOM     45  C2  INH d         -21.381  91.809  81.132  0.00  0.00     0.182 C 
ATOM     46  H4  INH d         -21.729  92.752  81.576  0.00  0.00     0.101 H 
BRANCH  45  47
ATOM     47  C1  INH d         -22.045  90.652  81.905  0.00  0.00    -0.040 C 
ATOM     48  H1  INH d         -22.530  91.047  82.810  0.00  0.00     0.031 H 
ATOM     49  H2  INH d         -21.279  89.915  82.191  0.00  0.00     0.031 H 
ATOM     50  H3  INH d         -22.798  90.168  81.266  0.00  0.00     0.031 H 
ENDBRANCH  45  47
BRANCH  45  51
ATOM     51  C3  INH d         -21.832  91.825  79.673  0.00  0.00     0.204 C 
ATOM     52  O5  INH d         -22.765  91.086  79.267  0.00  0.00    -0.646 OA
ATOM     53  O4  INH d         -21.245  92.594  78.901  0.00  0.00    -0.646 OA
ENDBRANCH  45  51
ENDBRANCH  42  45
ENDBRANCH  40  42
BRANCH  40  54
ATOM     54  C8  INH d         -18.578  93.077  82.917  0.00  0.00    -0.026 C 
ATOM     55  H8  INH d         -19.131  92.417  83.600  0.00  0.00     0.037 H 
ATOM     56  H9  INH d         -18.601  94.107  83.303  0.00  0.00     0.037 H 
BRANCH  54  57
ATOM     57  C9  INH d         -17.129  92.614  82.870  0.00  0.00    -0.039 C 
ATOM     58  H10 INH d         -16.644  93.134  82.031  0.00  0.00     0.040 H 
ATOM     59  H11 INH d         -17.135  91.531  82.677  0.00  0.00     0.040 H 
BRANCH  57  60
ATOM     60  C10 INH d         -16.290  92.847  84.086  0.00  0.00    -0.058 A 
ATOM     61  C15 INH d         -15.287  91.956  84.442  0.00  0.00    -0.077 A 
ATOM     62  C14 INH d         -14.494  92.193  85.557  0.00  0.00    -0.082 A 
ATOM     63  H16 INH d         -15.122  91.067  83.843  0.00  0.00     0.084 H 
ATOM     64  C13 INH d         -14.706  93.333  86.325  0.00  0.00    -0.083 A 
ATOM     65  H15 INH d         -13.712  91.492  85.827  0.00  0.00     0.083 H 
ATOM     66  C12 INH d         -15.703  94.224  85.978  0.00  0.00    -0.082 A 
ATOM     67  H14 INH d         -14.089  93.522  87.195  0.00  0.00     0.083 H 
ATOM     68  C11 INH d         -16.485  93.982  84.869  0.00  0.00    -0.077 A 
ATOM     69  H13 INH d         -15.870  95.111  86.577  0.00  0.00     0.083 H 
ATOM     70  H12 INH d         -17.263  94.687  84.601  0.00  0.00     0.084 H 
ENDBRANCH  57  60
ENDBRANCH  54  57
ENDBRANCH  40  54
ENDBRANCH   1  40
TORSDOF 15
ENDMDL
MODEL 2
REMARK VINA RESULT:      -7.8      1.955      6.336
REMARK  15 active torsions:
REMARK  status: ('A' for Active; 'I' for Inactive)
REMARK    1  A    between atoms: C1_1  and  C2_2 
REMARK    2  A    between atoms: C2_2  and  N6_6 
REMARK    3  A    between atoms: C2_2  and  C3_3 
REMARK    4  A    between atoms: N6_6  and  C7_7 
REMARK    5  A    between atoms: C7_7  and  C16_16 
REMARK    6  A    between atoms: C7_7  and  C8_8 
REMARK    7  A    between atoms: C8_8  and  C9_9 
REMARK    8  A    between atoms: C9_9  and  C10_10 
REMARK       I    between atoms: C16_16  and  N18_18 
REMARK    9  A    between atoms: N18_18  and  C19_19 
REMARK   10  A    between atoms: C19_19  and  C27_27 
REMARK   11  A    between atoms: C19_19  and  C20_20 
REMARK   12  A    between atoms: C20_20  and  C21_21 
REMARK   13  A    between atoms: C21_21  and  C22_22 
REMARK   14  A    between atoms: C22_22  and  N23_23 
REMARK       I    between atoms: N23_23  and  C24_24 
REMARK       I    between atoms: C24_24  and  N25_25 
REMARK       I    between atoms: C27_27  and  N29_29 
REMARK   15  A    between atoms: N29_29  and  C30_30 
ROOT
ATOM      1  C16 INH d         -17.115  94.556  79.830  0.00  0.00     0.249 C 
ATOM      2  O17 INH d         -16.743  93.391  79.682  0.00  0.00    -0.271 OA
ATOM      3  N18 INH d         -18.207  94.892  80.507  0.00  0.00    -0.346 N 
ATOM      4  H17 INH d         -18.445  95.858  80.608  0.00  0.00     0.163 HD
ENDROOT
BRANCH   3   5
ATOM      5  C19 INH d         -19.065  93.879  81.105  0.00  0.00     0.089 C 
ATOM      6  H18 INH d         -20.010  94.353  81.413  0.00  0.00     0.087 H 
BRANCH   5   7
ATOM      7  C27 INH d         -18.400  93.244  82.313  0.00  0.00     0.245 C 
ATOM      8  N29 INH d         -17.301  93.861  82.752  0.00  0.00    -0.325 N 
ATOM      9  H30 INH d         -17.042  94.675  82.233  0.00  0.00     0.169 HD
ATOM     10  O28 INH d         -18.931  92.295  82.886  0.00  0.00    -0.271 OA
BRANCH   8  11
ATOM     11  C30 INH d         -16.471  93.562  83.797  0.00  0.00     0.034 A 
ATOM     12  C35 INH d         -16.448  94.286  84.979  0.00  0.00    -0.057 A 
ATOM     13  C34 INH d         -15.612  93.911  86.035  0.00  0.00    -0.081 A 
ATOM     14  H35 INH d         -17.088  95.155  85.086  0.00  0.00     0.086 H 
ATOM     15  C33 INH d         -14.791  92.803  85.906  0.00  0.00    -0.083 A 
ATOM     16  H34 INH d         -15.605  94.487  86.954  0.00  0.00     0.083 H 
ATOM     17  C32 INH d         -14.799  92.072  84.733  0.00  0.00    -0.081 A 
ATOM     18  H33 INH d         -14.143  92.509  86.724  0.00  0.00     0.083 H 
ATOM     19  C31 INH d         -15.638  92.454  83.679  0.00  0.00    -0.057 A 
ATOM     20  H32 INH d         -14.157  91.205  84.628  0.00  0.00     0.083 H 
ATOM     21  H31 INH d         -15.639  91.879  82.759  0.00  0.00     0.086 H 
ENDBRANCH   8  11
ENDBRANCH   5   7
BRANCH   5  22
ATOM     22  C20 INH d         -19.353  92.771  80.123  0.00  0.00    -0.036 C 
ATOM     23  H19 INH d         -19.219  91.812  80.644  0.00  0.00     0.036 H 
ATOM     24  H20 INH d         -18.625  92.848  79.302  0.00  0.00     0.036 H 
BRANCH  22  25
ATOM     25  C21 INH d         -20.710  92.784  79.532  0.00  0.00    -0.048 C 
ATOM     26  H21 INH d         -20.913  91.835  79.013  0.00  0.00     0.035 H 
ATOM     27  H22 INH d         -20.814  93.619  78.823  0.00  0.00     0.035 H 
BRANCH  25  28
ATOM     28  C22 INH d         -21.629  92.956  80.677  0.00  0.00     0.009 C 
ATOM     29  H23 INH d         -22.202  93.883  80.527  0.00  0.00     0.064 H 
ATOM     30  H24 INH d         -21.029  93.039  81.595  0.00  0.00     0.064 H 
BRANCH  28  31
ATOM     31  N23 INH d         -22.562  91.860  80.836  0.00  0.00    -0.227 N 
ATOM     32  C24 INH d         -22.440  90.945  81.797  0.00  0.00     0.665 C 
ATOM     33  N26 INH d         -21.411  91.014  82.646  0.00  0.00    -0.235 N 
ATOM     34  N25 INH d         -23.334  89.963  81.908  0.00  0.00    -0.235 N 
ATOM     35  H28 INH d         -20.722  91.774  82.559  0.00  0.00     0.174 HD
ATOM     36  H29 INH d         -21.307  90.306  83.388  0.00  0.00     0.174 HD
ATOM     37  H26 INH d         -23.235  89.259  82.653  0.00  0.00     0.174 HD
ATOM     38  H27 INH d         -24.123  89.909  81.249  0.00  0.00     0.174 HD
ATOM     39  H25 INH d         -23.352  91.785  80.179  0.00  0.00     0.177 HD
ENDBRANCH  28  31
ENDBRANCH  25  28
ENDBRANCH  22  25
ENDBRANCH   5  22
ENDBRANCH   3   5
BRANCH   1  40
ATOM     40  C7  INH d         -16.309  95.700  79.233  0.00  0.00     0.179 C 
ATOM     41  H7  INH d         -15.677  95.325  78.415  0.00  0.00     0.099 H 
BRANCH  40  42
ATOM     42  N6  INH d         -17.249  96.705  78.720  0.00  0.00    -0.049 N 
ATOM     43  H5  INH d         -18.062  96.711  79.316  0.00  0.00     0.279 HD
ATOM     44  H6  INH d         -16.799  97.607  78.756  0.00  0.00     0.279 HD
BRANCH  42  45
ATOM     45  C2  INH d         -17.696  96.466  77.325  0.00  0.00     0.182 C 
ATOM     46  H4  INH d         -17.314  95.477  77.033  0.00  0.00     0.101 H 
BRANCH  45  47
ATOM     47  C1  INH d         -17.041  97.514  76.405  0.00  0.00    -0.040 C 
ATOM     48  H1  INH d         -15.950  97.499  76.551  0.00  0.00     0.031 H 
ATOM     49  H2  INH d         -17.429  98.513  76.652  0.00  0.00     0.031 H 
ATOM     50  H3  INH d         -17.274  97.279  75.356  0.00  0.00     0.031 H 
ENDBRANCH  45  47
BRANCH  45  51
ATOM     51  C3  INH d         -19.209  96.422  77.120  0.00  0.00     0.204 C 
ATOM     52  O5  INH d         -19.775  97.149  76.263  0.00  0.00    -0.646 OA
ATOM     53  O4  INH d         -19.861  95.646  77.830  0.00  0.00    -0.646 OA
ENDBRANCH  45  51
ENDBRANCH  42  45
ENDBRANCH  40  42
BRANCH  40  54
ATOM     54  C8  INH d         -15.423  96.336  80.317  0.00  0.00    -0.026 C 
ATOM     55  H8  INH d         -14.981  95.531  80.922  0.00  0.00     0.037 H 
ATOM     56  H9  INH d         -16.056  96.970  80.955  0.00  0.00     0.037 H 
BRANCH  54  57
ATOM     57  C9  INH d         -14.293  97.192  79.761  0.00  0.00    -0.039 C 
ATOM     58  H10 INH d         -13.899  97.797  80.591  0.00  0.00     0.040 H 
ATOM     59  H11 INH d         -14.727  97.854  78.998  0.00  0.00     0.040 H 
BRANCH  57  60
ATOM     60  C10 INH d         -13.135  96.484  79.133  0.00  0.00    -0.058 A 
ATOM     61  C15 INH d         -12.202  95.815  79.912  0.00  0.00    -0.077 A 
ATOM     62  C14 INH d         -11.144  95.137  79.320  0.00  0.00    -0.082 A 
ATOM     63  H16 INH d         -12.299  95.822  80.991  0.00  0.00     0.084 H 
ATOM     64  C13 INH d         -11.019  95.127  77.935  0.00  0.00    -0.083 A 
ATOM     65  H15 INH d         -10.419  94.616  79.935  0.00  0.00     0.083 H 
ATOM     66  C12 INH d         -11.944  95.792  77.153  0.00  0.00    -0.082 A 
ATOM     67  H14 INH d         -10.195  94.598  77.469  0.00  0.00     0.083 H 
ATOM     68  C11 INH d         -12.991  96.461  77.748  0.00  0.00    -0.077 A 
ATOM     69  H13 INH d         -11.846  95.786  76.074  0.00  0.00     0.083 H 
ATOM     70  H12 INH d         -13.715  96.978  77.128  0.00  0.00     0.084 H 
ENDBRANCH  57  60
ENDBRANCH  54  57
ENDBRANCH  40  54
ENDBRANCH   1  40
TORSDOF 15
ENDMDL
MODEL 3
REMARK VINA RESULT:      -7.5      2.213      5.344
REMARK  15 active torsions:
REMARK  status: ('A' for Active; 'I' for Inactive)
REMARK    1  A    between atoms: C1_1  and  C2_2 
REMARK    2  A    between atoms: C2_2  and  N6_6 
REMARK    3  A    between atoms: C2_2  and  C3_3 
REMARK    4  A    between atoms: N6_6  and  C7_7 
REMARK    5  A    between atoms: C7_7  and  C16_16 
REMARK    6  A    between atoms: C7_7  and  C8_8 
REMARK    7  A    between atoms: C8_8  and  C9_9 
REMARK    8  A    between atoms: C9_9  and  C10_10 
REMARK       I    between atoms: C16_16  and  N18_18 
REMARK    9  A    between atoms: N18_18  and  C19_19 
REMARK   10  A    between atoms: C19_19  and  C27_27 
REMARK   11  A    between atoms: C19_19  and  C20_20 
REMARK   12  A    between atoms: C20_20  and  C21_21 
REMARK   13  A    between atoms: C21_21  and  C22_22 
REMARK   14  A    between atoms: C22_22  and  N23_23 
REMARK       I    between atoms: N23_23  and  C24_24 
REMARK       I    between atoms: C24_24  and  N25_25 
REMARK       I    between atoms: C27_27  and  N29_29 
REMARK   15  A    between atoms: N29_29  and  C30_30 
ROOT
ATOM      1  C16 INH d         -17.291  93.001  80.998  0.00  0.00     0.249 C 
ATOM      2  O17 INH d         -17.375  92.238  80.034  0.00  0.00    -0.271 OA
ATOM      3  N18 INH d         -16.821  94.239  80.909  0.00  0.00    -0.346 N 
ATOM      4  H17 INH d         -16.797  94.815  81.727  0.00  0.00     0.163 HD
ENDROOT
BRANCH   3   5
ATOM      5  C19 INH d         -16.338  94.774  79.645  0.00  0.00     0.089 C 
ATOM      6  H18 INH d         -16.178  93.939  78.946  0.00  0.00     0.087 H 
BRANCH   5   7
ATOM      7  C27 INH d         -15.037  95.533  79.833  0.00  0.00     0.245 C 
ATOM      8  N29 INH d         -14.154  95.410  78.840  0.00  0.00    -0.325 N 
ATOM      9  H30 INH d         -14.453  94.830  78.083  0.00  0.00     0.169 HD
ATOM     10  O28 INH d         -14.891  96.287  80.792  0.00  0.00    -0.271 OA
BRANCH   8  11
ATOM     11  C30 INH d         -12.906  95.948  78.688  0.00  0.00     0.034 A 
ATOM     12  C35 INH d         -12.616  96.942  77.766  0.00  0.00    -0.057 A 
ATOM     13  C34 INH d         -11.331  97.490  77.682  0.00  0.00    -0.081 A 
ATOM     14  H35 INH d         -13.394  97.299  77.102  0.00  0.00     0.086 H 
ATOM     15  C33 INH d         -10.331  97.038  78.526  0.00  0.00    -0.083 A 
ATOM     16  H34 INH d         -11.119  98.267  76.957  0.00  0.00     0.083 H 
ATOM     17  C32 INH d         -10.603  96.045  79.448  0.00  0.00    -0.081 A 
ATOM     18  H33 INH d          -9.336  97.463  78.464  0.00  0.00     0.083 H 
ATOM     19  C31 INH d         -11.891  95.500  79.526  0.00  0.00    -0.057 A 
ATOM     20  H32 INH d          -9.822  95.689  80.110  0.00  0.00     0.083 H 
ATOM     21  H31 INH d         -12.098  94.719  80.250  0.00  0.00     0.086 H 
ENDBRANCH   8  11
ENDBRANCH   5   7
BRANCH   5  22
ATOM     22  C20 INH d         -17.335  95.741  79.056  0.00  0.00    -0.036 C 
ATOM     23  H19 INH d         -16.779  96.491  78.476  0.00  0.00     0.036 H 
ATOM     24  H20 INH d         -17.861  96.234  79.887  0.00  0.00     0.036 H 
BRANCH  22  25
ATOM     25  C21 INH d         -18.353  95.139  78.165  0.00  0.00    -0.048 C 
ATOM     26  H21 INH d         -19.285  94.949  78.717  0.00  0.00     0.035 H 
ATOM     27  H22 INH d         -17.982  94.196  77.738  0.00  0.00     0.035 H 
BRANCH  25  28
ATOM     28  C22 INH d         -18.575  96.140  77.100  0.00  0.00     0.009 C 
ATOM     29  H23 INH d         -19.454  96.745  77.369  0.00  0.00     0.064 H 
ATOM     30  H24 INH d         -18.770  95.607  76.157  0.00  0.00     0.064 H 
BRANCH  28  31
ATOM     31  N23 INH d         -17.449  97.029  76.901  0.00  0.00    -0.227 N 
ATOM     32  C24 INH d         -17.262  97.710  75.771  0.00  0.00     0.665 C 
ATOM     33  N26 INH d         -18.125  97.564  74.763  0.00  0.00    -0.235 N 
ATOM     34  N25 INH d         -16.215  98.525  75.644  0.00  0.00    -0.235 N 
ATOM     35  H28 INH d         -18.933  96.934  74.864  0.00  0.00     0.174 HD
ATOM     36  H29 INH d         -17.982  98.083  73.884  0.00  0.00     0.174 HD
ATOM     37  H26 INH d         -16.075  99.049  74.768  0.00  0.00     0.174 HD
ATOM     38  H27 INH d         -15.548  98.631  76.420  0.00  0.00     0.174 HD
ATOM     39  H25 INH d         -16.767  97.139  77.664  0.00  0.00     0.177 HD
ENDBRANCH  28  31
ENDBRANCH  25  28
ENDBRANCH  22  25
ENDBRANCH   5  22
ENDBRANCH   3   5
BRANCH   1  40
ATOM     40  C7  INH d         -17.748  92.546  82.377  0.00  0.00     0.179 C 
ATOM     41  H7  INH d         -17.330  91.553  82.600  0.00  0.00     0.099 H 
BRANCH  40  42
ATOM     42  N6  INH d         -17.272  93.524  83.364  0.00  0.00    -0.049 N 
ATOM     43  H5  INH d         -17.086  94.391  82.885  0.00  0.00     0.279 HD
ATOM     44  H6  INH d         -18.001  93.666  84.046  0.00  0.00     0.279 HD
BRANCH  42  45
ATOM     45  C2  INH d         -16.039  93.115  84.081  0.00  0.00     0.182 C 
ATOM     46  H4  INH d         -15.189  93.392  83.440  0.00  0.00     0.101 H 
BRANCH  45  47
ATOM     47  C1  INH d         -16.035  91.581  84.230  0.00  0.00    -0.040 C 
ATOM     48  H1  INH d         -16.236  91.314  85.278  0.00  0.00     0.031 H 
ATOM     49  H2  INH d         -15.052  91.186  83.933  0.00  0.00     0.031 H 
ATOM     50  H3  INH d         -16.814  91.148  83.585  0.00  0.00     0.031 H 
ENDBRANCH  45  47
BRANCH  45  51
ATOM     51  C3  INH d         -15.806  93.800  85.427  0.00  0.00     0.204 C 
ATOM     52  O5  INH d         -15.027  93.310  86.285  0.00  0.00    -0.646 OA
ATOM     53  O4  INH d         -16.412  94.856  85.644  0.00  0.00    -0.646 OA
ENDBRANCH  45  51
ENDBRANCH  42  45
ENDBRANCH  40  42
BRANCH  40  54
ATOM     54  C8  INH d         -19.284  92.480  82.423  0.00  0.00    -0.026 C 
ATOM     55  H8  INH d         -19.585  92.094  83.408  0.00  0.00     0.037 H 
ATOM     56  H9  INH d         -19.625  91.789  81.638  0.00  0.00     0.037 H 
BRANCH  54  57
ATOM     57  C9  INH d         -19.962  93.825  82.207  0.00  0.00    -0.039 C 
ATOM     58  H10 INH d         -19.182  94.599  82.262  0.00  0.00     0.040 H 
ATOM     59  H11 INH d         -20.679  93.968  83.028  0.00  0.00     0.040 H 
BRANCH  57  60
ATOM     60  C10 INH d         -20.704  94.027  80.924  0.00  0.00    -0.058 A 
ATOM     61  C15 INH d         -21.224  95.269  80.589  0.00  0.00    -0.077 A 
ATOM     62  C14 INH d         -21.888  95.455  79.384  0.00  0.00    -0.082 A 
ATOM     63  H16 INH d         -21.111  96.101  81.275  0.00  0.00     0.084 H 
ATOM     64  C13 INH d         -22.033  94.388  78.504  0.00  0.00    -0.083 A 
ATOM     65  H15 INH d         -22.291  96.428  79.129  0.00  0.00     0.083 H 
ATOM     66  C12 INH d         -21.519  93.148  78.831  0.00  0.00    -0.082 A 
ATOM     67  H14 INH d         -22.550  94.529  77.562  0.00  0.00     0.083 H 
ATOM     68  C11 INH d         -20.860  92.971  80.029  0.00  0.00    -0.077 A 
ATOM     69  H13 INH d         -21.634  92.315  78.147  0.00  0.00     0.083 H 
ATOM     70  H12 INH d         -20.457  91.997  80.278  0.00  0.00     0.084 H 
ENDBRANCH  57  60
ENDBRANCH  54  57
ENDBRANCH  40  54
ENDBRANCH   1  40
TORSDOF 15
ENDMDL
MODEL 4
REMARK VINA RESULT:      -7.4      1.730      2.196
REMARK  15 active torsions:
REMARK  status: ('A' for Active; 'I' for Inactive)
REMARK    1  A    between atoms: C1_1  and  C2_2 
REMARK    2  A    between atoms: C2_2  and  N6_6 
REMARK    3  A    between atoms: C2_2  and  C3_3 
REMARK    4  A    between atoms: N6_6  and  C7_7 
REMARK    5  A    between atoms: C7_7  and  C16_16 
REMARK    6  A    between atoms: C7_7  and  C8_8 
REMARK    7  A    between atoms: C8_8  and  C9_9 
REMARK    8  A    between atoms: C9_9  and  C10_10 
REMARK       I    between atoms: C16_16  and  N18_18 
REMARK    9  A    between atoms: N18_18  and  C19_19 
REMARK   10  A    between atoms: C19_19  and  C27_27 
REMARK   11  A    between atoms: C19_19  and  C20_20 
REMARK   12  A    between atoms: C20_20  and  C21_21 
REMARK   13  A    between atoms: C21_21  and  C22_22 
REMARK   14  A    between atoms: C22_22  and  N23_23 
REMARK       I    between atoms: N23_23  and  C24_24 
REMARK       I    between atoms: C24_24  and  N25_25 
REMARK       I    between atoms: C27_27  and  N29_29 
REMARK   15  A    between atoms: N29_29  and  C30_30 
ROOT
ATOM      1  C16 INH d         -17.904  94.535  79.177  0.00  0.00     0.249 C 
ATOM      2  O17 INH d         -18.736  94.514  78.269  0.00  0.00    -0.271 OA
ATOM      3  N18 INH d         -16.877  95.376  79.204  0.00  0.00    -0.346 N 
ATOM      4  H17 INH d         -16.246  95.356  79.981  0.00  0.00     0.163 HD
ENDROOT
BRANCH   3   5
ATOM      5  C19 INH d         -16.651  96.326  78.126  0.00  0.00     0.089 C 
ATOM      6  H18 INH d         -16.856  95.828  77.166  0.00  0.00     0.087 H 
BRANCH   5   7
ATOM      7  C27 INH d         -15.221  96.836  78.136  0.00  0.00     0.245 C 
ATOM      8  N29 INH d         -14.369  96.136  78.887  0.00  0.00    -0.325 N 
ATOM      9  H30 INH d         -14.773  95.352  79.358  0.00  0.00     0.169 HD
ATOM     10  O28 INH d         -14.887  97.763  77.402  0.00  0.00    -0.271 OA
BRANCH   8  11
ATOM     11  C30 INH d         -13.034  96.315  79.119  0.00  0.00     0.034 A 
ATOM     12  C35 INH d         -12.096  95.305  78.969  0.00  0.00    -0.057 A 
ATOM     13  C34 INH d         -10.735  95.553  79.175  0.00  0.00    -0.081 A 
ATOM     14  H35 INH d         -12.421  94.310  78.689  0.00  0.00     0.086 H 
ATOM     15  C33 INH d         -10.310  96.821  79.535  0.00  0.00    -0.083 A 
ATOM     16  H34 INH d         -10.013  94.754  79.054  0.00  0.00     0.083 H 
ATOM     17  C32 INH d         -11.233  97.838  79.691  0.00  0.00    -0.081 A 
ATOM     18  H33 INH d          -9.256  97.016  79.693  0.00  0.00     0.083 H 
ATOM     19  C31 INH d         -12.594  97.583  79.485  0.00  0.00    -0.057 A 
ATOM     20  H32 INH d         -10.904  98.832  79.974  0.00  0.00     0.083 H 
ATOM     21  H31 INH d         -13.314  98.384  79.612  0.00  0.00     0.086 H 
ENDBRANCH   8  11
ENDBRANCH   5   7
BRANCH   5  22
ATOM     22  C20 INH d         -17.552  97.528  78.272  0.00  0.00    -0.036 C 
ATOM     23  H19 INH d         -16.920  98.403  78.481  0.00  0.00     0.036 H 
ATOM     24  H20 INH d         -18.223  97.347  79.124  0.00  0.00     0.036 H 
BRANCH  22  25
ATOM     25  C21 INH d         -18.388  97.841  77.091  0.00  0.00    -0.048 C 
ATOM     26  H21 INH d         -18.206  97.115  76.286  0.00  0.00     0.035 H 
ATOM     27  H22 INH d         -18.172  98.856  76.725  0.00  0.00     0.035 H 
BRANCH  25  28
ATOM     28  C22 INH d         -19.784  97.748  77.569  0.00  0.00     0.009 C 
ATOM     29  H23 INH d         -20.179  96.758  77.298  0.00  0.00     0.064 H 
ATOM     30  H24 INH d         -20.376  98.530  77.071  0.00  0.00     0.064 H 
BRANCH  28  31
ATOM     31  N23 INH d         -19.914  97.916  79.002  0.00  0.00    -0.227 N 
ATOM     32  C24 INH d         -20.631  97.088  79.761  0.00  0.00     0.665 C 
ATOM     33  N26 INH d         -21.278  96.067  79.194  0.00  0.00    -0.235 N 
ATOM     34  N25 INH d         -20.708  97.280  81.077  0.00  0.00    -0.235 N 
ATOM     35  H28 INH d         -21.216  95.920  78.176  0.00  0.00     0.174 HD
ATOM     36  H29 INH d         -21.839  95.427  79.774  0.00  0.00     0.174 HD
ATOM     37  H26 INH d         -21.263  96.637  81.660  0.00  0.00     0.174 HD
ATOM     38  H27 INH d         -20.213  98.072  81.512  0.00  0.00     0.174 HD
ATOM     39  H25 INH d         -19.433  98.708  79.452  0.00  0.00     0.177 HD
ENDBRANCH  28  31
ENDBRANCH  25  28
ENDBRANCH  22  25
ENDBRANCH   5  22
ENDBRANCH   3   5
BRANCH   1  40
ATOM     40  C7  INH d         -18.025  93.575  80.351  0.00  0.00     0.179 C 
ATOM     41  H7  INH d         -18.576  94.057  81.173  0.00  0.00     0.099 H 
BRANCH  40  42
ATOM     42  N6  INH d         -18.750  92.381  79.895  0.00  0.00    -0.049 N 
ATOM     43  H5  INH d         -18.871  92.447  78.897  0.00  0.00     0.279 HD
ATOM     44  H6  INH d         -18.193  91.570  80.114  0.00  0.00     0.279 HD
BRANCH  42  45
ATOM     45  C2  INH d         -20.088  92.206  80.514  0.00  0.00     0.182 C 
ATOM     46  H4  INH d         -20.130  91.177  80.899  0.00  0.00     0.101 H 
BRANCH  45  47
ATOM     47  C1  INH d         -21.165  92.343  79.420  0.00  0.00    -0.040 C 
ATOM     48  H1  INH d         -22.161  92.212  79.868  0.00  0.00     0.031 H 
ATOM     49  H2  INH d         -21.005  91.573  78.650  0.00  0.00     0.031 H 
ATOM     50  H3  INH d         -21.097  93.340  78.960  0.00  0.00     0.031 H 
ENDBRANCH  45  47
BRANCH  45  51
ATOM     51  C3  INH d         -20.387  93.123  81.698  0.00  0.00     0.204 C 
ATOM     52  O5  INH d         -20.899  94.261  81.533  0.00  0.00    -0.646 OA
ATOM     53  O4  INH d         -20.106  92.708  82.830  0.00  0.00    -0.646 OA
ENDBRANCH  45  51
ENDBRANCH  42  45
ENDBRANCH  40  42
BRANCH  40  54
ATOM     54  C8  INH d         -16.626  93.166  80.840  0.00  0.00    -0.026 C 
ATOM     55  H8  INH d         -16.100  94.070  81.182  0.00  0.00     0.037 H 
ATOM     56  H9  INH d         -16.079  92.722  79.995  0.00  0.00     0.037 H 
BRANCH  54  57
ATOM     57  C9  INH d         -16.644  92.160  81.982  0.00  0.00    -0.039 C 
ATOM     58  H10 INH d         -16.000  91.318  81.689  0.00  0.00     0.040 H 
ATOM     59  H11 INH d         -17.680  91.809  82.094  0.00  0.00     0.040 H 
BRANCH  57  60
ATOM     60  C10 INH d         -16.183  92.631  83.324  0.00  0.00    -0.058 A 
ATOM     61  C15 INH d         -16.737  93.758  83.914  0.00  0.00    -0.077 A 
ATOM     62  C14 INH d         -16.323  94.173  85.172  0.00  0.00    -0.082 A 
ATOM     63  H16 INH d         -17.500  94.320  83.386  0.00  0.00     0.084 H 
ATOM     64  C13 INH d         -15.344  93.453  85.849  0.00  0.00    -0.083 A 
ATOM     65  H15 INH d         -16.761  95.055  85.626  0.00  0.00     0.083 H 
ATOM     66  C12 INH d         -14.787  92.330  85.269  0.00  0.00    -0.082 A 
ATOM     67  H14 INH d         -15.019  93.773  86.832  0.00  0.00     0.083 H 
ATOM     68  C11 INH d         -15.205  91.924  84.020  0.00  0.00    -0.077 A 
ATOM     69  H13 INH d         -14.024  91.769  85.795  0.00  0.00     0.083 H 
ATOM     70  H12 INH d         -14.765  91.040  83.571  0.00  0.00     0.084 H 
ENDBRANCH  57  60
ENDBRANCH  54  57
ENDBRANCH  40  54
ENDBRANCH   1  40
TORSDOF 15
ENDMDL
MODEL 5
REMARK VINA RESULT:      -7.3      1.746      2.755
REMARK  15 active torsions:
REMARK  status: ('A' for Active; 'I' for Inactive)
REMARK    1  A    between atoms: C1_1  and  C2_2 
REMARK    2  A    between atoms: C2_2  and  N6_6 
REMARK    3  A    between atoms: C2_2  and  C3_3 
REMARK    4  A    between atoms: N6_6  and  C7_7 
REMARK    5  A    between atoms: C7_7  and  C16_16 
REMARK    6  A    between atoms: C7_7  and  C8_8 
REMARK    7  A    between atoms: C8_8  and  C9_9 
REMARK    8  A    between atoms: C9_9  and  C10_10 
REMARK       I    between atoms: C16_16  and  N18_18 
REMARK    9  A    between atoms: N18_18  and  C19_19 
REMARK   10  A    between atoms: C19_19  and  C27_27 
REMARK   11  A    between atoms: C19_19  and  C20_20 
REMARK   12  A    between atoms: C20_20  and  C21_21 
REMARK   13  A    between atoms: C21_21  and  C22_22 
REMARK   14  A    between atoms: C22_22  and  N23_23 
REMARK       I    between atoms: N23_23  and  C24_24 
REMARK       I    between atoms: C24_24  and  N25_25 
REMARK       I    between atoms: C27_27  and  N29_29 
REMARK   15  A    between atoms: N29_29  and  C30_30 
ROOT
ATOM      1  C16 INH d         -17.791  93.158  80.681  0.00  0.00     0.249 C 
ATOM      2  O17 INH d         -17.583  92.457  79.690  0.00  0.00    -0.271 OA
ATOM      3  N18 INH d         -17.508  94.455  80.728  0.00  0.00    -0.346 N 
ATOM      4  H17 INH d         -17.720  94.974  81.557  0.00  0.00     0.163 HD
ENDROOT
BRANCH   3   5
ATOM      5  C19 INH d         -16.897  95.135  79.596  0.00  0.00     0.089 C 
ATOM      6  H18 INH d         -16.907  94.458  78.728  0.00  0.00     0.087 H 
BRANCH   5   7
ATOM      7  C27 INH d         -15.466  95.537  79.907  0.00  0.00     0.245 C 
ATOM      8  N29 INH d         -14.713  95.839  78.847  0.00  0.00    -0.325 N 
ATOM      9  H30 INH d         -15.181  95.767  77.967  0.00  0.00     0.169 HD
ATOM     10  O28 INH d         -15.098  95.672  81.072  0.00  0.00    -0.271 OA
BRANCH   8  11
ATOM     11  C30 INH d         -13.406  96.232  78.769  0.00  0.00     0.034 A 
ATOM     12  C35 INH d         -12.948  97.446  79.258  0.00  0.00    -0.057 A 
ATOM     13  C34 INH d         -11.592  97.781  79.193  0.00  0.00    -0.081 A 
ATOM     14  H35 INH d         -13.651  98.146  79.696  0.00  0.00     0.086 H 
ATOM     15  C33 INH d         -10.687  96.895  78.633  0.00  0.00    -0.083 A 
ATOM     16  H34 INH d         -11.249  98.734  79.580  0.00  0.00     0.083 H 
ATOM     17  C32 INH d         -11.128  95.682  78.138  0.00  0.00    -0.081 A 
ATOM     18  H33 INH d          -9.636  97.151  78.584  0.00  0.00     0.083 H 
ATOM     19  C31 INH d         -12.488  95.353  78.205  0.00  0.00    -0.057 A 
ATOM     20  H32 INH d         -10.422  94.986  77.699  0.00  0.00     0.083 H 
ATOM     21  H31 INH d         -12.828  94.401  77.812  0.00  0.00     0.086 H 
ENDBRANCH   8  11
ENDBRANCH   5   7
BRANCH   5  22
ATOM     22  C20 INH d         -17.649  96.398  79.259  0.00  0.00    -0.036 C 
ATOM     23  H19 INH d         -16.912  97.194  79.076  0.00  0.00     0.036 H 
ATOM     24  H20 INH d         -18.271  96.665  80.126  0.00  0.00     0.036 H 
BRANCH  22  25
ATOM     25  C21 INH d         -18.532  96.314  78.074  0.00  0.00    -0.048 C 
ATOM     26  H21 INH d         -19.579  96.180  78.381  0.00  0.00     0.035 H 
ATOM     27  H22 INH d         -18.230  95.477  77.426  0.00  0.00     0.035 H 
BRANCH  25  28
ATOM     28  C22 INH d         -18.359  97.603  77.370  0.00  0.00     0.009 C 
ATOM     29  H23 INH d         -18.804  98.398  77.986  0.00  0.00     0.064 H 
ATOM     30  H24 INH d         -18.886  97.546  76.406  0.00  0.00     0.064 H 
BRANCH  28  31
ATOM     31  N23 INH d         -16.973  97.939  77.117  0.00  0.00    -0.227 N 
ATOM     32  C24 INH d         -16.533  98.318  75.918  0.00  0.00     0.665 C 
ATOM     33  N26 INH d         -17.384  98.376  74.890  0.00  0.00    -0.235 N 
ATOM     34  N25 INH d         -15.249  98.629  75.740  0.00  0.00    -0.235 N 
ATOM     35  H28 INH d         -18.376  98.135  75.030  0.00  0.00     0.174 HD
ATOM     36  H29 INH d         -17.049  98.662  73.959  0.00  0.00     0.174 HD
ATOM     37  H26 INH d         -14.914  98.921  74.811  0.00  0.00     0.174 HD
ATOM     38  H27 INH d         -14.593  98.578  76.532  0.00  0.00     0.174 HD
ATOM     39  H25 INH d         -16.302  97.884  77.895  0.00  0.00     0.177 HD
ENDBRANCH  28  31
ENDBRANCH  25  28
ENDBRANCH  22  25
ENDBRANCH   5  22
ENDBRANCH   3   5
BRANCH   1  40
ATOM     40  C7  INH d         -18.410  92.554  81.932  0.00  0.00     0.179 C 
ATOM     41  H7  INH d         -18.742  93.355  82.609  0.00  0.00     0.099 H 
BRANCH  40  42
ATOM     42  N6  INH d         -19.560  91.734  81.526  0.00  0.00    -0.049 N 
ATOM     43  H5  INH d         -19.483  91.551  80.538  0.00  0.00     0.279 HD
ATOM     44  H6  INH d         -19.523  90.864  82.033  0.00  0.00     0.279 HD
BRANCH  42  45
ATOM     45  C2  INH d         -20.879  92.365  81.781  0.00  0.00     0.182 C 
ATOM     46  H4  INH d         -20.730  93.101  82.585  0.00  0.00     0.101 H 
BRANCH  45  47
ATOM     47  C1  INH d         -21.852  91.290  82.303  0.00  0.00    -0.040 C 
ATOM     48  H1  INH d         -22.763  91.774  82.685  0.00  0.00     0.031 H 
ATOM     49  H2  INH d         -21.372  90.722  83.114  0.00  0.00     0.031 H 
ATOM     50  H3  INH d         -22.116  90.605  81.484  0.00  0.00     0.031 H 
ENDBRANCH  45  47
BRANCH  45  51
ATOM     51  C3  INH d         -21.480  93.127  80.602  0.00  0.00     0.204 C 
ATOM     52  O5  INH d         -21.089  94.284  80.301  0.00  0.00    -0.646 OA
ATOM     53  O4  INH d         -22.370  92.564  79.951  0.00  0.00    -0.646 OA
ENDBRANCH  45  51
ENDBRANCH  42  45
ENDBRANCH  40  42
BRANCH  40  54
ATOM     54  C8  INH d         -17.379  91.667  82.650  0.00  0.00    -0.026 C 
ATOM     55  H8  INH d         -17.257  90.739  82.072  0.00  0.00     0.037 H 
ATOM     56  H9  INH d         -17.765  91.427  83.652  0.00  0.00     0.037 H 
BRANCH  54  57
ATOM     57  C9  INH d         -16.012  92.319  82.805  0.00  0.00    -0.039 C 
ATOM     58  H10 INH d         -15.981  93.184  82.125  0.00  0.00     0.040 H 
ATOM     59  H11 INH d         -15.258  91.581  82.495  0.00  0.00     0.040 H 
BRANCH  57  60
ATOM     60  C10 INH d         -15.630  92.806  84.166  0.00  0.00    -0.058 A 
ATOM     61  C15 INH d         -16.210  93.945  84.705  0.00  0.00    -0.077 A 
ATOM     62  C14 INH d         -15.869  94.376  85.981  0.00  0.00    -0.082 A 
ATOM     63  H16 INH d         -16.935  94.504  84.125  0.00  0.00     0.084 H 
ATOM     64  C13 INH d         -14.939  93.659  86.726  0.00  0.00    -0.083 A 
ATOM     65  H15 INH d         -16.327  95.267  86.395  0.00  0.00     0.083 H 
ATOM     66  C12 INH d         -14.357  92.524  86.196  0.00  0.00    -0.082 A 
ATOM     67  H14 INH d         -14.671  93.991  87.722  0.00  0.00     0.083 H 
ATOM     68  C11 INH d         -14.701  92.102  84.929  0.00  0.00    -0.077 A 
ATOM     69  H13 INH d         -13.630  91.966  86.775  0.00  0.00     0.083 H 
ATOM     70  H12 INH d         -14.242  91.209  84.521  0.00  0.00     0.084 H 
ENDBRANCH  57  60
ENDBRANCH  54  57
ENDBRANCH  40  54
ENDBRANCH   1  40
TORSDOF 15
ENDMDL
MODEL 6
REMARK VINA RESULT:      -7.3      1.953      7.483
REMARK  15 active torsions:
REMARK  status: ('A' for Active; 'I' for Inactive)
REMARK    1  A    between atoms: C1_1  and  C2_2 
REMARK    2  A    between atoms: C2_2  and  N6_6 
REMARK    3  A    between atoms: C2_2  and  C3_3 
REMARK    4  A    between atoms: N6_6  and  C7_7 
REMARK    5  A    between atoms: C7_7  and  C16_16 
REMARK    6  A    between atoms: C7_7  and  C8_8 
REMARK    7  A    between atoms: C8_8  and  C9_9 
REMARK    8  A    between atoms: C9_9  and  C10_10 
REMARK       I    between atoms: C16_16  and  N18_18 
REMARK    9  A    between atoms: N18_18  and  C19_19 
REMARK   10  A    between atoms: C19_19  and  C27_27 
REMARK   11  A    between atoms: C19_19  and  C20_20 
REMARK   12  A    between atoms: C20_20  and  C21_21 
REMARK   13  A    between atoms: C21_21  and  C22_22 
REMARK   14  A    between atoms: C22_22  and  N23_23 
REMARK       I    between atoms: N23_23  and  C24_24 
REMARK       I    between atoms: C24_24  and  N25_25 
REMARK       I    between atoms: C27_27  and  N29_29 
REMARK   15  A    between atoms: N29_29  and  C30_30 
ROOT
ATOM      1  C16 INH d         -17.195  94.637  79.779  0.00  0.00     0.249 C 
ATOM      2  O17 INH d         -16.819  93.496  79.506  0.00  0.00    -0.271 OA
ATOM      3  N18 INH d         -18.249  94.894  80.544  0.00  0.00    -0.346 N 
ATOM      4  H17 INH d         -18.491  95.844  80.745  0.00  0.00     0.163 HD
ENDROOT
BRANCH   3   5
ATOM      5  C19 INH d         -19.059  93.819  81.097  0.00  0.00     0.089 C 
ATOM      6  H18 INH d         -20.052  94.219  81.352  0.00  0.00     0.087 H 
BRANCH   5   7
ATOM      7  C27 INH d         -18.415  93.232  82.341  0.00  0.00     0.245 C 
ATOM      8  N29 INH d         -17.289  93.829  82.738  0.00  0.00    -0.325 N 
ATOM      9  H30 INH d         -17.000  94.598  82.168  0.00  0.00     0.169 HD
ATOM     10  O28 INH d         -18.981  92.344  82.973  0.00  0.00    -0.271 OA
BRANCH   8  11
ATOM     11  C30 INH d         -16.467  93.561  83.796  0.00  0.00     0.034 A 
ATOM     12  C35 INH d         -16.462  94.311  84.962  0.00  0.00    -0.057 A 
ATOM     13  C34 INH d         -15.633  93.967  86.034  0.00  0.00    -0.081 A 
ATOM     14  H35 INH d         -17.111  95.176  85.044  0.00  0.00     0.086 H 
ATOM     15  C33 INH d         -14.801  92.865  85.938  0.00  0.00    -0.083 A 
ATOM     16  H34 INH d         -15.640  94.563  86.940  0.00  0.00     0.083 H 
ATOM     17  C32 INH d         -14.790  92.108  84.781  0.00  0.00    -0.081 A 
ATOM     18  H33 INH d         -14.158  92.595  86.768  0.00  0.00     0.083 H 
ATOM     19  C31 INH d         -15.623  92.459  83.711  0.00  0.00    -0.057 A 
ATOM     20  H32 INH d         -14.140  91.245  84.702  0.00  0.00     0.083 H 
ATOM     21  H31 INH d         -15.609  91.863  82.805  0.00  0.00     0.086 H 
ENDBRANCH   8  11
ENDBRANCH   5   7
BRANCH   5  22
ATOM     22  C20 INH d         -19.209  92.695  80.102  0.00  0.00    -0.036 C 
ATOM     23  H19 INH d         -19.023  91.748  80.630  0.00  0.00     0.036 H 
ATOM     24  H20 INH d         -18.452  92.833  79.317  0.00  0.00     0.036 H 
BRANCH  22  25
ATOM     25  C21 INH d         -20.533  92.599  79.448  0.00  0.00    -0.048 C 
ATOM     26  H21 INH d         -20.684  91.594  79.026  0.00  0.00     0.035 H 
ATOM     27  H22 INH d         -20.623  93.349  78.648  0.00  0.00     0.035 H 
BRANCH  25  28
ATOM     28  C22 INH d         -21.515  92.865  80.520  0.00  0.00     0.009 C 
ATOM     29  H23 INH d         -22.062  93.787  80.272  0.00  0.00     0.064 H 
ATOM     30  H24 INH d         -20.970  93.004  81.465  0.00  0.00     0.064 H 
BRANCH  28  31
ATOM     31  N23 INH d         -22.477  91.796  80.698  0.00  0.00    -0.227 N 
ATOM     32  C24 INH d         -22.426  90.946  81.723  0.00  0.00     0.665 C 
ATOM     33  N26 INH d         -21.444  91.055  82.622  0.00  0.00    -0.235 N 
ATOM     34  N25 INH d         -23.342  89.987  81.847  0.00  0.00    -0.235 N 
ATOM     35  H28 INH d         -20.736  91.798  82.524  0.00  0.00     0.174 HD
ATOM     36  H29 INH d         -21.395  90.397  83.413  0.00  0.00     0.174 HD
ATOM     37  H26 INH d         -23.299  89.333  82.641  0.00  0.00     0.174 HD
ATOM     38  H27 INH d         -24.095  89.901  81.150  0.00  0.00     0.174 HD
ATOM     39  H25 INH d         -23.231  91.689  80.004  0.00  0.00     0.177 HD
ENDBRANCH  28  31
ENDBRANCH  25  28
ENDBRANCH  22  25
ENDBRANCH   5  22
ENDBRANCH   3   5
BRANCH   1  40
ATOM     40  C7  INH d         -16.437  95.843  79.243  0.00  0.00     0.179 C 
ATOM     41  H7  INH d         -16.460  96.658  79.982  0.00  0.00     0.099 H 
BRANCH  40  42
ATOM     42  N6  INH d         -15.048  95.437  78.989  0.00  0.00    -0.049 N 
ATOM     43  H5  INH d         -14.998  94.431  79.043  0.00  0.00     0.279 HD
ATOM     44  H6  INH d         -14.795  95.736  78.060  0.00  0.00     0.279 HD
BRANCH  42  45
ATOM     45  C2  INH d         -14.063  96.003  79.944  0.00  0.00     0.182 C 
ATOM     46  H4  INH d         -14.181  95.454  80.889  0.00  0.00     0.101 H 
BRANCH  45  47
ATOM     47  C1  INH d         -14.420  97.479  80.210  0.00  0.00    -0.040 C 
ATOM     48  H1  INH d         -13.586  97.969  80.734  0.00  0.00     0.031 H 
ATOM     49  H2  INH d         -15.325  97.530  80.834  0.00  0.00     0.031 H 
ATOM     50  H3  INH d         -14.605  97.991  79.254  0.00  0.00     0.031 H 
ENDBRANCH  45  47
BRANCH  45  51
ATOM     51  C3  INH d         -12.598  95.856  79.538  0.00  0.00     0.204 C 
ATOM     52  O5  INH d         -12.256  95.131  78.568  0.00  0.00    -0.646 OA
ATOM     53  O4  INH d         -11.755  96.476  80.199  0.00  0.00    -0.646 OA
ENDBRANCH  45  51
ENDBRANCH  42  45
ENDBRANCH  40  42
BRANCH  40  54
ATOM     54  C8  INH d         -17.077  96.321  77.929  0.00  0.00    -0.026 C 
ATOM     55  H8  INH d         -17.330  95.438  77.324  0.00  0.00     0.037 H 
ATOM     56  H9  INH d         -16.343  96.938  77.390  0.00  0.00     0.037 H 
BRANCH  54  57
ATOM     57  C9  INH d         -18.342  97.144  78.128  0.00  0.00    -0.039 C 
ATOM     58  H10 INH d         -18.147  98.150  77.726  0.00  0.00     0.040 H 
ATOM     59  H11 INH d         -18.525  97.211  79.210  0.00  0.00     0.040 H 
BRANCH  57  60
ATOM     60  C10 INH d         -19.599  96.643  77.492  0.00  0.00    -0.058 A 
ATOM     61  C15 INH d         -20.625  96.112  78.261  0.00  0.00    -0.077 A 
ATOM     62  C14 INH d         -21.800  95.674  77.665  0.00  0.00    -0.082 A 
ATOM     63  H16 INH d         -20.507  96.038  79.336  0.00  0.00     0.084 H 
ATOM     64  C13 INH d         -21.952  95.768  76.286  0.00  0.00    -0.083 A 
ATOM     65  H15 INH d         -22.597  95.261  78.273  0.00  0.00     0.083 H 
ATOM     66  C12 INH d         -20.935  96.295  75.513  0.00  0.00    -0.082 A 
ATOM     67  H14 INH d         -22.869  95.428  75.817  0.00  0.00     0.083 H 
ATOM     68  C11 INH d         -19.772  96.729  76.112  0.00  0.00    -0.077 A 
ATOM     69  H13 INH d         -21.052  96.367  74.438  0.00  0.00     0.083 H 
ATOM     70  H12 INH d         -18.979  97.143  75.500  0.00  0.00     0.084 H 
ENDBRANCH  57  60
ENDBRANCH  54  57
ENDBRANCH  40  54
ENDBRANCH   1  40
TORSDOF 15
ENDMDL
MODEL 7
REMARK VINA RESULT:      -7.2      1.994      6.066
REMARK  15 active torsions:
REMARK  status: ('A' for Active; 'I' for Inactive)
REMARK    1  A    between atoms: C1_1  and  C2_2 
REMARK    2  A    between atoms: C2_2  and  N6_6 
REMARK    3  A    between atoms: C2_2  and  C3_3 
REMARK    4  A    between atoms: N6_6  and  C7_7 
REMARK    5  A    between atoms: C7_7  and  C16_16 
REMARK    6  A    between atoms: C7_7  and  C8_8 
REMARK    7  A    between atoms: C8_8  and  C9_9 
REMARK    8  A    between atoms: C9_9  and  C10_10 
REMARK       I    between atoms: C16_16  and  N18_18 
REMARK    9  A    between atoms: N18_18  and  C19_19 
REMARK   10  A    between atoms: C19_19  and  C27_27 
REMARK   11  A    between atoms: C19_19  and  C20_20 
REMARK   12  A    between atoms: C20_20  and  C21_21 
REMARK   13  A    between atoms: C21_21  and  C22_22 
REMARK   14  A    between atoms: C22_22  and  N23_23 
REMARK       I    between atoms: N23_23  and  C24_24 
REMARK       I    between atoms: C24_24  and  N25_25 
REMARK       I    between atoms: C27_27  and  N29_29 
REMARK   15  A    between atoms: N29_29  and  C30_30 
ROOT
ATOM      1  C16 INH d         -18.062  95.584  79.772  0.00  0.00     0.249 C 
ATOM      2  O17 INH d         -18.676  96.488  80.341  0.00  0.00    -0.271 OA
ATOM      3  N18 INH d         -18.300  94.295  79.987  0.00  0.00    -0.346 N 
ATOM      4  H17 INH d         -17.779  93.609  79.478  0.00  0.00     0.163 HD
ENDROOT
BRANCH   3   5
ATOM      5  C19 INH d         -19.303  93.863  80.948  0.00  0.00     0.089 C 
ATOM      6  H18 INH d         -19.889  94.739  81.267  0.00  0.00     0.087 H 
BRANCH   5   7
ATOM      7  C27 INH d         -18.657  93.218  82.161  0.00  0.00     0.245 C 
ATOM      8  N29 INH d         -17.472  93.721  82.514  0.00  0.00    -0.325 N 
ATOM      9  H30 INH d         -17.146  94.468  81.936  0.00  0.00     0.169 HD
ATOM     10  O28 INH d         -19.266  92.372  82.813  0.00  0.00    -0.271 OA
BRANCH   8  11
ATOM     11  C30 INH d         -16.631  93.380  83.536  0.00  0.00     0.034 A 
ATOM     12  C35 INH d         -15.754  92.309  83.472  0.00  0.00    -0.057 A 
ATOM     13  C34 INH d         -14.882  92.030  84.529  0.00  0.00    -0.081 A 
ATOM     14  H35 INH d         -15.743  91.678  82.590  0.00  0.00     0.086 H 
ATOM     15  C33 INH d         -14.889  92.830  85.660  0.00  0.00    -0.083 A 
ATOM     16  H34 INH d         -14.200  91.189  84.464  0.00  0.00     0.083 H 
ATOM     17  C32 INH d         -15.760  93.899  85.741  0.00  0.00    -0.081 A 
ATOM     18  H33 INH d         -14.213  92.617  86.480  0.00  0.00     0.083 H 
ATOM     19  C31 INH d         -16.632  94.172  84.679  0.00  0.00    -0.057 A 
ATOM     20  H32 INH d         -15.770  94.526  86.626  0.00  0.00     0.083 H 
ATOM     21  H31 INH d         -17.315  95.011  84.750  0.00  0.00     0.086 H 
ENDBRANCH   8  11
ENDBRANCH   5   7
BRANCH   5  22
ATOM     22  C20 INH d         -20.224  92.836  80.337  0.00  0.00    -0.036 C 
ATOM     23  H19 INH d         -20.632  92.219  81.151  0.00  0.00     0.036 H 
ATOM     24  H20 INH d         -19.629  92.206  79.661  0.00  0.00     0.036 H 
BRANCH  22  25
ATOM     25  C21 INH d         -21.363  93.384  79.566  0.00  0.00    -0.048 C 
ATOM     26  H21 INH d         -22.045  92.577  79.260  0.00  0.00     0.035 H 
ATOM     27  H22 INH d         -21.003  93.918  78.674  0.00  0.00     0.035 H 
BRANCH  25  28
ATOM     28  C22 INH d         -22.043  94.316  80.490  0.00  0.00     0.009 C 
ATOM     29  H23 INH d         -21.378  94.508  81.344  0.00  0.00     0.064 H 
ATOM     30  H24 INH d         -22.970  93.840  80.845  0.00  0.00     0.064 H 
BRANCH  28  31
ATOM     31  N23 INH d         -22.384  95.585  79.880  0.00  0.00    -0.227 N 
ATOM     32  C24 INH d         -22.024  96.755  80.407  0.00  0.00     0.665 C 
ATOM     33  N26 INH d         -21.340  96.780  81.553  0.00  0.00    -0.235 N 
ATOM     34  N25 INH d         -22.352  97.895  79.800  0.00  0.00    -0.235 N 
ATOM     35  H28 INH d         -21.087  95.897  82.021  0.00  0.00     0.174 HD
ATOM     36  H29 INH d         -21.064  97.681  81.970  0.00  0.00     0.174 HD
ATOM     37  H26 INH d         -22.072  98.796  80.211  0.00  0.00     0.174 HD
ATOM     38  H27 INH d         -22.885  97.874  78.919  0.00  0.00     0.174 HD
ATOM     39  H25 INH d         -22.925  95.583  79.004  0.00  0.00     0.177 HD
ENDBRANCH  28  31
ENDBRANCH  25  28
ENDBRANCH  22  25
ENDBRANCH   5  22
ENDBRANCH   3   5
BRANCH   1  40
ATOM     40  C7  INH d         -16.976  95.914  78.759  0.00  0.00     0.179 C 
ATOM     41  H7  INH d         -16.685  95.003  78.214  0.00  0.00     0.099 H 
BRANCH  40  42
ATOM     42  N6  INH d         -17.511  96.910  77.821  0.00  0.00    -0.049 N 
ATOM     43  H5  INH d         -17.871  97.685  78.355  0.00  0.00     0.279 HD
ATOM     44  H6  INH d         -16.755  97.228  77.233  0.00  0.00     0.279 HD
BRANCH  42  45
ATOM     45  C2  INH d         -18.597  96.402  76.946  0.00  0.00     0.182 C 
ATOM     46  H4  INH d         -18.624  95.310  77.072  0.00  0.00     0.101 H 
BRANCH  45  47
ATOM     47  C1  INH d         -18.232  96.697  75.478  0.00  0.00    -0.040 C 
ATOM     48  H1  INH d         -18.910  96.140  74.813  0.00  0.00     0.031 H 
ATOM     49  H2  INH d         -17.195  96.386  75.288  0.00  0.00     0.031 H 
ATOM     50  H3  INH d         -18.333  97.776  75.284  0.00  0.00     0.031 H 
ENDBRANCH  45  47
BRANCH  45  51
ATOM     51  C3  INH d         -19.998  96.911  77.279  0.00  0.00     0.204 C 
ATOM     52  O5  INH d         -20.209  98.123  77.545  0.00  0.00    -0.646 OA
ATOM     53  O4  INH d         -20.922  96.088  77.278  0.00  0.00    -0.646 OA
ENDBRANCH  45  51
ENDBRANCH  42  45
ENDBRANCH  40  42
BRANCH  40  54
ATOM     54  C8  INH d         -15.749  96.497  79.479  0.00  0.00    -0.026 C 
ATOM     55  H8  INH d         -16.074  96.897  80.450  0.00  0.00     0.037 H 
ATOM     56  H9  INH d         -15.341  97.312  78.864  0.00  0.00     0.037 H 
BRANCH  54  57
ATOM     57  C9  INH d         -14.642  95.481  79.724  0.00  0.00    -0.039 C 
ATOM     58  H10 INH d         -15.000  94.509  79.352  0.00  0.00     0.040 H 
ATOM     59  H11 INH d         -14.484  95.422  80.811  0.00  0.00     0.040 H 
BRANCH  57  60
ATOM     60  C10 INH d         -13.313  95.741  79.091  0.00  0.00    -0.058 A 
ATOM     61  C15 INH d         -13.223  96.230  77.795  0.00  0.00    -0.077 A 
ATOM     62  C14 INH d         -11.986  96.495  77.224  0.00  0.00    -0.082 A 
ATOM     63  H16 INH d         -14.128  96.405  77.225  0.00  0.00     0.084 H 
ATOM     64  C13 INH d         -10.825  96.269  77.956  0.00  0.00    -0.083 A 
ATOM     65  H15 INH d         -11.925  96.877  76.211  0.00  0.00     0.083 H 
ATOM     66  C12 INH d         -10.905  95.782  79.246  0.00  0.00    -0.082 A 
ATOM     67  H14 INH d          -9.857  96.476  77.514  0.00  0.00     0.083 H 
ATOM     68  C11 INH d         -12.138  95.523  79.807  0.00  0.00    -0.077 A 
ATOM     69  H13 INH d         -10.002  95.604  79.817  0.00  0.00     0.083 H 
ATOM     70  H12 INH d         -12.194  95.143  80.821  0.00  0.00     0.084 H 
ENDBRANCH  57  60
ENDBRANCH  54  57
ENDBRANCH  40  54
ENDBRANCH   1  40
TORSDOF 15
ENDMDL
MODEL 8
REMARK VINA RESULT:      -7.1      2.433      7.310
REMARK  15 active torsions:
REMARK  status: ('A' for Active; 'I' for Inactive)
REMARK    1  A    between atoms: C1_1  and  C2_2 
REMARK    2  A    between atoms: C2_2  and  N6_6 
REMARK    3  A    between atoms: C2_2  and  C3_3 
REMARK    4  A    between atoms: N6_6  and  C7_7 
REMARK    5  A    between atoms: C7_7  and  C16_16 
REMARK    6  A    between atoms: C7_7  and  C8_8 
REMARK    7  A    between atoms: C8_8  and  C9_9 
REMARK    8  A    between atoms: C9_9  and  C10_10 
REMARK       I    between atoms: C16_16  and  N18_18 
REMARK    9  A    between atoms: N18_18  and  C19_19 
REMARK   10  A    between atoms: C19_19  and  C27_27 
REMARK   11  A    between atoms: C19_19  and  C20_20 
REMARK   12  A    between atoms: C20_20  and  C21_21 
REMARK   13  A    between atoms: C21_21  and  C22_22 
REMARK   14  A    between atoms: C22_22  and  N23_23 
REMARK       I    between atoms: N23_23  and  C24_24 
REMARK       I    between atoms: C24_24  and  N25_25 
REMARK       I    between atoms: C27_27  and  N29_29 
REMARK   15  A    between atoms: N29_29  and  C30_30 
ROOT
ATOM      1  C16 INH d         -20.573  92.900  80.792  0.00  0.00     0.249 C 
ATOM      2  O17 INH d         -20.880  91.801  81.257  0.00  0.00    -0.271 OA
ATOM      3  N18 INH d         -19.323  93.344  80.735  0.00  0.00    -0.346 N 
ATOM      4  H17 INH d         -19.138  94.238  80.327  0.00  0.00     0.163 HD
ENDROOT
BRANCH   3   5
ATOM      5  C19 INH d         -18.218  92.552  81.254  0.00  0.00     0.089 C 
ATOM      6  H18 INH d         -18.491  91.487  81.204  0.00  0.00     0.087 H 
BRANCH   5   7
ATOM      7  C27 INH d         -17.903  92.928  82.691  0.00  0.00     0.245 C 
ATOM      8  N29 INH d         -16.647  92.704  83.080  0.00  0.00    -0.325 N 
ATOM      9  H30 INH d         -16.054  92.313  82.376  0.00  0.00     0.169 HD
ATOM     10  O28 INH d         -18.744  93.501  83.381  0.00  0.00    -0.271 OA
BRANCH   8  11
ATOM     11  C30 INH d         -16.037  92.921  84.284  0.00  0.00     0.034 A 
ATOM     12  C35 INH d         -15.076  92.072  84.812  0.00  0.00    -0.057 A 
ATOM     13  C34 INH d         -14.450  92.364  86.028  0.00  0.00    -0.081 A 
ATOM     14  H35 INH d         -14.806  91.170  84.275  0.00  0.00     0.086 H 
ATOM     15  C33 INH d         -14.789  93.514  86.721  0.00  0.00    -0.083 A 
ATOM     16  H34 INH d         -13.700  91.691  86.427  0.00  0.00     0.083 H 
ATOM     17  C32 INH d         -15.747  94.369  86.210  0.00  0.00    -0.081 A 
ATOM     18  H33 INH d         -14.304  93.743  87.662  0.00  0.00     0.083 H 
ATOM     19  C31 INH d         -16.372  94.070  84.993  0.00  0.00    -0.057 A 
ATOM     20  H32 INH d         -16.016  95.269  86.751  0.00  0.00     0.083 H 
ATOM     21  H31 INH d         -17.125  94.743  84.598  0.00  0.00     0.086 H 
ENDBRANCH   8  11
ENDBRANCH   5   7
BRANCH   5  22
ATOM     22  C20 INH d         -16.964  92.789  80.449  0.00  0.00    -0.036 C 
ATOM     23  H19 INH d         -16.829  91.934  79.770  0.00  0.00     0.036 H 
ATOM     24  H20 INH d         -16.116  92.840  81.148  0.00  0.00     0.036 H 
BRANCH  22  25
ATOM     25  C21 INH d         -16.957  94.024  79.633  0.00  0.00    -0.048 C 
ATOM     26  H21 INH d         -17.881  94.599  79.795  0.00  0.00     0.035 H 
ATOM     27  H22 INH d         -16.860  93.780  78.565  0.00  0.00     0.035 H 
BRANCH  25  28
ATOM     28  C22 INH d         -15.782  94.790  80.099  0.00  0.00     0.009 C 
ATOM     29  H23 INH d         -15.247  94.186  80.848  0.00  0.00     0.064 H 
ATOM     30  H24 INH d         -16.135  95.722  80.564  0.00  0.00     0.064 H 
BRANCH  28  31
ATOM     31  N23 INH d         -14.856  95.127  79.037  0.00  0.00    -0.227 N 
ATOM     32  C24 INH d         -13.890  96.033  79.186  0.00  0.00     0.665 C 
ATOM     33  N26 INH d         -13.767  96.681  80.348  0.00  0.00    -0.235 N 
ATOM     34  N25 INH d         -13.057  96.298  78.181  0.00  0.00    -0.235 N 
ATOM     35  H28 INH d         -14.413  96.474  81.124  0.00  0.00     0.174 HD
ATOM     36  H29 INH d         -13.027  97.387  80.468  0.00  0.00     0.174 HD
ATOM     37  H26 INH d         -12.312  96.999  78.301  0.00  0.00     0.174 HD
ATOM     38  H27 INH d         -13.158  95.802  77.284  0.00  0.00     0.174 HD
ATOM     39  H25 INH d         -14.949  94.647  78.131  0.00  0.00     0.177 HD
ENDBRANCH  28  31
ENDBRANCH  25  28
ENDBRANCH  22  25
ENDBRANCH   5  22
ENDBRANCH   3   5
BRANCH   1  40
ATOM     40  C7  INH d         -21.647  93.824  80.236  0.00  0.00     0.179 C 
ATOM     41  H7  INH d         -21.936  94.562  80.999  0.00  0.00     0.099 H 
BRANCH  40  42
ATOM     42  N6  INH d         -21.097  94.510  79.059  0.00  0.00    -0.049 N 
ATOM     43  H5  INH d         -20.116  94.289  78.994  0.00  0.00     0.279 HD
ATOM     44  H6  INH d         -21.574  94.165  78.240  0.00  0.00     0.279 HD
BRANCH  42  45
ATOM     45  C2  INH d         -21.240  95.987  79.092  0.00  0.00     0.182 C 
ATOM     46  H4  INH d         -22.294  96.201  79.319  0.00  0.00     0.101 H 
BRANCH  45  47
ATOM     47  C1  INH d         -20.938  96.548  77.689  0.00  0.00    -0.040 C 
ATOM     48  H1  INH d         -19.965  96.167  77.343  0.00  0.00     0.031 H 
ATOM     49  H2  INH d         -20.906  97.647  77.731  0.00  0.00     0.031 H 
ATOM     50  H3  INH d         -21.725  96.231  76.989  0.00  0.00     0.031 H 
ENDBRANCH  45  47
BRANCH  45  51
ATOM     51  C3  INH d         -20.414  96.701  80.160  0.00  0.00     0.204 C 
ATOM     52  O5  INH d         -19.201  96.422  80.346  0.00  0.00    -0.646 OA
ATOM     53  O4  INH d         -20.981  97.567  80.839  0.00  0.00    -0.646 OA
ENDBRANCH  45  51
ENDBRANCH  42  45
ENDBRANCH  40  42
BRANCH  40  54
ATOM     54  C8  INH d         -22.879  93.003  79.820  0.00  0.00    -0.026 C 
ATOM     55  H8  INH d         -23.670  93.161  80.568  0.00  0.00     0.037 H 
ATOM     56  H9  INH d         -22.597  91.940  79.801  0.00  0.00     0.037 H 
BRANCH  54  57
ATOM     57  C9  INH d         -23.431  93.378  78.452  0.00  0.00    -0.039 C 
ATOM     58  H10 INH d         -22.926  94.303  78.135  0.00  0.00     0.040 H 
ATOM     59  H11 INH d         -24.507  93.569  78.572  0.00  0.00     0.040 H 
BRANCH  57  60
ATOM     60  C10 INH d         -23.274  92.382  77.347  0.00  0.00    -0.058 A 
ATOM     61  C15 INH d         -23.037  91.043  77.623  0.00  0.00    -0.077 A 
ATOM     62  C14 INH d         -22.920  90.119  76.593  0.00  0.00    -0.082 A 
ATOM     63  H16 INH d         -22.943  90.715  78.652  0.00  0.00     0.084 H 
ATOM     64  C13 INH d         -23.040  90.539  75.273  0.00  0.00    -0.083 A 
ATOM     65  H15 INH d         -22.735  89.075  76.817  0.00  0.00     0.083 H 
ATOM     66  C12 INH d         -23.275  91.870  74.990  0.00  0.00    -0.082 A 
ATOM     67  H14 INH d         -22.950  89.821  74.466  0.00  0.00     0.083 H 
ATOM     68  C11 INH d         -23.392  92.781  76.018  0.00  0.00    -0.077 A 
ATOM     69  H13 INH d         -23.368  92.199  73.961  0.00  0.00     0.083 H 
ATOM     70  H12 INH d         -23.579  93.824  75.789  0.00  0.00     0.084 H 
ENDBRANCH  57  60
ENDBRANCH  54  57
ENDBRANCH  40  54
ENDBRANCH   1  40
TORSDOF 15
ENDMDL
MODEL 9
REMARK VINA RESULT:      -7.1      2.196      6.328
REMARK  15 active torsions:
REMARK  status: ('A' for Active; 'I' for Inactive)
REMARK    1  A    between atoms: C1_1  and  C2_2 
REMARK    2  A    between atoms: C2_2  and  N6_6 
REMARK    3  A    between atoms: C2_2  and  C3_3 
REMARK    4  A    between atoms: N6_6  and  C7_7 
REMARK    5  A    between atoms: C7_7  and  C16_16 
REMARK    6  A    between atoms: C7_7  and  C8_8 
REMARK    7  A    between atoms: C8_8  and  C9_9 
REMARK    8  A    between atoms: C9_9  and  C10_10 
REMARK       I    between atoms: C16_16  and  N18_18 
REMARK    9  A    between atoms: N18_18  and  C19_19 
REMARK   10  A    between atoms: C19_19  and  C27_27 
REMARK   11  A    between atoms: C19_19  and  C20_20 
REMARK   12  A    between atoms: C20_20  and  C21_21 
REMARK   13  A    between atoms: C21_21  and  C22_22 
REMARK   14  A    between atoms: C22_22  and  N23_23 
REMARK       I    between atoms: N23_23  and  C24_24 
REMARK       I    between atoms: C24_24  and  N25_25 
REMARK       I    between atoms: C27_27  and  N29_29 
REMARK   15  A    between atoms: N29_29  and  C30_30 
ROOT
ATOM      1  C16 INH d         -18.757  93.638  80.916  0.00  0.00     0.249 C 
ATOM      2  O17 INH d         -18.868  92.513  80.425  0.00  0.00    -0.271 OA
ATOM      3  N18 INH d         -19.654  94.601  80.742  0.00  0.00    -0.346 N 
ATOM      4  H17 INH d         -19.515  95.487  81.185  0.00  0.00     0.163 HD
ENDROOT
BRANCH   3   5
ATOM      5  C19 INH d         -20.837  94.390  79.921  0.00  0.00     0.089 C 
ATOM      6  H18 INH d         -20.922  93.317  79.692  0.00  0.00     0.087 H 
BRANCH   5   7
ATOM      7  C27 INH d         -20.751  95.178  78.626  0.00  0.00     0.245 C 
ATOM      8  N29 INH d         -19.658  95.932  78.486  0.00  0.00    -0.325 N 
ATOM      9  H30 INH d         -19.020  95.890  79.254  0.00  0.00     0.169 HD
ATOM     10  O28 INH d         -21.592  95.019  77.745  0.00  0.00    -0.271 OA
BRANCH   8  11
ATOM     11  C30 INH d         -19.270  96.754  77.465  0.00  0.00     0.034 A 
ATOM     12  C35 INH d         -19.217  98.134  77.580  0.00  0.00    -0.057 A 
ATOM     13  C34 INH d         -18.770  98.927  76.518  0.00  0.00    -0.081 A 
ATOM     14  H35 INH d         -19.527  98.606  78.505  0.00  0.00     0.086 H 
ATOM     15  C33 INH d         -18.373  98.332  75.332  0.00  0.00    -0.083 A 
ATOM     16  H34 INH d         -18.733 100.005  76.623  0.00  0.00     0.083 H 
ATOM     17  C32 INH d         -18.423  96.958  75.200  0.00  0.00    -0.081 A 
ATOM     18  H33 INH d         -18.024  98.944  74.508  0.00  0.00     0.083 H 
ATOM     19  C31 INH d         -18.873  96.170  76.266  0.00  0.00    -0.057 A 
ATOM     20  H32 INH d         -18.114  96.489  74.272  0.00  0.00     0.083 H 
ATOM     21  H31 INH d         -18.913  95.092  76.156  0.00  0.00     0.086 H 
ENDBRANCH   8  11
ENDBRANCH   5   7
BRANCH   5  22
ATOM     22  C20 INH d         -22.079  94.853  80.640  0.00  0.00    -0.036 C 
ATOM     23  H19 INH d         -22.417  95.787  80.168  0.00  0.00     0.036 H 
ATOM     24  H20 INH d         -21.812  95.047  81.689  0.00  0.00     0.036 H 
BRANCH  22  25
ATOM     25  C21 INH d         -23.212  93.900  80.627  0.00  0.00    -0.048 C 
ATOM     26  H21 INH d         -23.940  94.177  79.849  0.00  0.00     0.035 H 
ATOM     27  H22 INH d         -23.712  93.882  81.606  0.00  0.00     0.035 H 
BRANCH  25  28
ATOM     28  C22 INH d         -22.608  92.585  80.327  0.00  0.00     0.009 C 
ATOM     29  H23 INH d         -21.526  92.648  80.513  0.00  0.00     0.064 H 
ATOM     30  H24 INH d         -22.786  92.353  79.266  0.00  0.00     0.064 H 
BRANCH  28  31
ATOM     31  N23 INH d         -23.149  91.507  81.130  0.00  0.00    -0.227 N 
ATOM     32  C24 INH d         -22.383  90.715  81.879  0.00  0.00     0.665 C 
ATOM     33  N26 INH d         -21.060  90.893  81.888  0.00  0.00    -0.235 N 
ATOM     34  N25 INH d         -22.932  89.744  82.609  0.00  0.00    -0.235 N 
ATOM     35  H28 INH d         -20.637  91.644  81.323  0.00  0.00     0.174 HD
ATOM     36  H29 INH d         -20.461  90.280  82.460  0.00  0.00     0.174 HD
ATOM     37  H26 INH d         -22.336  89.135  83.187  0.00  0.00     0.174 HD
ATOM     38  H27 INH d         -23.952  89.605  82.596  0.00  0.00     0.174 HD
ATOM     39  H25 INH d         -24.166  91.347  81.121  0.00  0.00     0.177 HD
ENDBRANCH  28  31
ENDBRANCH  25  28
ENDBRANCH  22  25
ENDBRANCH   5  22
ENDBRANCH   3   5
BRANCH   1  40
ATOM     40  C7  INH d         -17.552  93.981  81.780  0.00  0.00     0.179 C 
ATOM     41  H7  INH d         -17.645  95.010  82.158  0.00  0.00     0.099 H 
BRANCH  40  42
ATOM     42  N6  INH d         -17.508  93.037  82.903  0.00  0.00    -0.049 N 
ATOM     43  H5  INH d         -18.143  93.362  83.615  0.00  0.00     0.279 HD
ATOM     44  H6  INH d         -17.810  92.134  82.570  0.00  0.00     0.279 HD
BRANCH  42  45
ATOM     45  C2  INH d         -16.165  92.880  83.516  0.00  0.00     0.182 C 
ATOM     46  H4  INH d         -15.444  93.348  82.830  0.00  0.00     0.101 H 
BRANCH  45  47
ATOM     47  C1  INH d         -15.828  91.378  83.599  0.00  0.00    -0.040 C 
ATOM     48  H1  INH d         -15.518  91.017  82.607  0.00  0.00     0.031 H 
ATOM     49  H2  INH d         -16.716  90.821  83.931  0.00  0.00     0.031 H 
ATOM     50  H3  INH d         -15.009  91.225  84.318  0.00  0.00     0.031 H 
ENDBRANCH  45  47
BRANCH  45  51
ATOM     51  C3  INH d         -15.979  93.562  84.870  0.00  0.00     0.204 C 
ATOM     52  O5  INH d         -16.580  94.629  85.154  0.00  0.00    -0.646 OA
ATOM     53  O4  INH d         -15.212  93.026  85.680  0.00  0.00    -0.646 OA
ENDBRANCH  45  51
ENDBRANCH  42  45
ENDBRANCH  40  42
BRANCH  40  54
ATOM     54  C8  INH d         -16.262  93.852  80.953  0.00  0.00    -0.026 C 
ATOM     55  H8  INH d         -16.063  92.784  80.784  0.00  0.00     0.037 H 
ATOM     56  H9  INH d         -15.435  94.293  81.529  0.00  0.00     0.037 H 
BRANCH  54  57
ATOM     57  C9  INH d         -16.329  94.547  79.600  0.00  0.00    -0.039 C 
ATOM     58  H10 INH d         -17.392  94.700  79.361  0.00  0.00     0.040 H 
ATOM     59  H11 INH d         -15.879  93.871  78.859  0.00  0.00     0.040 H 
BRANCH  57  60
ATOM     60  C10 INH d         -15.646  95.872  79.469  0.00  0.00    -0.058 A 
ATOM     61  C15 INH d         -14.708  96.286  80.404  0.00  0.00    -0.077 A 
ATOM     62  C14 INH d         -14.059  97.504  80.262  0.00  0.00    -0.082 A 
ATOM     63  H16 INH d         -14.481  95.651  81.254  0.00  0.00     0.084 H 
ATOM     64  C13 INH d         -14.350  98.318  79.172  0.00  0.00    -0.083 A 
ATOM     65  H15 INH d         -13.327  97.820  80.996  0.00  0.00     0.083 H 
ATOM     66  C12 INH d         -15.283  97.914  78.237  0.00  0.00    -0.082 A 
ATOM     67  H14 INH d         -13.844  99.270  79.057  0.00  0.00     0.083 H 
ATOM     68  C11 INH d         -15.923  96.702  78.386  0.00  0.00    -0.077 A 
ATOM     69  H13 INH d         -15.512  98.548  77.389  0.00  0.00     0.083 H 
ATOM     70  H12 INH d         -16.652  96.389  77.647  0.00  0.00     0.084 H 
ENDBRANCH  57  60
ENDBRANCH  54  57
ENDBRANCH  40  54
ENDBRANCH   1  40
TORSDOF 15
ENDMDL
MODEL 10
REMARK VINA RESULT:      -7.0      1.973      5.785
REMARK  15 active torsions:
REMARK  status: ('A' for Active; 'I' for Inactive)
REMARK    1  A    between atoms: C1_1  and  C2_2 
REMARK    2  A    between atoms: C2_2  and  N6_6 
REMARK    3  A    between atoms: C2_2  and  C3_3 
REMARK    4  A    between atoms: N6_6  and  C7_7 
REMARK    5  A    between atoms: C7_7  and  C16_16 
REMARK    6  A    between atoms: C7_7  and  C8_8 
REMARK    7  A    between atoms: C8_8  and  C9_9 
REMARK    8  A    between atoms: C9_9  and  C10_10 
REMARK       I    between atoms: C16_16  and  N18_18 
REMARK    9  A    between atoms: N18_18  and  C19_19 
REMARK   10  A    between atoms: C19_19  and  C27_27 
REMARK   11  A    between atoms: C19_19  and  C20_20 
REMARK   12  A    between atoms: C20_20  and  C21_21 
REMARK   13  A    between atoms: C21_21  and  C22_22 
REMARK   14  A    between atoms: C22_22  and  N23_23 
REMARK       I    between atoms: N23_23  and  C24_24 
REMARK       I    between atoms: C24_24  and  N25_25 
REMARK       I    between atoms: C27_27  and  N29_29 
REMARK   15  A    between atoms: N29_29  and  C30_30 
ROOT
ATOM      1  C16 INH d         -17.566  93.508  80.900  0.00  0.00     0.249 C 
ATOM      2  O17 INH d         -17.079  93.074  79.855  0.00  0.00    -0.271 OA
ATOM      3  N18 INH d         -17.723  94.803  81.148  0.00  0.00    -0.346 N 
ATOM      4  H17 INH d         -18.144  95.091  82.008  0.00  0.00     0.163 HD
ENDROOT
BRANCH   3   5
ATOM      5  C19 INH d         -17.294  95.812  80.190  0.00  0.00     0.089 C 
ATOM      6  H18 INH d         -17.299  96.795  80.685  0.00  0.00     0.087 H 
BRANCH   5   7
ATOM      7  C27 INH d         -18.216  95.848  78.983  0.00  0.00     0.245 C 
ATOM      8  N29 INH d         -19.439  96.329  79.212  0.00  0.00    -0.325 N 
ATOM      9  H30 INH d         -19.608  96.613  80.155  0.00  0.00     0.169 HD
ATOM     10  O28 INH d         -17.791  95.551  77.869  0.00  0.00    -0.271 OA
BRANCH   8  11
ATOM     11  C30 INH d         -20.500  96.498  78.366  0.00  0.00     0.034 A 
ATOM     12  C35 INH d         -20.902  97.737  77.892  0.00  0.00    -0.057 A 
ATOM     13  C34 INH d         -21.966  97.851  76.992  0.00  0.00    -0.081 A 
ATOM     14  H35 INH d         -20.384  98.630  78.222  0.00  0.00     0.086 H 
ATOM     15  C33 INH d         -22.634  96.715  76.565  0.00  0.00    -0.083 A 
ATOM     16  H34 INH d         -22.269  98.827  76.629  0.00  0.00     0.083 H 
ATOM     17  C32 INH d         -22.249  95.473  77.032  0.00  0.00    -0.081 A 
ATOM     18  H33 INH d         -23.459  96.801  75.867  0.00  0.00     0.083 H 
ATOM     19  C31 INH d         -21.182  95.366  77.933  0.00  0.00    -0.057 A 
ATOM     20  H32 INH d         -22.770  94.582  76.700  0.00  0.00     0.083 H 
ATOM     21  H31 INH d         -20.886  94.389  78.298  0.00  0.00     0.086 H 
ENDBRANCH   8  11
ENDBRANCH   5   7
BRANCH   5  22
ATOM     22  C20 INH d         -15.906  95.511  79.680  0.00  0.00    -0.036 C 
ATOM     23  H19 INH d         -15.981  95.284  78.606  0.00  0.00     0.036 H 
ATOM     24  H20 INH d         -15.532  94.627  80.216  0.00  0.00     0.036 H 
BRANCH  22  25
ATOM     25  C21 INH d         -14.918  96.600  79.848  0.00  0.00    -0.048 C 
ATOM     26  H21 INH d         -15.134  97.179  80.758  0.00  0.00     0.035 H 
ATOM     27  H22 INH d         -14.930  97.270  78.976  0.00  0.00     0.035 H 
BRANCH  25  28
ATOM     28  C22 INH d         -13.610  95.921  79.964  0.00  0.00     0.009 C 
ATOM     29  H23 INH d         -13.362  95.475  78.989  0.00  0.00     0.064 H 
ATOM     30  H24 INH d         -13.695  95.127  80.721  0.00  0.00     0.064 H 
BRANCH  28  31
ATOM     31  N23 INH d         -12.533  96.810  80.349  0.00  0.00    -0.227 N 
ATOM     32  C24 INH d         -11.268  96.607  79.981  0.00  0.00     0.665 C 
ATOM     33  N26 INH d         -10.959  95.538  79.244  0.00  0.00    -0.235 N 
ATOM     34  N25 INH d         -10.316  97.462  80.352  0.00  0.00    -0.235 N 
ATOM     35  H28 INH d         -11.697  94.878  78.958  0.00  0.00     0.174 HD
ATOM     36  H29 INH d          -9.982  95.372  78.962  0.00  0.00     0.174 HD
ATOM     37  H26 INH d          -9.340  97.302  80.065  0.00  0.00     0.174 HD
ATOM     38  H27 INH d         -10.555  98.283  80.926  0.00  0.00     0.174 HD
ATOM     39  H25 INH d         -12.754  97.630  80.930  0.00  0.00     0.177 HD
ENDBRANCH  28  31
ENDBRANCH  25  28
ENDBRANCH  22  25
ENDBRANCH   5  22
ENDBRANCH   3   5
BRANCH   1  40
ATOM     40  C7  INH d         -18.035  92.549  81.984  0.00  0.00     0.179 C 
ATOM     41  H7  INH d         -18.270  93.109  82.902  0.00  0.00     0.099 H 
BRANCH  40  42
ATOM     42  N6  INH d         -19.237  91.858  81.498  0.00  0.00    -0.049 N 
ATOM     43  H5  INH d         -19.272  91.954  80.495  0.00  0.00     0.279 HD
ATOM     44  H6  INH d         -19.160  90.882  81.739  0.00  0.00     0.279 HD
BRANCH  42  45
ATOM     45  C2  INH d         -20.508  92.377  82.060  0.00  0.00     0.182 C 
ATOM     46  H4  INH d         -20.276  92.778  83.057  0.00  0.00     0.101 H 
BRANCH  45  47
ATOM     47  C1  INH d         -21.489  91.202  82.242  0.00  0.00    -0.040 C 
ATOM     48  H1  INH d         -21.807  91.150  83.294  0.00  0.00     0.031 H 
ATOM     49  H2  INH d         -20.991  90.262  81.963  0.00  0.00     0.031 H 
ATOM     50  H3  INH d         -22.369  91.355  81.599  0.00  0.00     0.031 H 
ENDBRANCH  45  47
BRANCH  45  51
ATOM     51  C3  INH d         -21.155  93.517  81.275  0.00  0.00     0.204 C 
ATOM     52  O5  INH d         -20.802  94.712  81.445  0.00  0.00    -0.646 OA
ATOM     53  O4  INH d         -22.041  93.222  80.462  0.00  0.00    -0.646 OA
ENDBRANCH  45  51
ENDBRANCH  42  45
ENDBRANCH  40  42
BRANCH  40  54
ATOM     54  C8  INH d         -16.935  91.515  82.279  0.00  0.00    -0.026 C 
ATOM     55  H8  INH d         -16.762  90.923  81.369  0.00  0.00     0.037 H 
ATOM     56  H9  INH d         -17.288  90.855  83.085  0.00  0.00     0.037 H 
BRANCH  54  57
ATOM     57  C9  INH d         -15.613  92.134  82.708  0.00  0.00    -0.039 C 
ATOM     58  H10 INH d         -15.379  92.938  81.995  0.00  0.00     0.040 H 
ATOM     59  H11 INH d         -14.845  91.349  82.641  0.00  0.00     0.040 H 
BRANCH  57  60
ATOM     60  C10 INH d         -15.537  92.718  84.083  0.00  0.00    -0.058 A 
ATOM     61  C15 INH d         -14.707  92.164  85.048  0.00  0.00    -0.077 A 
ATOM     62  C14 INH d         -14.622  92.728  86.313  0.00  0.00    -0.082 A 
ATOM     63  H16 INH d         -14.122  91.283  84.810  0.00  0.00     0.084 H 
ATOM     64  C13 INH d         -15.373  93.858  86.618  0.00  0.00    -0.083 A 
ATOM     65  H15 INH d         -13.971  92.290  87.061  0.00  0.00     0.083 H 
ATOM     66  C12 INH d         -16.202  94.415  85.663  0.00  0.00    -0.082 A 
ATOM     67  H14 INH d         -15.308  94.302  87.605  0.00  0.00     0.083 H 
ATOM     68  C11 INH d         -16.280  93.850  84.408  0.00  0.00    -0.077 A 
ATOM     69  H13 INH d         -16.789  95.294  85.900  0.00  0.00     0.083 H 
ATOM     70  H12 INH d         -16.931  94.293  83.663  0.00  0.00     0.084 H 
ENDBRANCH  57  60
ENDBRANCH  54  57
ENDBRANCH  40  54
ENDBRANCH   1  40
TORSDOF 15
ENDMDL
