MODEL 1
REMARK VINA RESULT:      -6.6      0.000      0.000
REMARK  2 active torsions:
REMARK  status: ('A' for Active; 'I' for Inactive)
REMARK    1  A    between atoms: C0_1  and  C1_2 
REMARK    2  A    between atoms: C0_1  and  N1_3 
ROOT
ATOM      1  C1  ESI d           8.546   0.715  25.352  0.00  0.00     0.049 A 
ATOM      2  S2  ESI d           9.248   1.273  23.835  0.00  0.00    -0.086 SA
ATOM      3  C3  ESI d           9.091   2.952  24.215  0.00  0.00     0.017 A 
ATOM      4  C4  ESI d           8.513   3.045  25.472  0.00  0.00    -0.001 A 
ATOM      5  C5  ESI d           8.222   1.849  26.069  0.00  0.00    -0.050 A 
ATOM      6  C6  ESI d           9.431   4.066  23.482  0.00  0.00    -0.066 A 
ATOM      7  C7  ESI d           9.191   5.315  24.032  0.00  0.00    -0.080 A 
ATOM      8  C8  ESI d           8.622   5.425  25.288  0.00  0.00    -0.066 A 
ATOM      9  C9  ESI d           8.280   4.306  26.025  0.00  0.00     0.018 A 
ATOM     10  I9  ESI d           7.507   4.672  27.867  0.00  0.00    -0.044 I 
ATOM     11  H5  ESI d           7.762   1.794  27.054  0.00  0.00     0.087 H 
ATOM     12  H6  ESI d           9.877   3.968  22.499  0.00  0.00     0.085 H 
ATOM     13  H7  ESI d           9.449   6.209  23.475  0.00  0.00     0.083 H 
ATOM     14  H8  ESI d           8.441   6.409  25.704  0.00  0.00     0.085 H 
ENDROOT
BRANCH   1  15
ATOM     15  C0  ESI d           8.413  -0.620  25.673  0.00  0.00     0.109 C 
ATOM     16  N2  ESI d           8.075  -0.873  26.904  0.00  0.00    -0.385 N 
ATOM     17  H3  ESI d           7.924  -0.098  27.566  0.00  0.00     0.157 HD
ATOM     18  H4  ESI d           7.959  -1.847  27.216  0.00  0.00     0.157 HD
BRANCH  15  19
ATOM     19  N1  ESI d           8.628  -1.516  24.755  0.00  0.00    -0.385 N 
ATOM     20  H1  ESI d           8.776  -1.227  23.778  0.00  0.00     0.157 HD
ATOM     21  H2  ESI d           8.650  -2.514  25.006  0.00  0.00     0.157 HD
ENDBRANCH  15  19
ENDBRANCH   1  15
TORSDOF 2
ENDMDL
MODEL 2
REMARK VINA RESULT:      -4.8      2.116      2.901
REMARK  2 active torsions:
REMARK  status: ('A' for Active; 'I' for Inactive)
REMARK    1  A    between atoms: C0_1  and  C1_2 
REMARK    2  A    between atoms: C0_1  and  N1_3 
ROOT
ATOM      1  C1  ESI d           8.783   1.802  24.860  0.00  0.00     0.049 A 
ATOM      2  S2  ESI d           8.359   1.901  26.567  0.00  0.00    -0.086 SA
ATOM      3  C3  ESI d           8.097   3.610  26.549  0.00  0.00     0.017 A 
ATOM      4  C4  ESI d           8.338   4.058  25.258  0.00  0.00    -0.001 A 
ATOM      5  C5  ESI d           8.706   3.089  24.366  0.00  0.00    -0.050 A 
ATOM      6  C6  ESI d           7.729   4.464  27.563  0.00  0.00    -0.066 A 
ATOM      7  C7  ESI d           7.589   5.812  27.271  0.00  0.00    -0.080 A 
ATOM      8  C8  ESI d           7.818   6.273  25.987  0.00  0.00    -0.066 A 
ATOM      9  C9  ESI d           8.187   5.415  24.967  0.00  0.00     0.018 A 
ATOM     10  I9  ESI d           8.425   6.273  23.143  0.00  0.00    -0.044 I 
ATOM     11  H5  ESI d           8.926   3.319  23.325  0.00  0.00     0.087 H 
ATOM     12  H6  ESI d           7.551   4.092  28.566  0.00  0.00     0.085 H 
ATOM     13  H7  ESI d           7.301   6.506  28.052  0.00  0.00     0.083 H 
ATOM     14  H8  ESI d           7.704   7.330  25.775  0.00  0.00     0.085 H 
ENDROOT
BRANCH   1  15
ATOM     15  C0  ESI d           9.092   0.615  24.229  0.00  0.00     0.109 C 
ATOM     16  N2  ESI d          10.175   0.624  23.508  0.00  0.00    -0.385 N 
ATOM     17  H3  ESI d          10.741   1.482  23.440  0.00  0.00     0.157 HD
ATOM     18  H4  ESI d          10.468  -0.227  23.007  0.00  0.00     0.157 HD
BRANCH  15  19
ATOM     19  N1  ESI d           8.305  -0.409  24.387  0.00  0.00    -0.385 N 
ATOM     20  H1  ESI d           8.063  -0.732  25.335  0.00  0.00     0.157 HD
ATOM     21  H2  ESI d           7.925  -0.897  23.564  0.00  0.00     0.157 HD
ENDBRANCH  15  19
ENDBRANCH   1  15
TORSDOF 2
ENDMDL
MODEL 3
REMARK VINA RESULT:      -4.3      3.317      4.424
REMARK  2 active torsions:
REMARK  status: ('A' for Active; 'I' for Inactive)
REMARK    1  A    between atoms: C0_1  and  C1_2 
REMARK    2  A    between atoms: C0_1  and  N1_3 
ROOT
ATOM      1  C1  ESI d           8.210   4.055  26.064  0.00  0.00     0.049 A 
ATOM      2  S2  ESI d           8.995   4.577  24.575  0.00  0.00    -0.086 SA
ATOM      3  C3  ESI d           9.202   2.976  23.956  0.00  0.00     0.017 A 
ATOM      4  C4  ESI d           8.675   2.094  24.888  0.00  0.00    -0.001 A 
ATOM      5  C5  ESI d           8.152   2.677  26.010  0.00  0.00    -0.050 A 
ATOM      6  C6  ESI d           9.773   2.543  22.782  0.00  0.00    -0.066 A 
ATOM      7  C7  ESI d           9.811   1.181  22.530  0.00  0.00    -0.080 A 
ATOM      8  C8  ESI d           9.283   0.289  23.446  0.00  0.00    -0.066 A 
ATOM      9  C9  ESI d           8.708   0.723  24.626  0.00  0.00     0.018 A 
ATOM     10  I9  ESI d           7.942  -0.733  25.816  0.00  0.00    -0.044 I 
ATOM     11  H5  ESI d           7.715   2.088  26.814  0.00  0.00     0.087 H 
ATOM     12  H6  ESI d          10.183   3.251  22.070  0.00  0.00     0.085 H 
ATOM     13  H7  ESI d          10.256   0.813  21.612  0.00  0.00     0.083 H 
ATOM     14  H8  ESI d           9.320  -0.774  23.234  0.00  0.00     0.085 H 
ENDROOT
BRANCH   1  15
ATOM     15  C0  ESI d           7.756   4.937  27.023  0.00  0.00     0.109 C 
ATOM     16  N2  ESI d           7.193   4.396  28.064  0.00  0.00    -0.385 N 
ATOM     17  H3  ESI d           7.112   3.372  28.133  0.00  0.00     0.157 HD
ATOM     18  H4  ESI d           6.829   4.993  28.821  0.00  0.00     0.157 HD
BRANCH  15  19
ATOM     19  N1  ESI d           7.911   6.214  26.834  0.00  0.00    -0.385 N 
ATOM     20  H1  ESI d           7.115   6.790  26.525  0.00  0.00     0.157 HD
ATOM     21  H2  ESI d           8.831   6.650  26.992  0.00  0.00     0.157 HD
ENDBRANCH  15  19
ENDBRANCH   1  15
TORSDOF 2
ENDMDL
MODEL 4
REMARK VINA RESULT:      -3.8      1.301      1.731
REMARK  2 active torsions:
REMARK  status: ('A' for Active; 'I' for Inactive)
REMARK    1  A    between atoms: C0_1  and  C1_2 
REMARK    2  A    between atoms: C0_1  and  N1_3 
ROOT
ATOM      1  C1  ESI d           8.864   0.140  23.845  0.00  0.00     0.049 A 
ATOM      2  S2  ESI d           9.743   0.962  22.557  0.00  0.00    -0.086 SA
ATOM      3  C3  ESI d           9.695   2.512  23.321  0.00  0.00     0.017 A 
ATOM      4  C4  ESI d           9.017   2.368  24.522  0.00  0.00    -0.001 A 
ATOM      5  C5  ESI d           8.575   1.101  24.792  0.00  0.00    -0.050 A 
ATOM      6  C6  ESI d          10.193   3.725  22.903  0.00  0.00    -0.066 A 
ATOM      7  C7  ESI d          10.011   4.829  23.721  0.00  0.00    -0.080 A 
ATOM      8  C8  ESI d           9.344   4.700  24.926  0.00  0.00    -0.066 A 
ATOM      9  C9  ESI d           8.844   3.481  25.347  0.00  0.00     0.018 A 
ATOM     10  I9  ESI d           7.944   3.484  27.167  0.00  0.00    -0.044 I 
ATOM     11  H5  ESI d           8.026   0.866  25.702  0.00  0.00     0.087 H 
ATOM     12  H6  ESI d          10.715   3.815  21.957  0.00  0.00     0.085 H 
ATOM     13  H7  ESI d          10.392   5.796  23.415  0.00  0.00     0.083 H 
ATOM     14  H8  ESI d           9.210   5.573  25.555  0.00  0.00     0.085 H 
ENDROOT
BRANCH   1  15
ATOM     15  C0  ESI d           8.590  -1.212  23.824  0.00  0.00     0.109 C 
ATOM     16  N2  ESI d           8.083  -1.668  22.716  0.00  0.00    -0.385 N 
ATOM     17  H3  ESI d           7.913  -1.029  21.926  0.00  0.00     0.157 HD
ATOM     18  H4  ESI d           7.852  -2.668  22.628  0.00  0.00     0.157 HD
BRANCH  15  19
ATOM     19  N1  ESI d           8.846  -1.926  24.881  0.00  0.00    -0.385 N 
ATOM     20  H1  ESI d           9.732  -2.446  24.949  0.00  0.00     0.157 HD
ATOM     21  H2  ESI d           8.163  -1.970  25.650  0.00  0.00     0.157 HD
ENDBRANCH  15  19
ENDBRANCH   1  15
TORSDOF 2
ENDMDL
