MODEL 1
REMARK VINA RESULT:     -11.1      0.000      0.000
REMARK  9 active torsions:
REMARK  status: ('A' for Active; 'I' for Inactive)
REMARK    1  A    between atoms: C9_2  and  O37_1 
REMARK    2  A    between atoms: C7_6  and  C6_7 
REMARK    3  A    between atoms: N3_14  and  C25_28 
REMARK    4  A    between atoms: N2_17  and  C21_26 
REMARK    5  A    between atoms: C21_26  and  C26_36 
REMARK    6  A    between atoms: C23_30  and  N4_31 
REMARK    7  A    between atoms: N4_31  and  C28_32 
REMARK    8  A    between atoms: C22_33  and  O6_34 
REMARK    9  A    between atoms: O6_34  and  C27_35 
ROOT
ATOM      1  C21 UCN d           5.697   4.269  13.589  0.00  0.00     0.168 C 
ATOM      2  O4  UCN d           6.106   3.535  14.728  0.00  0.00    -0.333 OA
ATOM      3  C25 UCN d           5.791   3.823  16.095  0.00  0.00     0.115 C 
ATOM      4  C24 UCN d           4.262   4.206  16.213  0.00  0.00     0.005 C 
ATOM      5  C23 UCN d           3.527   4.162  14.843  0.00  0.00     0.134 C 
ATOM      6  C22 UCN d           4.292   5.015  13.761  0.00  0.00     0.113 C 
ATOM      7  H12 UCN d           6.008   2.943  16.718  0.00  0.00     0.118 H 
ATOM      8  H13 UCN d           4.185   5.224  16.622  0.00  0.00     0.042 H 
ATOM      9  H14 UCN d           3.774   3.498  16.899  0.00  0.00     0.042 H 
ATOM     10  H15 UCN d           3.484   3.122  14.487  0.00  0.00     0.088 H 
ATOM     11  H21 UCN d           3.745   5.073  12.809  0.00  0.00     0.094 H 
ENDROOT
BRANCH   5  12
ATOM     12  N4  UCN d           2.055   4.672  15.115  0.00  0.00    -0.072 N 
ATOM     13  H16 UCN d           1.540   4.672  14.249  0.00  0.00     0.277 HD
ATOM     14  H17 UCN d           2.092   5.609  15.483  0.00  0.00     0.277 HD
BRANCH  12  15
ATOM     15  C28 UCN d           1.355   3.784  16.102  0.00  0.00     0.065 C 
ATOM     16  H18 UCN d           0.290   4.055  16.148  0.00  0.00     0.067 H 
ATOM     17  H19 UCN d           1.809   3.912  17.096  0.00  0.00     0.067 H 
ATOM     18  H20 UCN d           1.454   2.735  15.786  0.00  0.00     0.067 H 
ENDBRANCH  12  15
ENDBRANCH   5  12
BRANCH   6  19
ATOM     19  O6  UCN d           4.482   6.336  14.339  0.00  0.00    -0.384 OA
BRANCH  19  20
ATOM     20  C27 UCN d           5.097   7.240  13.434  0.00  0.00     0.005 C 
ATOM     21  H22 UCN d           4.725   8.258  13.624  0.00  0.00     0.066 H 
ATOM     22  H23 UCN d           4.855   6.947  12.402  0.00  0.00     0.066 H 
ATOM     23  H24 UCN d           6.187   7.216  13.576  0.00  0.00     0.066 H 
ENDBRANCH  19  20
ENDBRANCH   6  19
BRANCH   3  24
ATOM     24  N3  UCN d           6.587   4.983  16.561  0.00  0.00    -0.316 N 
ATOM     25  C20 UCN d           7.877   5.217  16.177  0.00  0.00     0.048 A 
ATOM     26  C5  UCN d           8.236   6.570  16.557  0.00  0.00     0.004 A 
ATOM     27  C1  UCN d           8.804   4.343  15.506  0.00  0.00    -0.056 A 
ATOM     28  C6  UCN d           7.102   7.128  17.193  0.00  0.00     0.022 A 
ATOM     29  C4  UCN d           9.540   7.011  16.242  0.00  0.00    -0.070 A 
ATOM     30  C19 UCN d           6.044   6.139  17.211  0.00  0.00     0.077 A 
ATOM     31  C18 UCN d           4.806   6.384  17.785  0.00  0.00     0.077 A 
ATOM     32  N2  UCN d           3.621   5.571  17.953  0.00  0.00    -0.308 N 
ATOM     33  C11 UCN d           4.491   7.674  18.405  0.00  0.00     0.017 A 
ATOM     34  C17 UCN d           2.602   6.311  18.632  0.00  0.00     0.049 A 
ATOM     35  C12 UCN d           3.159   7.623  18.908  0.00  0.00     0.004 A 
ATOM     36  C16 UCN d           1.297   6.018  19.049  0.00  0.00    -0.056 A 
ATOM     37  C13 UCN d           2.359   8.567  19.589  0.00  0.00    -0.070 A 
ATOM     38  C14 UCN d           1.052   8.281  20.002  0.00  0.00    -0.082 A 
ATOM     39  H8  UCN d           2.772   9.547  19.799  0.00  0.00     0.084 H 
ATOM     40  C15 UCN d           0.527   6.962  19.714  0.00  0.00    -0.081 A 
ATOM     41  H9  UCN d           0.453   9.021  20.520  0.00  0.00     0.083 H 
ATOM     42  H10 UCN d          -0.481   6.709  20.022  0.00  0.00     0.083 H 
ATOM     43  H11 UCN d           0.881   5.037  18.848  0.00  0.00     0.087 H 
ATOM     44  C10 UCN d           5.542   8.666  18.381  0.00  0.00     0.020 A 
ATOM     45  C9  UCN d           5.482  10.085  18.961  0.00  0.00     0.131 A 
ATOM     46  C7  UCN d           6.737   8.436  17.840  0.00  0.00     0.057 A 
ATOM     47  N1  UCN d           6.822  10.517  18.632  0.00  0.00    -0.326 N 
ATOM     48  H2  UCN d           4.711  10.705  18.479  0.00  0.00     0.126 H 
ATOM     49  C8  UCN d           7.612   9.639  17.991  0.00  0.00     0.255 A 
ATOM     50  H3  UCN d           7.148  11.431  18.872  0.00  0.00     0.165 HD
ATOM     51  O5  UCN d           8.769   9.793  17.629  0.00  0.00    -0.268 OA
ATOM     52  C3  UCN d          10.444   6.184  15.595  0.00  0.00    -0.082 A 
ATOM     53  H7  UCN d           9.840   8.017  16.511  0.00  0.00     0.084 H 
ATOM     54  C2  UCN d          10.084   4.840  15.221  0.00  0.00    -0.081 A 
ATOM     55  H6  UCN d          11.437   6.554  15.368  0.00  0.00     0.083 H 
ATOM     56  H5  UCN d          10.808   4.209  14.717  0.00  0.00     0.083 H 
ATOM     57  H4  UCN d           8.520   3.335  15.229  0.00  0.00     0.087 H 
BRANCH  45  58
ATOM     58  O37 UCN d           5.273  10.051  20.369  0.00  0.00    -0.372 OA
ATOM     59  H1  UCN d           5.445   9.174  20.692  0.00  0.00     0.212 HD
ENDBRANCH  45  58
ENDBRANCH   3  24
BRANCH   1  60
ATOM     60  C26 UCN d           5.549   3.210  12.502  0.00  0.00    -0.028 C 
ATOM     61  H25 UCN d           6.266   3.413  11.692  0.00  0.00     0.034 H 
ATOM     62  H26 UCN d           4.525   3.237  12.100  0.00  0.00     0.034 H 
ATOM     63  H27 UCN d           5.750   2.216  12.929  0.00  0.00     0.034 H 
ENDBRANCH   1  60
TORSDOF 9
ENDMDL
MODEL 2
REMARK VINA RESULT:      -9.6      1.071      1.299
REMARK  9 active torsions:
REMARK  status: ('A' for Active; 'I' for Inactive)
REMARK    1  A    between atoms: C9_2  and  O37_1 
REMARK    2  A    between atoms: C7_6  and  C6_7 
REMARK    3  A    between atoms: N3_14  and  C25_28 
REMARK    4  A    between atoms: N2_17  and  C21_26 
REMARK    5  A    between atoms: C21_26  and  C26_36 
REMARK    6  A    between atoms: C23_30  and  N4_31 
REMARK    7  A    between atoms: N4_31  and  C28_32 
REMARK    8  A    between atoms: C22_33  and  O6_34 
REMARK    9  A    between atoms: O6_34  and  C27_35 
ROOT
ATOM      1  C21 UCN d           4.735   3.622  13.652  0.00  0.00     0.168 C 
ATOM      2  O4  UCN d           5.136   2.887  14.793  0.00  0.00    -0.333 OA
ATOM      3  C25 UCN d           5.142   3.341  16.152  0.00  0.00     0.115 C 
ATOM      4  C24 UCN d           3.803   4.124  16.451  0.00  0.00     0.005 C 
ATOM      5  C23 UCN d           2.856   4.183  15.218  0.00  0.00     0.134 C 
ATOM      6  C22 UCN d           3.613   4.725  13.946  0.00  0.00     0.113 C 
ATOM      7  H12 UCN d           5.235   2.481  16.830  0.00  0.00     0.118 H 
ATOM      8  H13 UCN d           4.055   5.152  16.751  0.00  0.00     0.042 H 
ATOM      9  H14 UCN d           3.277   3.621  17.275  0.00  0.00     0.042 H 
ATOM     10  H15 UCN d           2.493   3.170  14.990  0.00  0.00     0.088 H 
ATOM     11  H21 UCN d           2.943   4.860  13.085  0.00  0.00     0.094 H 
ENDROOT
BRANCH   5  12
ATOM     12  N4  UCN d           1.628   5.083  15.646  0.00  0.00    -0.072 N 
ATOM     13  H16 UCN d           1.029   5.225  14.848  0.00  0.00     0.277 HD
ATOM     14  H17 UCN d           1.969   5.974  15.972  0.00  0.00     0.277 HD
BRANCH  12  15
ATOM     15  C28 UCN d           0.840   4.427  16.741  0.00  0.00     0.065 C 
ATOM     16  H18 UCN d           0.329   5.197  17.337  0.00  0.00     0.067 H 
ATOM     17  H19 UCN d           1.520   3.854  17.389  0.00  0.00     0.067 H 
ATOM     18  H20 UCN d           0.095   3.749  16.301  0.00  0.00     0.067 H 
ENDBRANCH  12  15
ENDBRANCH   5  12
BRANCH   6  19
ATOM     19  O6  UCN d           4.225   5.984  14.339  0.00  0.00    -0.384 OA
BRANCH  19  20
ATOM     20  C27 UCN d           5.315   6.341  13.503  0.00  0.00     0.005 C 
ATOM     21  H22 UCN d           5.610   5.473  12.895  0.00  0.00     0.066 H 
ATOM     22  H23 UCN d           6.165   6.659  14.126  0.00  0.00     0.066 H 
ATOM     23  H24 UCN d           5.015   7.166  12.842  0.00  0.00     0.066 H 
ENDBRANCH  19  20
ENDBRANCH   6  19
BRANCH   3  24
ATOM     24  N3  UCN d           6.272   4.277  16.363  0.00  0.00    -0.316 N 
ATOM     25  C20 UCN d           7.506   4.111  15.801  0.00  0.00     0.048 A 
ATOM     26  C5  UCN d           8.255   5.343  15.954  0.00  0.00     0.004 A 
ATOM     27  C1  UCN d           8.064   2.957  15.145  0.00  0.00    -0.056 A 
ATOM     28  C6  UCN d           7.413   6.248  16.640  0.00  0.00     0.022 A 
ATOM     29  C4  UCN d           9.566   5.377  15.431  0.00  0.00    -0.070 A 
ATOM     30  C19 UCN d           6.150   5.594  16.914  0.00  0.00     0.077 A 
ATOM     31  C18 UCN d           5.119   6.223  17.594  0.00  0.00     0.077 A 
ATOM     32  N2  UCN d           3.803   5.786  18.007  0.00  0.00    -0.308 N 
ATOM     33  C11 UCN d           5.244   7.603  18.071  0.00  0.00     0.017 A 
ATOM     34  C17 UCN d           3.123   6.838  18.699  0.00  0.00     0.049 A 
ATOM     35  C12 UCN d           4.035   7.967  18.731  0.00  0.00     0.004 A 
ATOM     36  C16 UCN d           1.864   6.955  19.302  0.00  0.00    -0.056 A 
ATOM     37  C13 UCN d           3.618   9.154  19.372  0.00  0.00    -0.070 A 
ATOM     38  C14 UCN d           2.358   9.278  19.971  0.00  0.00    -0.082 A 
ATOM     39  H8  UCN d           4.297   9.999  19.400  0.00  0.00     0.084 H 
ATOM     40  C15 UCN d           1.473   8.133  19.924  0.00  0.00    -0.081 A 
ATOM     41  H9  UCN d           2.056  10.200  20.455  0.00  0.00     0.083 H 
ATOM     42  H10 UCN d           0.492   8.197  20.380  0.00  0.00     0.083 H 
ATOM     43  H11 UCN d           1.183   6.112  19.283  0.00  0.00     0.087 H 
ATOM     44  C10 UCN d           6.500   8.261  17.793  0.00  0.00     0.020 A 
ATOM     45  C9  UCN d           6.897   9.691  18.183  0.00  0.00     0.131 A 
ATOM     46  C7  UCN d           7.500   7.662  17.149  0.00  0.00     0.057 A 
ATOM     47  N1  UCN d           8.238   9.705  17.643  0.00  0.00    -0.326 N 
ATOM     48  H2  UCN d           6.250  10.450  17.719  0.00  0.00     0.126 H 
ATOM     49  C8  UCN d           8.669   8.587  17.035  0.00  0.00     0.255 A 
ATOM     50  H3  UCN d           8.822  10.513  17.720  0.00  0.00     0.165 HD
ATOM     51  O5  UCN d           9.758   8.383  16.520  0.00  0.00    -0.268 OA
ATOM     52  C3  UCN d          10.119   4.277  14.796  0.00  0.00    -0.082 A 
ATOM     53  H7  UCN d          10.153   6.283  15.527  0.00  0.00     0.084 H 
ATOM     54  C2  UCN d           9.372   3.053  14.648  0.00  0.00    -0.081 A 
ATOM     55  H6  UCN d          11.128   4.336  14.405  0.00  0.00     0.083 H 
ATOM     56  H5  UCN d           9.823   2.204  14.149  0.00  0.00     0.083 H 
ATOM     57  H4  UCN d           7.491   2.043  15.039  0.00  0.00     0.087 H 
BRANCH  45  58
ATOM     58  O37 UCN d           6.899   9.849  19.598  0.00  0.00    -0.372 OA
ATOM     59  H1  UCN d           6.626  10.732  19.817  0.00  0.00     0.212 HD
ENDBRANCH  45  58
ENDBRANCH   3  24
BRANCH   1  60
ATOM     60  C26 UCN d           4.141   2.568  12.724  0.00  0.00    -0.028 C 
ATOM     61  H25 UCN d           4.954   2.037  12.206  0.00  0.00     0.034 H 
ATOM     62  H26 UCN d           3.491   3.056  11.983  0.00  0.00     0.034 H 
ATOM     63  H27 UCN d           3.551   1.851  13.314  0.00  0.00     0.034 H 
ENDBRANCH   1  60
TORSDOF 9
ENDMDL
MODEL 3
REMARK VINA RESULT:      -8.1      1.768      2.460
REMARK  9 active torsions:
REMARK  status: ('A' for Active; 'I' for Inactive)
REMARK    1  A    between atoms: C9_2  and  O37_1 
REMARK    2  A    between atoms: C7_6  and  C6_7 
REMARK    3  A    between atoms: N3_14  and  C25_28 
REMARK    4  A    between atoms: N2_17  and  C21_26 
REMARK    5  A    between atoms: C21_26  and  C26_36 
REMARK    6  A    between atoms: C23_30  and  N4_31 
REMARK    7  A    between atoms: N4_31  and  C28_32 
REMARK    8  A    between atoms: C22_33  and  O6_34 
REMARK    9  A    between atoms: O6_34  and  C27_35 
ROOT
ATOM      1  C21 UCN d           6.002   3.118  12.800  0.00  0.00     0.168 C 
ATOM      2  O4  UCN d           5.913   2.310  13.959  0.00  0.00    -0.333 OA
ATOM      3  C25 UCN d           5.057   2.518  15.089  0.00  0.00     0.115 C 
ATOM      4  C24 UCN d           3.612   2.915  14.588  0.00  0.00     0.005 C 
ATOM      5  C23 UCN d           3.509   2.965  13.037  0.00  0.00     0.134 C 
ATOM      6  C22 UCN d           4.642   3.871  12.422  0.00  0.00     0.113 C 
ATOM      7  H12 UCN d           5.009   1.599  15.691  0.00  0.00     0.118 H 
ATOM      8  H13 UCN d           3.361   3.908  14.991  0.00  0.00     0.042 H 
ATOM      9  H14 UCN d           2.893   2.174  14.966  0.00  0.00     0.042 H 
ATOM     10  H15 UCN d           3.630   1.950  12.632  0.00  0.00     0.088 H 
ATOM     11  H21 UCN d           4.536   3.995  11.334  0.00  0.00     0.094 H 
ENDROOT
BRANCH   5  12
ATOM     12  N4  UCN d           2.049   3.478  12.708  0.00  0.00    -0.072 N 
ATOM     13  H16 UCN d           2.112   4.312  12.145  0.00  0.00     0.277 HD
ATOM     14  H17 UCN d           1.571   3.690  13.569  0.00  0.00     0.277 HD
BRANCH  12  15
ATOM     15  C28 UCN d           1.273   2.436  11.957  0.00  0.00     0.065 C 
ATOM     16  H18 UCN d           0.766   2.903  11.101  0.00  0.00     0.067 H 
ATOM     17  H19 UCN d           0.525   1.984  12.626  0.00  0.00     0.067 H 
ATOM     18  H20 UCN d           1.960   1.657  11.596  0.00  0.00     0.067 H 
ENDBRANCH  12  15
ENDBRANCH   5  12
BRANCH   6  19
ATOM     19  O6  UCN d           4.560   5.151  13.106  0.00  0.00    -0.384 OA
BRANCH  19  20
ATOM     20  C27 UCN d           5.807   5.829  13.141  0.00  0.00     0.005 C 
ATOM     21  H22 UCN d           6.086   6.134  12.121  0.00  0.00     0.066 H 
ATOM     22  H23 UCN d           6.578   5.156  13.547  0.00  0.00     0.066 H 
ATOM     23  H24 UCN d           5.723   6.719  13.780  0.00  0.00     0.066 H 
ENDBRANCH  19  20
ENDBRANCH   6  19
BRANCH   3  24
ATOM     24  N3  UCN d           5.576   3.636  15.912  0.00  0.00    -0.316 N 
ATOM     25  C20 UCN d           6.890   4.012  15.935  0.00  0.00     0.048 A 
ATOM     26  C5  UCN d           6.990   5.306  16.583  0.00  0.00     0.004 A 
ATOM     27  C1  UCN d           8.047   3.320  15.431  0.00  0.00    -0.056 A 
ATOM     28  C6  UCN d           5.677   5.680  16.951  0.00  0.00     0.022 A 
ATOM     29  C4  UCN d           8.277   5.875  16.703  0.00  0.00    -0.070 A 
ATOM     30  C19 UCN d           4.762   4.635  16.540  0.00  0.00     0.077 A 
ATOM     31  C18 UCN d           3.398   4.704  16.779  0.00  0.00     0.077 A 
ATOM     32  N2  UCN d           2.304   3.800  16.500  0.00  0.00    -0.308 N 
ATOM     33  C11 UCN d           2.796   5.854  17.459  0.00  0.00     0.017 A 
ATOM     34  C17 UCN d           1.070   4.353  16.966  0.00  0.00     0.049 A 
ATOM     35  C12 UCN d           1.392   5.636  17.564  0.00  0.00     0.004 A 
ATOM     36  C16 UCN d          -0.260   3.913  16.962  0.00  0.00    -0.056 A 
ATOM     37  C13 UCN d           0.347   6.404  18.121  0.00  0.00    -0.070 A 
ATOM     38  C14 UCN d          -0.986   5.971  18.114  0.00  0.00    -0.082 A 
ATOM     39  H8  UCN d           0.584   7.362  18.570  0.00  0.00     0.084 H 
ATOM     40  C15 UCN d          -1.273   4.686  17.513  0.00  0.00    -0.081 A 
ATOM     41  H9  UCN d          -1.774   6.578  18.544  0.00  0.00     0.083 H 
ATOM     42  H10 UCN d          -2.295   4.322  17.493  0.00  0.00     0.083 H 
ATOM     43  H11 UCN d          -0.503   2.953  16.521  0.00  0.00     0.087 H 
ATOM     44  C10 UCN d           3.706   6.902  17.864  0.00  0.00     0.020 A 
ATOM     45  C9  UCN d           3.346   8.202  18.595  0.00  0.00     0.131 A 
ATOM     46  C7  UCN d           5.018   6.840  17.648  0.00  0.00     0.057 A 
ATOM     47  N1  UCN d           4.672   8.766  18.712  0.00  0.00    -0.326 N 
ATOM     48  H2  UCN d           2.668   8.841  18.011  0.00  0.00     0.126 H 
ATOM     49  C8  UCN d           5.691   8.056  18.199  0.00  0.00     0.255 A 
ATOM     50  H3  UCN d           4.825   9.649  19.156  0.00  0.00     0.165 HD
ATOM     51  O5  UCN d           6.879   8.341  18.194  0.00  0.00    -0.268 OA
ATOM     52  C3  UCN d           9.402   5.224  16.223  0.00  0.00    -0.082 A 
ATOM     53  H7  UCN d           8.387   6.842  17.181  0.00  0.00     0.084 H 
ATOM     54  C2  UCN d           9.297   3.938  15.582  0.00  0.00    -0.081 A 
ATOM     55  H6  UCN d          10.375   5.689  16.331  0.00  0.00     0.083 H 
ATOM     56  H5  UCN d          10.190   3.445  15.215  0.00  0.00     0.083 H 
ATOM     57  H4  UCN d           7.955   2.354  14.950  0.00  0.00     0.087 H 
BRANCH  45  58
ATOM     58  O37 UCN d           2.779   7.926  19.872  0.00  0.00    -0.372 OA
ATOM     59  H1  UCN d           3.157   7.127  20.219  0.00  0.00     0.212 HD
ENDBRANCH  45  58
ENDBRANCH   3  24
BRANCH   1  60
ATOM     60  C26 UCN d           6.329   2.129  11.686  0.00  0.00    -0.028 C 
ATOM     61  H25 UCN d           6.022   2.551  10.718  0.00  0.00     0.034 H 
ATOM     62  H26 UCN d           5.789   1.186  11.862  0.00  0.00     0.034 H 
ATOM     63  H27 UCN d           7.412   1.934  11.675  0.00  0.00     0.034 H 
ENDBRANCH   1  60
TORSDOF 9
ENDMDL
