MODEL 1
REMARK VINA RESULT:      -7.0      0.000      0.000
REMARK  7 active torsions:
REMARK  status: ('A' for Active; 'I' for Inactive)
REMARK    1  A    between atoms: S1_2  and  N1_4 
REMARK    2  A    between atoms: S1_2  and  C3_10 
REMARK    3  A    between atoms: N1_4  and  C2_5 
REMARK    4  A    between atoms: C2_5  and  C10_6 
REMARK    5  A    between atoms: C2_5  and  C1_7 
REMARK    6  A    between atoms: C6_13  and  O5_16 
REMARK    7  A    between atoms: O5_16  and  C7_17 
ROOT
ATOM      1  C3  TBL d          -2.110  -5.915  -6.488  0.00  0.00     0.079 A 
ATOM      2  C4  TBL d          -3.300  -5.997  -5.770  0.00  0.00    -0.058 A 
ATOM      3  C5  TBL d          -4.528  -6.168  -6.435  0.00  0.00    -0.049 A 
ATOM      4  C6  TBL d          -4.576  -6.343  -7.824  0.00  0.00     0.068 A 
ATOM      5  C8  TBL d          -3.414  -6.266  -8.571  0.00  0.00    -0.049 A 
ATOM      6  C9  TBL d          -2.182  -6.045  -7.898  0.00  0.00    -0.058 A 
ATOM      7  H6  TBL d          -3.281  -5.927  -4.688  0.00  0.00     0.086 H 
ATOM      8  H7  TBL d          -5.449  -6.165  -5.865  0.00  0.00     0.087 H 
ATOM      9  H8  TBL d          -3.444  -6.371  -9.650  0.00  0.00     0.087 H 
ATOM     10  H9  TBL d          -1.270  -5.974  -8.481  0.00  0.00     0.086 H 
ENDROOT
BRANCH   1  11
ATOM     11  S1  TBL d          -0.707  -5.753  -5.678  0.00  0.00     0.259 S 
ATOM     12  O4  TBL d          -0.356  -7.065  -5.234  0.00  0.00    -0.201 OA
ATOM     13  O3  TBL d           0.206  -5.177  -6.631  0.00  0.00    -0.201 OA
BRANCH  11  14
ATOM     14  N1  TBL d          -0.808  -4.852  -4.345  0.00  0.00    -0.301 N 
ATOM     15  H1  TBL d          -1.064  -5.269  -3.473  0.00  0.00     0.173 HD
BRANCH  14  16
ATOM     16  C2  TBL d          -0.522  -3.411  -4.424  0.00  0.00     0.100 C 
ATOM     17  H2  TBL d           0.073  -3.218  -5.329  0.00  0.00     0.089 H 
BRANCH  16  18
ATOM     18  C10 TBL d           0.283  -2.973  -3.198  0.00  0.00    -0.048 C 
ATOM     19  H3  TBL d          -0.284  -2.214  -2.638  0.00  0.00     0.030 H 
ATOM     20  H4  TBL d           1.244  -2.546  -3.523  0.00  0.00     0.030 H 
ATOM     21  H5  TBL d           0.467  -3.842  -2.550  0.00  0.00     0.030 H 
ENDBRANCH  16  18
BRANCH  16  22
ATOM     22  C1  TBL d          -1.797  -2.612  -4.503  0.00  0.00     0.196 C 
ATOM     23  O2  TBL d          -1.856  -1.531  -5.054  0.00  0.00    -0.646 OA
ATOM     24  O1  TBL d          -2.904  -3.108  -3.953  0.00  0.00    -0.646 OA
ENDBRANCH  16  22
ENDBRANCH  14  16
ENDBRANCH  11  14
ENDBRANCH   1  11
BRANCH   4  25
ATOM     25  O5  TBL d          -5.816  -6.509  -8.418  0.00  0.00    -0.356 OA
BRANCH  25  26
ATOM     26  C7  TBL d          -6.028  -6.921  -9.761  0.00  0.00     0.010 C 
ATOM     27  H10 TBL d          -7.094  -6.826 -10.009  0.00  0.00     0.066 H 
ATOM     28  H11 TBL d          -5.716  -7.969  -9.876  0.00  0.00     0.066 H 
ATOM     29  H12 TBL d          -5.436  -6.286 -10.437  0.00  0.00     0.066 H 
ENDBRANCH  25  26
ENDBRANCH   4  25
TORSDOF 7
ENDMDL
MODEL 2
REMARK VINA RESULT:      -6.4      1.429      1.808
REMARK  7 active torsions:
REMARK  status: ('A' for Active; 'I' for Inactive)
REMARK    1  A    between atoms: S1_2  and  N1_4 
REMARK    2  A    between atoms: S1_2  and  C3_10 
REMARK    3  A    between atoms: N1_4  and  C2_5 
REMARK    4  A    between atoms: C2_5  and  C10_6 
REMARK    5  A    between atoms: C2_5  and  C1_7 
REMARK    6  A    between atoms: C6_13  and  O5_16 
REMARK    7  A    between atoms: O5_16  and  C7_17 
ROOT
ATOM      1  C3  TBL d          -2.267  -5.359  -6.527  0.00  0.00     0.079 A 
ATOM      2  C4  TBL d          -3.434  -5.720  -5.858  0.00  0.00    -0.058 A 
ATOM      3  C5  TBL d          -4.585  -6.095  -6.575  0.00  0.00    -0.049 A 
ATOM      4  C6  TBL d          -4.561  -6.194  -7.972  0.00  0.00     0.068 A 
ATOM      5  C8  TBL d          -3.421  -5.842  -8.671  0.00  0.00    -0.049 A 
ATOM      6  C9  TBL d          -2.276  -5.418  -7.944  0.00  0.00    -0.058 A 
ATOM      7  H6  TBL d          -3.456  -5.711  -4.774  0.00  0.00     0.086 H 
ATOM      8  H7  TBL d          -5.502  -6.310  -6.039  0.00  0.00     0.087 H 
ATOM      9  H8  TBL d          -3.402  -5.888  -9.754  0.00  0.00     0.087 H 
ATOM     10  H9  TBL d          -1.383  -5.132  -8.488  0.00  0.00     0.086 H 
ENDROOT
BRANCH   1  11
ATOM     11  S1  TBL d          -0.947  -4.966  -5.659  0.00  0.00     0.259 S 
ATOM     12  O4  TBL d          -1.152  -5.525  -4.359  0.00  0.00    -0.201 OA
ATOM     13  O3  TBL d           0.157  -5.533  -6.388  0.00  0.00    -0.201 OA
BRANCH  11  14
ATOM     14  N1  TBL d          -0.748  -3.383  -5.429  0.00  0.00    -0.301 N 
ATOM     15  H1  TBL d          -0.358  -2.814  -6.154  0.00  0.00     0.173 HD
BRANCH  14  16
ATOM     16  C2  TBL d          -1.144  -2.783  -4.146  0.00  0.00     0.100 C 
ATOM     17  H2  TBL d          -1.930  -3.406  -3.693  0.00  0.00     0.089 H 
BRANCH  16  18
ATOM     18  C10 TBL d          -1.697  -1.375  -4.378  0.00  0.00    -0.048 C 
ATOM     19  H3  TBL d          -1.614  -0.790  -3.450  0.00  0.00     0.030 H 
ATOM     20  H4  TBL d          -2.755  -1.441  -4.676  0.00  0.00     0.030 H 
ATOM     21  H5  TBL d          -1.122  -0.882  -5.174  0.00  0.00     0.030 H 
ENDBRANCH  16  18
BRANCH  16  22
ATOM     22  C1  TBL d           0.025  -2.717  -3.199  0.00  0.00     0.196 C 
ATOM     23  O2  TBL d           0.021  -3.267  -2.115  0.00  0.00    -0.646 OA
ATOM     24  O1  TBL d           1.110  -2.032  -3.561  0.00  0.00    -0.646 OA
ENDBRANCH  16  22
ENDBRANCH  14  16
ENDBRANCH  11  14
ENDBRANCH   1  11
BRANCH   4  25
ATOM     25  O5  TBL d          -5.727  -6.570  -8.619  0.00  0.00    -0.356 OA
BRANCH  25  26
ATOM     26  C7  TBL d          -5.810  -6.978  -9.977  0.00  0.00     0.010 C 
ATOM     27  H10 TBL d          -6.264  -7.978 -10.032  0.00  0.00     0.066 H 
ATOM     28  H11 TBL d          -4.801  -7.008 -10.413  0.00  0.00     0.066 H 
ATOM     29  H12 TBL d          -6.431  -6.262 -10.537  0.00  0.00     0.066 H 
ENDBRANCH  25  26
ENDBRANCH   4  25
TORSDOF 7
ENDMDL
MODEL 3
REMARK VINA RESULT:      -5.6      2.016      6.174
REMARK  7 active torsions:
REMARK  status: ('A' for Active; 'I' for Inactive)
REMARK    1  A    between atoms: S1_2  and  N1_4 
REMARK    2  A    between atoms: S1_2  and  C3_10 
REMARK    3  A    between atoms: N1_4  and  C2_5 
REMARK    4  A    between atoms: C2_5  and  C10_6 
REMARK    5  A    between atoms: C2_5  and  C1_7 
REMARK    6  A    between atoms: C6_13  and  O5_16 
REMARK    7  A    between atoms: O5_16  and  C7_17 
ROOT
ATOM      1  C3  TBL d          -1.759  -4.844  -4.869  0.00  0.00     0.079 A 
ATOM      2  C4  TBL d          -0.402  -4.869  -4.555  0.00  0.00    -0.058 A 
ATOM      3  C5  TBL d           0.171  -3.849  -3.773  0.00  0.00    -0.049 A 
ATOM      4  C6  TBL d          -0.620  -2.832  -3.225  0.00  0.00     0.068 A 
ATOM      5  C8  TBL d          -1.971  -2.773  -3.517  0.00  0.00    -0.049 A 
ATOM      6  C9  TBL d          -2.536  -3.780  -4.346  0.00  0.00    -0.058 A 
ATOM      7  H6  TBL d           0.219  -5.681  -4.916  0.00  0.00     0.086 H 
ATOM      8  H7  TBL d           1.240  -3.851  -3.592  0.00  0.00     0.087 H 
ATOM      9  H8  TBL d          -2.587  -1.974  -3.121  0.00  0.00     0.087 H 
ATOM     10  H9  TBL d          -3.592  -3.732  -4.586  0.00  0.00     0.086 H 
ENDROOT
BRANCH   1  11
ATOM     11  S1  TBL d          -2.389  -6.062  -5.747  0.00  0.00     0.259 S 
ATOM     12  O4  TBL d          -1.369  -6.451  -6.668  0.00  0.00    -0.201 OA
ATOM     13  O3  TBL d          -2.740  -7.070  -4.780  0.00  0.00    -0.201 OA
BRANCH  11  14
ATOM     14  N1  TBL d          -3.659  -5.646  -6.648  0.00  0.00    -0.301 N 
ATOM     15  H1  TBL d          -4.243  -4.882  -6.374  0.00  0.00     0.173 HD
BRANCH  14  16
ATOM     16  C2  TBL d          -3.950  -6.400  -7.877  0.00  0.00     0.100 C 
ATOM     17  H2  TBL d          -3.482  -7.392  -7.802  0.00  0.00     0.089 H 
BRANCH  16  18
ATOM     18  C10 TBL d          -3.369  -5.666  -9.088  0.00  0.00    -0.048 C 
ATOM     19  H3  TBL d          -3.919  -4.727  -9.246  0.00  0.00     0.030 H 
ATOM     20  H4  TBL d          -3.463  -6.301  -9.982  0.00  0.00     0.030 H 
ATOM     21  H5  TBL d          -2.308  -5.443  -8.907  0.00  0.00     0.030 H 
ENDBRANCH  16  18
BRANCH  16  22
ATOM     22  C1  TBL d          -5.435  -6.579  -8.060  0.00  0.00     0.196 C 
ATOM     23  O2  TBL d          -6.206  -6.635  -7.122  0.00  0.00    -0.646 OA
ATOM     24  O1  TBL d          -5.926  -6.675  -9.295  0.00  0.00    -0.646 OA
ENDBRANCH  16  22
ENDBRANCH  14  16
ENDBRANCH  11  14
ENDBRANCH   1  11
BRANCH   4  25
ATOM     25  O5  TBL d           0.004  -1.859  -2.462  0.00  0.00    -0.356 OA
BRANCH  25  26
ATOM     26  C7  TBL d           1.345  -1.424  -2.635  0.00  0.00     0.010 C 
ATOM     27  H10 TBL d           1.454  -0.956  -3.624  0.00  0.00     0.066 H 
ATOM     28  H11 TBL d           2.023  -2.287  -2.561  0.00  0.00     0.066 H 
ATOM     29  H12 TBL d           1.597  -0.691  -1.854  0.00  0.00     0.066 H 
ENDBRANCH  25  26
ENDBRANCH   4  25
TORSDOF 7
ENDMDL
MODEL 4
REMARK VINA RESULT:      -5.3      1.900      2.657
REMARK  7 active torsions:
REMARK  status: ('A' for Active; 'I' for Inactive)
REMARK    1  A    between atoms: S1_2  and  N1_4 
REMARK    2  A    between atoms: S1_2  and  C3_10 
REMARK    3  A    between atoms: N1_4  and  C2_5 
REMARK    4  A    between atoms: C2_5  and  C10_6 
REMARK    5  A    between atoms: C2_5  and  C1_7 
REMARK    6  A    between atoms: C6_13  and  O5_16 
REMARK    7  A    between atoms: O5_16  and  C7_17 
ROOT
ATOM      1  C3  TBL d          -2.536  -5.633  -6.729  0.00  0.00     0.079 A 
ATOM      2  C4  TBL d          -3.863  -5.945  -6.439  0.00  0.00    -0.058 A 
ATOM      3  C5  TBL d          -4.769  -6.247  -7.471  0.00  0.00    -0.049 A 
ATOM      4  C6  TBL d          -4.345  -6.321  -8.804  0.00  0.00     0.068 A 
ATOM      5  C8  TBL d          -3.036  -6.016  -9.130  0.00  0.00    -0.049 A 
ATOM      6  C9  TBL d          -2.135  -5.666  -8.088  0.00  0.00    -0.058 A 
ATOM      7  H6  TBL d          -4.199  -5.956  -5.408  0.00  0.00     0.086 H 
ATOM      8  H7  TBL d          -5.812  -6.424  -7.231  0.00  0.00     0.087 H 
ATOM      9  H8  TBL d          -2.704  -6.042 -10.162  0.00  0.00     0.087 H 
ATOM     10  H9  TBL d          -1.111  -5.416  -8.341  0.00  0.00     0.086 H 
ENDROOT
BRANCH   1  11
ATOM     11  S1  TBL d          -1.510  -5.325  -5.503  0.00  0.00     0.259 S 
ATOM     12  O4  TBL d          -0.461  -6.288  -5.618  0.00  0.00    -0.201 OA
ATOM     13  O3  TBL d          -1.096  -3.961  -5.701  0.00  0.00    -0.201 OA
BRANCH  11  14
ATOM     14  N1  TBL d          -2.143  -5.539  -4.036  0.00  0.00    -0.301 N 
ATOM     15  H1  TBL d          -3.127  -5.682  -3.927  0.00  0.00     0.173 HD
BRANCH  14  16
ATOM     16  C2  TBL d          -1.260  -5.522  -2.859  0.00  0.00     0.100 C 
ATOM     17  H2  TBL d          -1.792  -5.039  -2.026  0.00  0.00     0.089 H 
BRANCH  16  18
ATOM     18  C10 TBL d           0.007  -4.722  -3.170  0.00  0.00    -0.048 C 
ATOM     19  H3  TBL d           0.704  -4.795  -2.322  0.00  0.00     0.030 H 
ATOM     20  H4  TBL d          -0.257  -3.668  -3.338  0.00  0.00     0.030 H 
ATOM     21  H5  TBL d           0.485  -5.130  -4.073  0.00  0.00     0.030 H 
ENDBRANCH  16  18
BRANCH  16  22
ATOM     22  C1  TBL d          -0.886  -6.922  -2.447  0.00  0.00     0.196 C 
ATOM     23  O2  TBL d           0.256  -7.334  -2.496  0.00  0.00    -0.646 OA
ATOM     24  O1  TBL d          -1.840  -7.742  -2.006  0.00  0.00    -0.646 OA
ENDBRANCH  16  22
ENDBRANCH  14  16
ENDBRANCH  11  14
ENDBRANCH   1  11
BRANCH   4  25
ATOM     25  O5  TBL d          -5.287  -6.625  -9.773  0.00  0.00    -0.356 OA
BRANCH  25  26
ATOM     26  C7  TBL d          -6.247  -7.667  -9.679  0.00  0.00     0.010 C 
ATOM     27  H10 TBL d          -5.966  -8.486 -10.356  0.00  0.00     0.066 H 
ATOM     28  H11 TBL d          -7.237  -7.280  -9.961  0.00  0.00     0.066 H 
ATOM     29  H12 TBL d          -6.280  -8.042  -8.645  0.00  0.00     0.066 H 
ENDBRANCH  25  26
ENDBRANCH   4  25
TORSDOF 7
ENDMDL
MODEL 5
REMARK VINA RESULT:      -4.9      2.241      5.926
REMARK  7 active torsions:
REMARK  status: ('A' for Active; 'I' for Inactive)
REMARK    1  A    between atoms: S1_2  and  N1_4 
REMARK    2  A    between atoms: S1_2  and  C3_10 
REMARK    3  A    between atoms: N1_4  and  C2_5 
REMARK    4  A    between atoms: C2_5  and  C10_6 
REMARK    5  A    between atoms: C2_5  and  C1_7 
REMARK    6  A    between atoms: C6_13  and  O5_16 
REMARK    7  A    between atoms: O5_16  and  C7_17 
ROOT
ATOM      1  C3  TBL d          -0.860  -5.584  -3.785  0.00  0.00     0.079 A 
ATOM      2  C4  TBL d           0.132  -4.820  -4.395  0.00  0.00    -0.058 A 
ATOM      3  C5  TBL d           0.478  -3.556  -3.886  0.00  0.00    -0.049 A 
ATOM      4  C6  TBL d          -0.105  -3.070  -2.709  0.00  0.00     0.068 A 
ATOM      5  C8  TBL d          -1.096  -3.799  -2.076  0.00  0.00    -0.049 A 
ATOM      6  C9  TBL d          -1.475  -5.055  -2.622  0.00  0.00    -0.058 A 
ATOM      7  H6  TBL d           0.642  -5.204  -5.272  0.00  0.00     0.086 H 
ATOM      8  H7  TBL d           1.206  -2.949  -4.411  0.00  0.00     0.087 H 
ATOM      9  H8  TBL d          -1.574  -3.419  -1.180  0.00  0.00     0.087 H 
ATOM     10  H9  TBL d          -2.257  -5.626  -2.134  0.00  0.00     0.086 H 
ENDROOT
BRANCH   1  11
ATOM     11  S1  TBL d          -1.205  -7.058  -4.385  0.00  0.00     0.259 S 
ATOM     12  O4  TBL d           0.013  -7.546  -4.950  0.00  0.00    -0.201 OA
ATOM     13  O3  TBL d          -1.688  -7.812  -3.258  0.00  0.00    -0.201 OA
BRANCH  11  14
ATOM     14  N1  TBL d          -2.276  -7.052  -5.590  0.00  0.00    -0.301 N 
ATOM     15  H1  TBL d          -2.560  -7.911  -6.015  0.00  0.00     0.173 HD
BRANCH  14  16
ATOM     16  C2  TBL d          -2.830  -5.772  -6.058  0.00  0.00     0.100 C 
ATOM     17  H2  TBL d          -2.558  -4.986  -5.339  0.00  0.00     0.089 H 
BRANCH  16  18
ATOM     18  C10 TBL d          -4.356  -5.865  -6.139  0.00  0.00    -0.048 C 
ATOM     19  H3  TBL d          -4.756  -4.947  -6.595  0.00  0.00     0.030 H 
ATOM     20  H4  TBL d          -4.771  -5.981  -5.126  0.00  0.00     0.030 H 
ATOM     21  H5  TBL d          -4.638  -6.732  -6.753  0.00  0.00     0.030 H 
ENDBRANCH  16  18
BRANCH  16  22
ATOM     22  C1  TBL d          -2.274  -5.406  -7.409  0.00  0.00     0.196 C 
ATOM     23  O2  TBL d          -2.986  -5.132  -8.355  0.00  0.00    -0.646 OA
ATOM     24  O1  TBL d          -0.953  -5.378  -7.577  0.00  0.00    -0.646 OA
ENDBRANCH  16  22
ENDBRANCH  14  16
ENDBRANCH  11  14
ENDBRANCH   1  11
BRANCH   4  25
ATOM     25  O5  TBL d           0.280  -1.818  -2.258  0.00  0.00    -0.356 OA
BRANCH  25  26
ATOM     26  C7  TBL d           1.622  -1.367  -2.153  0.00  0.00     0.010 C 
ATOM     27  H10 TBL d           2.306  -2.194  -2.389  0.00  0.00     0.066 H 
ATOM     28  H11 TBL d           1.811  -1.015  -1.128  0.00  0.00     0.066 H 
ATOM     29  H12 TBL d           1.788  -0.541  -2.861  0.00  0.00     0.066 H 
ENDBRANCH  25  26
ENDBRANCH   4  25
TORSDOF 7
ENDMDL
MODEL 6
REMARK VINA RESULT:      -4.8      2.271      5.824
REMARK  7 active torsions:
REMARK  status: ('A' for Active; 'I' for Inactive)
REMARK    1  A    between atoms: S1_2  and  N1_4 
REMARK    2  A    between atoms: S1_2  and  C3_10 
REMARK    3  A    between atoms: N1_4  and  C2_5 
REMARK    4  A    between atoms: C2_5  and  C10_6 
REMARK    5  A    between atoms: C2_5  and  C1_7 
REMARK    6  A    between atoms: C6_13  and  O5_16 
REMARK    7  A    between atoms: O5_16  and  C7_17 
ROOT
ATOM      1  C3  TBL d          -2.032  -5.185  -4.968  0.00  0.00     0.079 A 
ATOM      2  C4  TBL d          -0.693  -5.518  -4.779  0.00  0.00    -0.058 A 
ATOM      3  C5  TBL d           0.225  -4.560  -4.314  0.00  0.00    -0.049 A 
ATOM      4  C6  TBL d          -0.198  -3.274  -3.953  0.00  0.00     0.068 A 
ATOM      5  C8  TBL d          -1.519  -2.906  -4.129  0.00  0.00    -0.049 A 
ATOM      6  C9  TBL d          -2.434  -3.864  -4.644  0.00  0.00    -0.058 A 
ATOM      7  H6  TBL d          -0.355  -6.526  -4.993  0.00  0.00     0.086 H 
ATOM      8  H7  TBL d           1.274  -4.820  -4.234  0.00  0.00     0.087 H 
ATOM      9  H8  TBL d          -1.851  -1.904  -3.879  0.00  0.00     0.087 H 
ATOM     10  H9  TBL d          -3.468  -3.577  -4.793  0.00  0.00     0.086 H 
ENDROOT
BRANCH   1  11
ATOM     11  S1  TBL d          -3.069  -6.334  -5.474  0.00  0.00     0.259 S 
ATOM     12  O4  TBL d          -2.738  -7.513  -4.738  0.00  0.00    -0.201 OA
ATOM     13  O3  TBL d          -4.377  -5.800  -5.195  0.00  0.00    -0.201 OA
BRANCH  11  14
ATOM     14  N1  TBL d          -2.917  -6.731  -7.029  0.00  0.00    -0.301 N 
ATOM     15  H1  TBL d          -2.439  -7.569  -7.291  0.00  0.00     0.173 HD
BRANCH  14  16
ATOM     16  C2  TBL d          -3.489  -5.849  -8.059  0.00  0.00     0.100 C 
ATOM     17  H2  TBL d          -4.197  -5.159  -7.578  0.00  0.00     0.089 H 
BRANCH  16  18
ATOM     18  C10 TBL d          -4.235  -6.683  -9.102  0.00  0.00    -0.048 C 
ATOM     19  H3  TBL d          -3.901  -7.729  -9.043  0.00  0.00     0.030 H 
ATOM     20  H4  TBL d          -4.025  -6.287 -10.107  0.00  0.00     0.030 H 
ATOM     21  H5  TBL d          -5.316  -6.632  -8.906  0.00  0.00     0.030 H 
ENDBRANCH  16  18
BRANCH  16  22
ATOM     22  C1  TBL d          -2.411  -5.042  -8.734  0.00  0.00     0.196 C 
ATOM     23  O2  TBL d          -2.656  -4.191  -9.566  0.00  0.00    -0.646 OA
ATOM     24  O1  TBL d          -1.138  -5.264  -8.407  0.00  0.00    -0.646 OA
ENDBRANCH  16  22
ENDBRANCH  14  16
ENDBRANCH  11  14
ENDBRANCH   1  11
BRANCH   4  25
ATOM     25  O5  TBL d           0.756  -2.377  -3.500  0.00  0.00    -0.356 OA
BRANCH  25  26
ATOM     26  C7  TBL d           0.892  -1.942  -2.156  0.00  0.00     0.010 C 
ATOM     27  H10 TBL d          -0.065  -1.530  -1.805  0.00  0.00     0.066 H 
ATOM     28  H11 TBL d           1.668  -1.164  -2.099  0.00  0.00     0.066 H 
ATOM     29  H12 TBL d           1.179  -2.794  -1.521  0.00  0.00     0.066 H 
ENDBRANCH  25  26
ENDBRANCH   4  25
TORSDOF 7
ENDMDL
