MODEL 1
REMARK VINA RESULT:     -10.5      0.000      0.000
REMARK  15 active torsions:
REMARK  status: ('A' for Active; 'I' for Inactive)
REMARK    1  A    between atoms: C10_11  and  N17_7 
REMARK    2  A    between atoms: N17_7  and  C24_8 
REMARK    3  A    between atoms: C24_8  and  C63_13 
REMARK    4  A    between atoms: C63_13  and  C64_28 
REMARK    5  A    between atoms: N40_26  and  C37_23 
REMARK    6  A    between atoms: C41_27  and  N40_26 
REMARK    7  A    between atoms: C72_36  and  C41_27 
REMARK    8  A    between atoms: C64_28  and  C65_29 
REMARK    9  A    between atoms: C65_29  and  C66_30 
REMARK   10  A    between atoms: C66_30  and  C67_31 
REMARK   11  A    between atoms: C67_31  and  C68_32 
REMARK   12  A    between atoms: C68_32  and  C69_33 
REMARK   13  A    between atoms: C69_33  and  C70_34 
REMARK   14  A    between atoms: C70_34  and  C71_35 
REMARK   15  A    between atoms: C71_35  and  C72_36 
ROOT
ATOM      1  C67 E12 d           5.054  64.433  70.007  0.00  0.00    -0.065 C 
ATOM      2  H37 E12 d           6.015  64.133  69.563  0.00  0.00     0.033 H 
ATOM      3  H38 E12 d           5.238  65.008  70.927  0.00  0.00     0.033 H 
ENDROOT
BRANCH   1   4
ATOM      4  C66 E12 d           4.279  63.185  70.367  0.00  0.00    -0.065 C 
ATOM      5  H35 E12 d           4.985  62.386  70.638  0.00  0.00     0.033 H 
ATOM      6  H36 E12 d           3.624  63.401  71.223  0.00  0.00     0.033 H 
BRANCH   4   7
ATOM      7  C65 E12 d           3.436  62.726  69.203  0.00  0.00    -0.065 C 
ATOM      8  H33 E12 d           3.163  63.600  68.594  0.00  0.00     0.033 H 
ATOM      9  H34 E12 d           4.024  62.023  68.593  0.00  0.00     0.033 H 
BRANCH   7  10
ATOM     10  C64 E12 d           2.164  62.031  69.665  0.00  0.00    -0.064 C 
ATOM     11  H31 E12 d           1.510  61.855  68.798  0.00  0.00     0.033 H 
ATOM     12  H32 E12 d           2.424  61.068  70.129  0.00  0.00     0.033 H 
BRANCH  10  13
ATOM     13  C63 E12 d           1.437  62.889  70.673  0.00  0.00    -0.043 C 
ATOM     14  H15 E12 d           2.171  63.492  71.228  0.00  0.00     0.035 H 
ATOM     15  H16 E12 d           0.741  63.555  70.142  0.00  0.00     0.035 H 
BRANCH  13  16
ATOM     16  C24 E12 d           0.643  62.022  71.668  0.00  0.00     0.083 C 
ATOM     17  H7  E12 d          -0.372  62.422  71.806  0.00  0.00     0.075 H 
ATOM     18  H8  E12 d           0.583  60.982  71.314  0.00  0.00     0.075 H 
BRANCH  16  19
ATOM     19  N17 E12 d           1.440  62.102  72.979  0.00  0.00    -0.067 N 
ATOM     20  H5  E12 d           2.316  62.545  72.753  0.00  0.00     0.277 HD
ATOM     21  H6  E12 d           0.912  62.697  73.597  0.00  0.00     0.277 HD
BRANCH  19  22
ATOM     22  C10 E12 d           1.782  60.862  73.769  0.00  0.00     0.129 C 
ATOM     23  C4  E12 d           2.378  59.784  72.839  0.00  0.00    -0.005 A 
ATOM     24  C3  E12 d           1.812  58.526  72.730  0.00  0.00     0.020 A 
ATOM     25  C5  E12 d           3.648  60.030  72.097  0.00  0.00    -0.068 A 
ATOM     26  N2  E12 d           2.395  57.586  71.927  0.00  0.00    -0.327 N 
ATOM     27  C9  E12 d           0.536  58.107  73.471  0.00  0.00    -0.026 C 
ATOM     28  C1  E12 d           3.560  57.713  71.189  0.00  0.00     0.245 A 
ATOM     29  H1  E12 d           1.927  56.705  71.866  0.00  0.00     0.169 HD
ATOM     30  C6  E12 d           4.226  59.066  71.303  0.00  0.00    -0.017 A 
ATOM     31  O7  E12 d           3.968  56.778  70.471  0.00  0.00    -0.268 OA
ATOM     32  H9  E12 d           5.149  59.275  70.763  0.00  0.00     0.092 H 
ATOM     33  C14 E12 d          -0.323  59.332  73.835  0.00  0.00    -0.058 C 
ATOM     34  H10 E12 d           0.815  57.577  74.394  0.00  0.00     0.042 H 
ATOM     35  H11 E12 d          -0.050  57.437  72.826  0.00  0.00     0.042 H 
ATOM     36  C13 E12 d           0.537  60.405  74.578  0.00  0.00    -0.034 C 
ATOM     37  H3  E12 d          -0.733  59.772  72.914  0.00  0.00     0.033 H 
ATOM     38  H4  E12 d          -1.148  59.014  74.488  0.00  0.00     0.033 H 
ATOM     39  H13 E12 d          -0.094  61.284  74.775  0.00  0.00     0.036 H 
ATOM     40  H14 E12 d           0.879  59.978  75.533  0.00  0.00     0.036 H 
ATOM     41  H2  E12 d           4.133  61.001  72.187  0.00  0.00     0.084 H 
ATOM     42  H12 E12 d           2.563  61.126  74.498  0.00  0.00     0.092 H 
ENDBRANCH  19  22
ENDBRANCH  16  19
ENDBRANCH  13  16
ENDBRANCH  10  13
ENDBRANCH   7  10
ENDBRANCH   4   7
ENDBRANCH   1   4
BRANCH   1  43
ATOM     43  C68 E12 d           4.324  65.320  69.021  0.00  0.00    -0.065 C 
ATOM     44  H39 E12 d           3.560  64.717  68.509  0.00  0.00     0.033 H 
ATOM     45  H40 E12 d           5.050  65.695  68.285  0.00  0.00     0.033 H 
BRANCH  43  46
ATOM     46  C69 E12 d           3.639  66.511  69.671  0.00  0.00    -0.065 C 
ATOM     47  H41 E12 d           3.728  67.385  69.008  0.00  0.00     0.033 H 
ATOM     48  H42 E12 d           4.128  66.729  70.631  0.00  0.00     0.033 H 
BRANCH  46  49
ATOM     49  C70 E12 d           2.169  66.221  69.917  0.00  0.00    -0.065 C 
ATOM     50  H43 E12 d           1.962  66.360  70.988  0.00  0.00     0.033 H 
ATOM     51  H44 E12 d           1.970  65.175  69.637  0.00  0.00     0.033 H 
BRANCH  49  52
ATOM     52  C71 E12 d           1.222  67.118  69.125  0.00  0.00    -0.064 C 
ATOM     53  H45 E12 d           0.451  67.502  69.809  0.00  0.00     0.033 H 
ATOM     54  H46 E12 d           0.746  66.515  68.337  0.00  0.00     0.033 H 
BRANCH  52  55
ATOM     55  C72 E12 d           1.929  68.316  68.463  0.00  0.00    -0.043 C 
ATOM     56  H47 E12 d           3.005  68.249  68.676  0.00  0.00     0.035 H 
ATOM     57  H48 E12 d           1.526  69.243  68.897  0.00  0.00     0.035 H 
BRANCH  55  58
ATOM     58  C41 E12 d           1.736  68.367  66.943  0.00  0.00     0.083 C 
ATOM     59  H29 E12 d           1.414  69.372  66.634  0.00  0.00     0.075 H 
ATOM     60  H30 E12 d           0.983  67.628  66.630  0.00  0.00     0.075 H 
BRANCH  58  61
ATOM     61  N40 E12 d           3.054  68.043  66.341  0.00  0.00    -0.067 N 
ATOM     62  H27 E12 d           3.419  67.249  66.844  0.00  0.00     0.277 HD
ATOM     63  H28 E12 d           3.650  68.841  66.493  0.00  0.00     0.277 HD
BRANCH  61  64
ATOM     64  C37 E12 d           3.133  67.705  64.865  0.00  0.00     0.129 C 
ATOM     65  C38 E12 d           3.929  68.831  64.173  0.00  0.00    -0.034 C 
ATOM     66  C39 E12 d           4.214  68.478  62.709  0.00  0.00    -0.058 C 
ATOM     67  H23 E12 d           4.884  68.974  64.702  0.00  0.00     0.036 H 
ATOM     68  H24 E12 d           3.345  69.762  64.212  0.00  0.00     0.036 H 
ATOM     69  C36 E12 d           5.092  67.215  62.628  0.00  0.00    -0.026 C 
ATOM     70  H25 E12 d           3.263  68.293  62.189  0.00  0.00     0.033 H 
ATOM     71  H26 E12 d           4.738  69.317  62.228  0.00  0.00     0.033 H 
ATOM     72  C31 E12 d           4.508  66.081  63.496  0.00  0.00     0.020 A 
ATOM     73  H20 E12 d           5.142  66.878  61.583  0.00  0.00     0.042 H 
ATOM     74  H21 E12 d           6.104  67.457  62.984  0.00  0.00     0.042 H 
ATOM     75  C32 E12 d           3.618  66.293  64.549  0.00  0.00    -0.005 A 
ATOM     76  N30 E12 d           4.901  64.807  63.207  0.00  0.00    -0.327 N 
ATOM     77  C33 E12 d           3.136  65.114  65.310  0.00  0.00    -0.068 A 
ATOM     78  C34 E12 d           3.537  63.847  65.007  0.00  0.00    -0.017 A 
ATOM     79  H18 E12 d           2.442  65.265  66.136  0.00  0.00     0.084 H 
ATOM     80  C29 E12 d           4.490  63.642  63.846  0.00  0.00     0.245 A 
ATOM     81  H19 E12 d           3.180  62.998  65.588  0.00  0.00     0.092 H 
ATOM     82  O35 E12 d           4.832  62.536  63.407  0.00  0.00    -0.268 OA
ATOM     83  H17 E12 d           5.554  64.699  62.457  0.00  0.00     0.169 HD
ATOM     84  H22 E12 d           2.106  67.754  64.474  0.00  0.00     0.092 H 
ENDBRANCH  61  64
ENDBRANCH  58  61
ENDBRANCH  55  58
ENDBRANCH  52  55
ENDBRANCH  49  52
ENDBRANCH  46  49
ENDBRANCH  43  46
ENDBRANCH   1  43
TORSDOF 15
ENDMDL
MODEL 2
REMARK VINA RESULT:     -10.2      2.173      9.612
REMARK  15 active torsions:
REMARK  status: ('A' for Active; 'I' for Inactive)
REMARK    1  A    between atoms: C10_11  and  N17_7 
REMARK    2  A    between atoms: N17_7  and  C24_8 
REMARK    3  A    between atoms: C24_8  and  C63_13 
REMARK    4  A    between atoms: C63_13  and  C64_28 
REMARK    5  A    between atoms: N40_26  and  C37_23 
REMARK    6  A    between atoms: C41_27  and  N40_26 
REMARK    7  A    between atoms: C72_36  and  C41_27 
REMARK    8  A    between atoms: C64_28  and  C65_29 
REMARK    9  A    between atoms: C65_29  and  C66_30 
REMARK   10  A    between atoms: C66_30  and  C67_31 
REMARK   11  A    between atoms: C67_31  and  C68_32 
REMARK   12  A    between atoms: C68_32  and  C69_33 
REMARK   13  A    between atoms: C69_33  and  C70_34 
REMARK   14  A    between atoms: C70_34  and  C71_35 
REMARK   15  A    between atoms: C71_35  and  C72_36 
ROOT
ATOM      1  C67 E12 d           1.669  68.161  66.787  0.00  0.00    -0.065 C 
ATOM      2  H37 E12 d           1.808  69.252  66.834  0.00  0.00     0.033 H 
ATOM      3  H38 E12 d           2.622  67.681  66.520  0.00  0.00     0.033 H 
ENDROOT
BRANCH   1   4
ATOM      4  C66 E12 d           0.654  67.851  65.710  0.00  0.00    -0.065 C 
ATOM      5  H35 E12 d          -0.014  67.052  66.063  0.00  0.00     0.033 H 
ATOM      6  H36 E12 d           0.065  68.755  65.498  0.00  0.00     0.033 H 
BRANCH   4   7
ATOM      7  C65 E12 d           1.339  67.399  64.444  0.00  0.00    -0.065 C 
ATOM      8  H33 E12 d           2.215  66.789  64.711  0.00  0.00     0.033 H 
ATOM      9  H34 E12 d           0.635  66.793  63.856  0.00  0.00     0.033 H 
BRANCH   7  10
ATOM     10  C64 E12 d           1.800  68.578  63.599  0.00  0.00    -0.064 C 
ATOM     11  H31 E12 d           1.095  69.414  63.725  0.00  0.00     0.033 H 
ATOM     12  H32 E12 d           2.801  68.891  63.928  0.00  0.00     0.033 H 
BRANCH  10  13
ATOM     13  C63 E12 d           1.853  68.186  62.142  0.00  0.00    -0.043 C 
ATOM     14  H15 E12 d           1.742  67.095  62.058  0.00  0.00     0.035 H 
ATOM     15  H16 E12 d           1.030  68.680  61.606  0.00  0.00     0.035 H 
BRANCH  13  16
ATOM     16  C24 E12 d           3.191  68.606  61.505  0.00  0.00     0.083 C 
ATOM     17  H7  E12 d           3.034  68.974  60.480  0.00  0.00     0.075 H 
ATOM     18  H8  E12 d           3.678  69.390  62.105  0.00  0.00     0.075 H 
BRANCH  16  19
ATOM     19  N17 E12 d           4.039  67.325  61.497  0.00  0.00    -0.067 N 
ATOM     20  H5  E12 d           3.396  66.557  61.607  0.00  0.00     0.277 HD
ATOM     21  H6  E12 d           4.471  67.275  60.587  0.00  0.00     0.277 HD
BRANCH  19  22
ATOM     22  C10 E12 d           5.142  67.105  62.504  0.00  0.00     0.129 C 
ATOM     23  C4  E12 d           4.650  66.180  63.639  0.00  0.00    -0.005 A 
ATOM     24  C3  E12 d           4.681  66.578  64.963  0.00  0.00     0.020 A 
ATOM     25  C5  E12 d           4.217  64.782  63.353  0.00  0.00    -0.068 A 
ATOM     26  N2  E12 d           4.276  65.713  65.941  0.00  0.00    -0.327 N 
ATOM     27  C9  E12 d           5.150  67.966  65.418  0.00  0.00    -0.026 C 
ATOM     28  C1  E12 d           3.845  64.405  65.787  0.00  0.00     0.245 A 
ATOM     29  H1  E12 d           4.293  66.065  66.877  0.00  0.00     0.169 HD
ATOM     30  C6  E12 d           3.824  63.922  64.354  0.00  0.00    -0.017 A 
ATOM     31  O7  E12 d           3.475  63.733  66.769  0.00  0.00    -0.268 OA
ATOM     32  H9  E12 d           3.503  62.909  64.117  0.00  0.00     0.092 H 
ATOM     33  C14 E12 d           5.008  68.998  64.284  0.00  0.00    -0.058 C 
ATOM     34  H10 E12 d           6.206  67.906  65.720  0.00  0.00     0.042 H 
ATOM     35  H11 E12 d           4.541  68.287  66.275  0.00  0.00     0.042 H 
ATOM     36  C13 E12 d           5.691  68.478  62.979  0.00  0.00    -0.034 C 
ATOM     37  H3  E12 d           3.941  69.176  64.089  0.00  0.00     0.033 H 
ATOM     38  H4  E12 d           5.486  69.940  64.592  0.00  0.00     0.033 H 
ATOM     39  H13 E12 d           5.526  69.215  62.179  0.00  0.00     0.036 H 
ATOM     40  H14 E12 d           6.770  68.376  63.165  0.00  0.00     0.036 H 
ATOM     41  H2  E12 d           4.211  64.430  62.322  0.00  0.00     0.084 H 
ATOM     42  H12 E12 d           5.968  66.582  61.998  0.00  0.00     0.092 H 
ENDBRANCH  19  22
ENDBRANCH  16  19
ENDBRANCH  13  16
ENDBRANCH  10  13
ENDBRANCH   7  10
ENDBRANCH   4   7
ENDBRANCH   1   4
BRANCH   1  43
ATOM     43  C68 E12 d           1.249  67.670  68.156  0.00  0.00    -0.065 C 
ATOM     44  H39 E12 d           0.973  66.608  68.075  0.00  0.00     0.033 H 
ATOM     45  H40 E12 d           0.375  68.253  68.483  0.00  0.00     0.033 H 
BRANCH  43  46
ATOM     46  C69 E12 d           2.338  67.804  69.208  0.00  0.00    -0.065 C 
ATOM     47  H41 E12 d           1.901  67.636  70.203  0.00  0.00     0.033 H 
ATOM     48  H42 E12 d           2.762  68.818  69.161  0.00  0.00     0.033 H 
BRANCH  46  49
ATOM     49  C70 E12 d           3.444  66.791  68.972  0.00  0.00    -0.065 C 
ATOM     50  H43 E12 d           4.411  67.314  69.026  0.00  0.00     0.033 H 
ATOM     51  H44 E12 d           3.314  66.363  67.967  0.00  0.00     0.033 H 
BRANCH  49  52
ATOM     52  C71 E12 d           3.460  65.648  69.983  0.00  0.00    -0.064 C 
ATOM     53  H45 E12 d           2.632  64.963  69.747  0.00  0.00     0.033 H 
ATOM     54  H46 E12 d           3.312  66.069  70.989  0.00  0.00     0.033 H 
BRANCH  52  55
ATOM     55  C72 E12 d           4.775  64.847  69.977  0.00  0.00    -0.043 C 
ATOM     56  H47 E12 d           5.487  65.338  70.656  0.00  0.00     0.035 H 
ATOM     57  H48 E12 d           5.182  64.851  68.955  0.00  0.00     0.035 H 
BRANCH  55  58
ATOM     58  C41 E12 d           4.598  63.392  70.425  0.00  0.00     0.083 C 
ATOM     59  H29 E12 d           4.014  63.349  71.356  0.00  0.00     0.075 H 
ATOM     60  H30 E12 d           5.580  62.922  70.587  0.00  0.00     0.075 H 
BRANCH  58  61
ATOM     61  N40 E12 d           3.872  62.701  69.330  0.00  0.00    -0.067 N 
ATOM     62  H27 E12 d           4.555  62.460  68.630  0.00  0.00     0.277 HD
ATOM     63  H28 E12 d           3.217  63.365  68.948  0.00  0.00     0.277 HD
BRANCH  61  64
ATOM     64  C37 E12 d           3.092  61.438  69.640  0.00  0.00     0.129 C 
ATOM     65  C38 E12 d           4.104  60.368  70.101  0.00  0.00    -0.034 C 
ATOM     66  C39 E12 d           3.381  59.115  70.609  0.00  0.00    -0.058 C 
ATOM     67  H23 E12 d           4.721  60.782  70.913  0.00  0.00     0.036 H 
ATOM     68  H24 E12 d           4.749  60.093  69.254  0.00  0.00     0.036 H 
ATOM     69  C36 E12 d           2.524  59.459  71.841  0.00  0.00    -0.026 C 
ATOM     70  H25 E12 d           2.731  58.723  69.812  0.00  0.00     0.033 H 
ATOM     71  H26 E12 d           4.125  58.353  70.884  0.00  0.00     0.033 H 
ATOM     72  C31 E12 d           1.634  60.690  71.568  0.00  0.00     0.020 A 
ATOM     73  H20 E12 d           1.884  58.599  72.085  0.00  0.00     0.042 H 
ATOM     74  H21 E12 d           3.187  59.676  72.692  0.00  0.00     0.042 H 
ATOM     75  C32 E12 d           1.895  61.626  70.568  0.00  0.00    -0.005 A 
ATOM     76  N30 E12 d           0.538  60.858  72.364  0.00  0.00    -0.327 N 
ATOM     77  C33 E12 d           0.961  62.770  70.415  0.00  0.00    -0.068 A 
ATOM     78  C34 E12 d          -0.129  62.922  71.217  0.00  0.00    -0.017 A 
ATOM     79  H18 E12 d           1.155  63.509  69.638  0.00  0.00     0.084 H 
ATOM     80  C29 E12 d          -0.402  61.880  72.283  0.00  0.00     0.245 A 
ATOM     81  H19 E12 d          -0.794  63.776  71.094  0.00  0.00     0.092 H 
ATOM     82  O35 E12 d          -1.417  61.850  72.991  0.00  0.00    -0.268 OA
ATOM     83  H17 E12 d           0.396  60.175  73.080  0.00  0.00     0.169 HD
ATOM     84  H22 E12 d           2.668  61.086  68.688  0.00  0.00     0.092 H 
ENDBRANCH  61  64
ENDBRANCH  58  61
ENDBRANCH  55  58
ENDBRANCH  52  55
ENDBRANCH  49  52
ENDBRANCH  46  49
ENDBRANCH  43  46
ENDBRANCH   1  43
TORSDOF 15
ENDMDL
MODEL 3
REMARK VINA RESULT:     -10.2      1.998      9.767
REMARK  15 active torsions:
REMARK  status: ('A' for Active; 'I' for Inactive)
REMARK    1  A    between atoms: C10_11  and  N17_7 
REMARK    2  A    between atoms: N17_7  and  C24_8 
REMARK    3  A    between atoms: C24_8  and  C63_13 
REMARK    4  A    between atoms: C63_13  and  C64_28 
REMARK    5  A    between atoms: N40_26  and  C37_23 
REMARK    6  A    between atoms: C41_27  and  N40_26 
REMARK    7  A    between atoms: C72_36  and  C41_27 
REMARK    8  A    between atoms: C64_28  and  C65_29 
REMARK    9  A    between atoms: C65_29  and  C66_30 
REMARK   10  A    between atoms: C66_30  and  C67_31 
REMARK   11  A    between atoms: C67_31  and  C68_32 
REMARK   12  A    between atoms: C68_32  and  C69_33 
REMARK   13  A    between atoms: C69_33  and  C70_34 
REMARK   14  A    between atoms: C70_34  and  C71_35 
REMARK   15  A    between atoms: C71_35  and  C72_36 
ROOT
ATOM      1  C67 E12 d           5.282  64.964  69.018  0.00  0.00    -0.065 C 
ATOM      2  H37 E12 d           6.254  65.473  69.102  0.00  0.00     0.033 H 
ATOM      3  H38 E12 d           5.342  64.182  68.248  0.00  0.00     0.033 H 
ENDROOT
BRANCH   1   4
ATOM      4  C66 E12 d           4.242  65.977  68.595  0.00  0.00    -0.065 C 
ATOM      5  H35 E12 d           4.747  66.856  68.167  0.00  0.00     0.033 H 
ATOM      6  H36 E12 d           3.586  65.526  67.836  0.00  0.00     0.033 H 
BRANCH   4   7
ATOM      7  C65 E12 d           3.408  66.412  69.774  0.00  0.00    -0.065 C 
ATOM      8  H33 E12 d           3.107  65.520  70.345  0.00  0.00     0.033 H 
ATOM      9  H34 E12 d           4.013  67.071  70.414  0.00  0.00     0.033 H 
BRANCH   7  10
ATOM     10  C64 E12 d           2.157  67.161  69.337  0.00  0.00    -0.064 C 
ATOM     11  H31 E12 d           1.480  66.467  68.818  0.00  0.00     0.033 H 
ATOM     12  H32 E12 d           1.652  67.572  70.223  0.00  0.00     0.033 H 
BRANCH  10  13
ATOM     13  C63 E12 d           2.525  68.291  68.405  0.00  0.00    -0.043 C 
ATOM     14  H15 E12 d           2.234  69.246  68.865  0.00  0.00     0.035 H 
ATOM     15  H16 E12 d           3.612  68.280  68.238  0.00  0.00     0.035 H 
BRANCH  13  16
ATOM     16  C24 E12 d           1.807  68.146  67.050  0.00  0.00     0.083 C 
ATOM     17  H7  E12 d           1.161  67.255  67.047  0.00  0.00     0.075 H 
ATOM     18  H8  E12 d           1.201  69.039  66.835  0.00  0.00     0.075 H 
BRANCH  16  19
ATOM     19  N17 E12 d           2.938  67.998  66.021  0.00  0.00    -0.067 N 
ATOM     20  H5  E12 d           3.361  68.908  65.929  0.00  0.00     0.277 HD
ATOM     21  H6  E12 d           3.605  67.357  66.421  0.00  0.00     0.277 HD
BRANCH  19  22
ATOM     22  C10 E12 d           2.667  67.511  64.618  0.00  0.00     0.129 C 
ATOM     23  C4  E12 d           3.370  66.158  64.378  0.00  0.00    -0.005 A 
ATOM     24  C3  E12 d           4.279  65.984  63.351  0.00  0.00     0.020 A 
ATOM     25  C5  E12 d           3.015  64.957  65.189  0.00  0.00    -0.068 A 
ATOM     26  N2  E12 d           4.847  64.757  63.146  0.00  0.00    -0.327 N 
ATOM     27  C9  E12 d           4.705  67.110  62.401  0.00  0.00    -0.026 C 
ATOM     28  C1  E12 d           4.601  63.586  63.844  0.00  0.00     0.245 A 
ATOM     29  H1  E12 d           5.518  64.698  62.407  0.00  0.00     0.169 HD
ATOM     30  C6  E12 d           3.589  63.727  64.960  0.00  0.00    -0.017 A 
ATOM     31  O7  E12 d           5.214  62.536  63.569  0.00  0.00    -0.268 OA
ATOM     32  H9  E12 d           3.320  62.869  65.573  0.00  0.00     0.092 H 
ATOM     33  C14 E12 d           4.497  68.491  63.049  0.00  0.00    -0.058 C 
ATOM     34  H10 E12 d           4.104  67.051  61.481  0.00  0.00     0.042 H 
ATOM     35  H11 E12 d           5.769  66.987  62.152  0.00  0.00     0.042 H 
ATOM     36  C13 E12 d           3.042  68.625  63.603  0.00  0.00    -0.034 C 
ATOM     37  H3  E12 d           5.212  68.614  63.876  0.00  0.00     0.033 H 
ATOM     38  H4  E12 d           4.671  69.274  62.296  0.00  0.00     0.033 H 
ATOM     39  H13 E12 d           2.947  69.600  64.103  0.00  0.00     0.036 H 
ATOM     40  H14 E12 d           2.340  68.577  62.757  0.00  0.00     0.036 H 
ATOM     41  H2  E12 d           2.279  65.056  65.986  0.00  0.00     0.084 H 
ATOM     42  H12 E12 d           1.585  67.334  64.521  0.00  0.00     0.092 H 
ENDBRANCH  19  22
ENDBRANCH  16  19
ENDBRANCH  13  16
ENDBRANCH  10  13
ENDBRANCH   7  10
ENDBRANCH   4   7
ENDBRANCH   1   4
BRANCH   1  43
ATOM     43  C68 E12 d           4.965  64.310  70.347  0.00  0.00    -0.065 C 
ATOM     44  H39 E12 d           4.194  64.907  70.854  0.00  0.00     0.033 H 
ATOM     45  H40 E12 d           5.881  64.298  70.957  0.00  0.00     0.033 H 
BRANCH  43  46
ATOM     46  C69 E12 d           4.458  62.884  70.213  0.00  0.00    -0.065 C 
ATOM     47  H41 E12 d           4.893  62.429  69.311  0.00  0.00     0.033 H 
ATOM     48  H42 E12 d           3.362  62.897  70.124  0.00  0.00     0.033 H 
BRANCH  46  49
ATOM     49  C70 E12 d           4.848  62.057  71.426  0.00  0.00    -0.065 C 
ATOM     50  H43 E12 d           3.984  62.006  72.104  0.00  0.00     0.033 H 
ATOM     51  H44 E12 d           5.685  62.560  71.934  0.00  0.00     0.033 H 
BRANCH  49  52
ATOM     52  C71 E12 d           5.278  60.632  71.088  0.00  0.00    -0.064 C 
ATOM     53  H45 E12 d           6.301  60.478  71.462  0.00  0.00     0.033 H 
ATOM     54  H46 E12 d           5.266  60.513  69.994  0.00  0.00     0.033 H 
BRANCH  52  55
ATOM     55  C72 E12 d           4.364  59.557  71.706  0.00  0.00    -0.043 C 
ATOM     56  H47 E12 d           4.972  58.913  72.358  0.00  0.00     0.035 H 
ATOM     57  H48 E12 d           3.935  58.953  70.893  0.00  0.00     0.035 H 
BRANCH  55  58
ATOM     58  C41 E12 d           3.216  60.144  72.536  0.00  0.00     0.083 C 
ATOM     59  H29 E12 d           3.260  61.243  72.521  0.00  0.00     0.075 H 
ATOM     60  H30 E12 d           3.277  59.788  73.574  0.00  0.00     0.075 H 
BRANCH  58  61
ATOM     61  N40 E12 d           1.958  59.673  71.904  0.00  0.00    -0.067 N 
ATOM     62  H27 E12 d           1.896  58.682  72.077  0.00  0.00     0.277 HD
ATOM     63  H28 E12 d           2.048  59.836  70.913  0.00  0.00     0.277 HD
BRANCH  61  64
ATOM     64  C37 E12 d           0.638  60.281  72.336  0.00  0.00     0.129 C 
ATOM     65  C38 E12 d           0.360  59.809  73.778  0.00  0.00    -0.034 C 
ATOM     66  C39 E12 d          -0.865  60.524  74.360  0.00  0.00    -0.058 C 
ATOM     67  H23 E12 d           1.237  60.030  74.405  0.00  0.00     0.036 H 
ATOM     68  H24 E12 d           0.175  58.725  73.774  0.00  0.00     0.036 H 
ATOM     69  C36 E12 d          -0.606  62.040  74.443  0.00  0.00    -0.026 C 
ATOM     70  H25 E12 d          -1.735  60.339  73.712  0.00  0.00     0.033 H 
ATOM     71  H26 E12 d          -1.069  60.134  75.368  0.00  0.00     0.033 H 
ATOM     72  C31 E12 d          -0.079  62.584  73.099  0.00  0.00     0.020 A 
ATOM     73  H20 E12 d          -1.545  62.552  74.696  0.00  0.00     0.042 H 
ATOM     74  H21 E12 d           0.140  62.235  75.227  0.00  0.00     0.042 H 
ATOM     75  C32 E12 d           0.519  61.787  72.123  0.00  0.00    -0.005 A 
ATOM     76  N30 E12 d          -0.209  63.923  72.872  0.00  0.00    -0.327 N 
ATOM     77  C33 E12 d           0.988  62.438  70.874  0.00  0.00    -0.068 A 
ATOM     78  C34 E12 d           0.849  63.777  70.664  0.00  0.00    -0.017 A 
ATOM     79  H18 E12 d           1.458  61.827  70.104  0.00  0.00     0.084 H 
ATOM     80  C29 E12 d           0.178  64.618  71.731  0.00  0.00     0.245 A 
ATOM     81  H19 E12 d           1.213  64.235  69.745  0.00  0.00     0.092 H 
ATOM     82  O35 E12 d          -0.105  65.817  71.604  0.00  0.00    -0.268 OA
ATOM     83  H17 E12 d          -0.627  64.462  73.604  0.00  0.00     0.169 HD
ATOM     84  H22 E12 d          -0.139  59.835  71.699  0.00  0.00     0.092 H 
ENDBRANCH  61  64
ENDBRANCH  58  61
ENDBRANCH  55  58
ENDBRANCH  52  55
ENDBRANCH  49  52
ENDBRANCH  46  49
ENDBRANCH  43  46
ENDBRANCH   1  43
TORSDOF 15
ENDMDL
MODEL 4
REMARK VINA RESULT:     -10.2      0.580      9.719
REMARK  15 active torsions:
REMARK  status: ('A' for Active; 'I' for Inactive)
REMARK    1  A    between atoms: C10_11  and  N17_7 
REMARK    2  A    between atoms: N17_7  and  C24_8 
REMARK    3  A    between atoms: C24_8  and  C63_13 
REMARK    4  A    between atoms: C63_13  and  C64_28 
REMARK    5  A    between atoms: N40_26  and  C37_23 
REMARK    6  A    between atoms: C41_27  and  N40_26 
REMARK    7  A    between atoms: C72_36  and  C41_27 
REMARK    8  A    between atoms: C64_28  and  C65_29 
REMARK    9  A    between atoms: C65_29  and  C66_30 
REMARK   10  A    between atoms: C66_30  and  C67_31 
REMARK   11  A    between atoms: C67_31  and  C68_32 
REMARK   12  A    between atoms: C68_32  and  C69_33 
REMARK   13  A    between atoms: C69_33  and  C70_34 
REMARK   14  A    between atoms: C70_34  and  C71_35 
REMARK   15  A    between atoms: C71_35  and  C72_36 
ROOT
ATOM      1  C67 E12 d           5.120  64.392  69.994  0.00  0.00    -0.065 C 
ATOM      2  H37 E12 d           5.201  64.888  70.973  0.00  0.00     0.033 H 
ATOM      3  H38 E12 d           6.127  64.202  69.595  0.00  0.00     0.033 H 
ENDROOT
BRANCH   1   4
ATOM      4  C66 E12 d           4.393  65.317  69.044  0.00  0.00    -0.065 C 
ATOM      5  H35 E12 d           5.129  65.888  68.460  0.00  0.00     0.033 H 
ATOM      6  H36 E12 d           3.770  64.718  68.364  0.00  0.00     0.033 H 
BRANCH   4   7
ATOM      7  C65 E12 d           3.512  66.278  69.803  0.00  0.00    -0.065 C 
ATOM      8  H33 E12 d           3.114  65.769  70.694  0.00  0.00     0.033 H 
ATOM      9  H34 E12 d           4.115  67.143  70.114  0.00  0.00     0.033 H 
BRANCH   7  10
ATOM     10  C64 E12 d           2.347  66.769  68.955  0.00  0.00    -0.064 C 
ATOM     11  H31 E12 d           2.351  66.238  67.991  0.00  0.00     0.033 H 
ATOM     12  H32 E12 d           1.404  66.565  69.482  0.00  0.00     0.033 H 
BRANCH  10  13
ATOM     13  C63 E12 d           2.470  68.253  68.708  0.00  0.00    -0.043 C 
ATOM     14  H15 E12 d           1.770  68.787  69.367  0.00  0.00     0.035 H 
ATOM     15  H16 E12 d           3.499  68.571  68.932  0.00  0.00     0.035 H 
BRANCH  13  16
ATOM     16  C24 E12 d           2.145  68.599  67.243  0.00  0.00     0.083 C 
ATOM     17  H7  E12 d           1.094  68.367  67.015  0.00  0.00     0.075 H 
ATOM     18  H8  E12 d           2.337  69.664  67.044  0.00  0.00     0.075 H 
BRANCH  16  19
ATOM     19  N17 E12 d           3.088  67.714  66.413  0.00  0.00    -0.067 N 
ATOM     20  H5  E12 d           3.978  68.186  66.393  0.00  0.00     0.277 HD
ATOM     21  H6  E12 d           3.179  66.845  66.917  0.00  0.00     0.277 HD
BRANCH  19  22
ATOM     22  C10 E12 d           2.768  67.347  64.984  0.00  0.00     0.129 C 
ATOM     23  C4  E12 d           3.439  66.006  64.615  0.00  0.00    -0.005 A 
ATOM     24  C3  E12 d           4.315  65.902  63.550  0.00  0.00     0.020 A 
ATOM     25  C5  E12 d           3.086  64.749  65.337  0.00  0.00    -0.068 A 
ATOM     26  N2  E12 d           4.855  64.688  63.231  0.00  0.00    -0.327 N 
ATOM     27  C9  E12 d           4.734  67.095  62.682  0.00  0.00    -0.026 C 
ATOM     28  C1  E12 d           4.608  63.468  63.839  0.00  0.00     0.245 A 
ATOM     29  H1  E12 d           5.504  64.679  62.470  0.00  0.00     0.169 HD
ATOM     30  C6  E12 d           3.632  63.534  64.992  0.00  0.00    -0.017 A 
ATOM     31  O7  E12 d           5.195  62.434  63.462  0.00  0.00    -0.268 OA
ATOM     32  H9  E12 d           3.365  62.632  65.542  0.00  0.00     0.092 H 
ATOM     33  C14 E12 d           4.570  68.422  63.445  0.00  0.00    -0.058 C 
ATOM     34  H10 E12 d           4.106  67.120  61.779  0.00  0.00     0.042 H 
ATOM     35  H11 E12 d           5.788  66.976  62.392  0.00  0.00     0.042 H 
ATOM     36  C13 E12 d           3.134  68.533  64.051  0.00  0.00    -0.034 C 
ATOM     37  H3  E12 d           5.310  68.466  64.257  0.00  0.00     0.033 H 
ATOM     38  H4  E12 d           4.736  69.260  62.753  0.00  0.00     0.033 H 
ATOM     39  H13 E12 d           3.070  69.466  64.631  0.00  0.00     0.036 H 
ATOM     40  H14 E12 d           2.407  68.565  63.226  0.00  0.00     0.036 H 
ATOM     41  H2  E12 d           2.375  64.795  66.161  0.00  0.00     0.084 H 
ATOM     42  H12 E12 d           1.681  67.195  64.906  0.00  0.00     0.092 H 
ENDBRANCH  19  22
ENDBRANCH  16  19
ENDBRANCH  13  16
ENDBRANCH  10  13
ENDBRANCH   7  10
ENDBRANCH   4   7
ENDBRANCH   1   4
BRANCH   1  43
ATOM     43  C68 E12 d           4.418  63.064  70.183  0.00  0.00    -0.065 C 
ATOM     44  H39 E12 d           3.902  63.079  71.154  0.00  0.00     0.033 H 
ATOM     45  H40 E12 d           5.174  62.266  70.181  0.00  0.00     0.033 H 
BRANCH  43  46
ATOM     46  C69 E12 d           3.396  62.761  69.100  0.00  0.00    -0.065 C 
ATOM     47  H41 E12 d           3.900  62.266  68.257  0.00  0.00     0.033 H 
ATOM     48  H42 E12 d           2.945  63.703  68.756  0.00  0.00     0.033 H 
BRANCH  46  49
ATOM     49  C70 E12 d           2.302  61.850  69.631  0.00  0.00    -0.065 C 
ATOM     50  H43 E12 d           2.761  61.118  70.312  0.00  0.00     0.033 H 
ATOM     51  H44 E12 d           1.845  61.324  68.779  0.00  0.00     0.033 H 
BRANCH  49  52
ATOM     52  C71 E12 d           1.200  62.586  70.387  0.00  0.00    -0.064 C 
ATOM     53  H45 E12 d           0.417  61.861  70.655  0.00  0.00     0.033 H 
ATOM     54  H46 E12 d           0.776  63.357  69.726  0.00  0.00     0.033 H 
BRANCH  52  55
ATOM     55  C72 E12 d           1.697  63.268  71.676  0.00  0.00    -0.043 C 
ATOM     56  H47 E12 d           1.559  64.354  71.573  0.00  0.00     0.035 H 
ATOM     57  H48 E12 d           2.767  63.044  71.800  0.00  0.00     0.035 H 
BRANCH  55  58
ATOM     58  C41 E12 d           0.953  62.800  72.933  0.00  0.00     0.083 C 
ATOM     59  H29 E12 d           0.216  62.026  72.672  0.00  0.00     0.075 H 
ATOM     60  H30 E12 d           0.440  63.649  73.409  0.00  0.00     0.075 H 
BRANCH  58  61
ATOM     61  N40 E12 d           1.982  62.243  73.846  0.00  0.00    -0.067 N 
ATOM     62  H27 E12 d           1.915  62.755  74.711  0.00  0.00     0.277 HD
ATOM     63  H28 E12 d           2.878  62.416  73.420  0.00  0.00     0.277 HD
BRANCH  61  64
ATOM     64  C37 E12 d           1.938  60.769  74.201  0.00  0.00     0.129 C 
ATOM     65  C38 E12 d           0.499  60.443  74.653  0.00  0.00    -0.034 C 
ATOM     66  C39 E12 d           0.320  58.934  74.856  0.00  0.00    -0.058 C 
ATOM     67  H23 E12 d          -0.208  60.790  73.884  0.00  0.00     0.036 H 
ATOM     68  H24 E12 d           0.293  60.961  75.601  0.00  0.00     0.036 H 
ATOM     69  C36 E12 d           0.533  58.189  73.525  0.00  0.00    -0.026 C 
ATOM     70  H25 E12 d           1.054  58.577  75.594  0.00  0.00     0.033 H 
ATOM     71  H26 E12 d          -0.697  58.735  75.225  0.00  0.00     0.033 H 
ATOM     72  C31 E12 d           1.851  58.630  72.852  0.00  0.00     0.020 A 
ATOM     73  H20 E12 d           0.573  57.108  73.720  0.00  0.00     0.042 H 
ATOM     74  H21 E12 d          -0.307  58.410  72.850  0.00  0.00     0.042 H 
ATOM     75  C32 E12 d           2.501  59.830  73.138  0.00  0.00    -0.005 A 
ATOM     76  N30 E12 d           2.391  57.788  71.925  0.00  0.00    -0.327 N 
ATOM     77  C33 E12 d           3.760  60.136  72.414  0.00  0.00    -0.068 A 
ATOM     78  C34 E12 d           4.287  59.283  71.492  0.00  0.00    -0.017 A 
ATOM     79  H18 E12 d           4.278  61.071  72.626  0.00  0.00     0.084 H 
ATOM     80  C29 E12 d           3.571  57.977  71.213  0.00  0.00     0.245 A 
ATOM     81  H19 E12 d           5.205  59.535  70.963  0.00  0.00     0.092 H 
ATOM     82  O35 E12 d           4.011  57.077  70.486  0.00  0.00    -0.268 OA
ATOM     83  H17 E12 d           1.884  56.946  71.736  0.00  0.00     0.169 HD
ATOM     84  H22 E12 d           2.586  60.635  75.079  0.00  0.00     0.092 H 
ENDBRANCH  61  64
ENDBRANCH  58  61
ENDBRANCH  55  58
ENDBRANCH  52  55
ENDBRANCH  49  52
ENDBRANCH  46  49
ENDBRANCH  43  46
ENDBRANCH   1  43
TORSDOF 15
ENDMDL
MODEL 5
REMARK VINA RESULT:     -10.0      1.961      3.176
REMARK  15 active torsions:
REMARK  status: ('A' for Active; 'I' for Inactive)
REMARK    1  A    between atoms: C10_11  and  N17_7 
REMARK    2  A    between atoms: N17_7  and  C24_8 
REMARK    3  A    between atoms: C24_8  and  C63_13 
REMARK    4  A    between atoms: C63_13  and  C64_28 
REMARK    5  A    between atoms: N40_26  and  C37_23 
REMARK    6  A    between atoms: C41_27  and  N40_26 
REMARK    7  A    between atoms: C72_36  and  C41_27 
REMARK    8  A    between atoms: C64_28  and  C65_29 
REMARK    9  A    between atoms: C65_29  and  C66_30 
REMARK   10  A    between atoms: C66_30  and  C67_31 
REMARK   11  A    between atoms: C67_31  and  C68_32 
REMARK   12  A    between atoms: C68_32  and  C69_33 
REMARK   13  A    between atoms: C69_33  and  C70_34 
REMARK   14  A    between atoms: C70_34  and  C71_35 
REMARK   15  A    between atoms: C71_35  and  C72_36 
ROOT
ATOM      1  C67 E12 d           5.007  64.328  70.158  0.00  0.00    -0.065 C 
ATOM      2  H37 E12 d           6.079  64.147  70.332  0.00  0.00     0.033 H 
ATOM      3  H38 E12 d           4.623  65.021  70.921  0.00  0.00     0.033 H 
ENDROOT
BRANCH   1   4
ATOM      4  C66 E12 d           4.270  63.014  70.285  0.00  0.00    -0.065 C 
ATOM      5  H35 E12 d           3.239  63.209  70.617  0.00  0.00     0.033 H 
ATOM      6  H36 E12 d           4.251  62.515  69.306  0.00  0.00     0.033 H 
BRANCH   4   7
ATOM      7  C65 E12 d           4.950  62.114  71.286  0.00  0.00    -0.065 C 
ATOM      8  H33 E12 d           6.032  62.109  71.083  0.00  0.00     0.033 H 
ATOM      9  H34 E12 d           4.769  62.506  72.298  0.00  0.00     0.033 H 
BRANCH   7  10
ATOM     10  C64 E12 d           4.428  60.687  71.210  0.00  0.00    -0.064 C 
ATOM     11  H31 E12 d           3.427  60.689  70.753  0.00  0.00     0.033 H 
ATOM     12  H32 E12 d           5.110  60.083  70.595  0.00  0.00     0.033 H 
BRANCH  10  13
ATOM     13  C63 E12 d           4.343  60.088  72.594  0.00  0.00    -0.043 C 
ATOM     14  H15 E12 d           4.377  58.991  72.514  0.00  0.00     0.035 H 
ATOM     15  H16 E12 d           5.198  60.438  73.190  0.00  0.00     0.035 H 
BRANCH  13  16
ATOM     16  C24 E12 d           3.036  60.501  73.296  0.00  0.00     0.083 C 
ATOM     17  H7  E12 d           3.068  60.232  74.362  0.00  0.00     0.075 H 
ATOM     18  H8  E12 d           2.867  61.583  73.196  0.00  0.00     0.075 H 
BRANCH  16  19
ATOM     19  N17 E12 d           1.936  59.711  72.571  0.00  0.00    -0.067 N 
ATOM     20  H5  E12 d           2.196  59.688  71.597  0.00  0.00     0.277 HD
ATOM     21  H6  E12 d           1.961  58.776  72.947  0.00  0.00     0.277 HD
BRANCH  19  22
ATOM     22  C10 E12 d           0.492  60.149  72.616  0.00  0.00     0.129 C 
ATOM     23  C4  E12 d           0.387  61.667  72.352  0.00  0.00    -0.005 A 
ATOM     24  C3  E12 d          -0.211  62.522  73.260  0.00  0.00     0.020 A 
ATOM     25  C5  E12 d           0.841  62.251  71.057  0.00  0.00    -0.068 A 
ATOM     26  N2  E12 d          -0.322  63.852  72.969  0.00  0.00    -0.327 N 
ATOM     27  C9  E12 d          -0.773  62.060  74.611  0.00  0.00    -0.026 C 
ATOM     28  C1  E12 d           0.076  64.499  71.810  0.00  0.00     0.245 A 
ATOM     29  H1  E12 d          -0.737  64.426  73.675  0.00  0.00     0.169 HD
ATOM     30  C6  E12 d           0.710  63.593  70.778  0.00  0.00    -0.017 A 
ATOM     31  O7  E12 d          -0.059  65.732  71.686  0.00  0.00    -0.268 OA
ATOM     32  H9  E12 d           1.059  63.997  69.829  0.00  0.00     0.092 H 
ATOM     33  C14 E12 d          -0.098  60.757  75.077  0.00  0.00    -0.058 C 
ATOM     34  H10 E12 d          -1.855  61.888  74.510  0.00  0.00     0.042 H 
ATOM     35  H11 E12 d          -0.595  62.845  75.360  0.00  0.00     0.042 H 
ATOM     36  C13 E12 d          -0.151  59.677  73.949  0.00  0.00    -0.034 C 
ATOM     37  H3  E12 d           0.952  60.965  75.330  0.00  0.00     0.033 H 
ATOM     38  H4  E12 d          -0.621  60.377  75.967  0.00  0.00     0.033 H 
ATOM     39  H13 E12 d           0.385  58.781  74.297  0.00  0.00     0.036 H 
ATOM     40  H14 E12 d          -1.204  59.423  73.757  0.00  0.00     0.036 H 
ATOM     41  H2  E12 d           1.289  61.598  70.310  0.00  0.00     0.084 H 
ATOM     42  H12 E12 d          -0.044  59.642  71.800  0.00  0.00     0.092 H 
ENDBRANCH  19  22
ENDBRANCH  16  19
ENDBRANCH  13  16
ENDBRANCH  10  13
ENDBRANCH   7  10
ENDBRANCH   4   7
ENDBRANCH   1   4
BRANCH   1  43
ATOM     43  C68 E12 d           4.843  64.970  68.796  0.00  0.00    -0.065 C 
ATOM     44  H39 E12 d           4.217  64.314  68.175  0.00  0.00     0.033 H 
ATOM     45  H40 E12 d           5.837  65.073  68.337  0.00  0.00     0.033 H 
BRANCH  43  46
ATOM     46  C69 E12 d           4.194  66.343  68.849  0.00  0.00    -0.065 C 
ATOM     47  H41 E12 d           3.910  66.648  67.831  0.00  0.00     0.033 H 
ATOM     48  H42 E12 d           4.913  67.067  69.260  0.00  0.00     0.033 H 
BRANCH  46  49
ATOM     49  C70 E12 d           2.955  66.321  69.727  0.00  0.00    -0.065 C 
ATOM     50  H43 E12 d           3.256  66.561  70.758  0.00  0.00     0.033 H 
ATOM     51  H44 E12 d           2.526  65.308  69.696  0.00  0.00     0.033 H 
BRANCH  49  52
ATOM     52  C71 E12 d           1.877  67.312  69.298  0.00  0.00    -0.064 C 
ATOM     53  H45 E12 d           1.417  67.741  70.201  0.00  0.00     0.033 H 
ATOM     54  H46 E12 d           1.114  66.770  68.720  0.00  0.00     0.033 H 
BRANCH  52  55
ATOM     55  C72 E12 d           2.419  68.464  68.431  0.00  0.00    -0.043 C 
ATOM     56  H47 E12 d           3.516  68.467  68.498  0.00  0.00     0.035 H 
ATOM     57  H48 E12 d           2.025  69.413  68.824  0.00  0.00     0.035 H 
BRANCH  55  58
ATOM     58  C41 E12 d           2.022  68.348  66.954  0.00  0.00     0.083 C 
ATOM     59  H29 E12 d           1.424  69.219  66.652  0.00  0.00     0.075 H 
ATOM     60  H30 E12 d           1.441  67.428  66.789  0.00  0.00     0.075 H 
BRANCH  58  61
ATOM     61  N40 E12 d           3.289  68.301  66.182  0.00  0.00    -0.067 N 
ATOM     62  H27 E12 d           3.906  67.669  66.667  0.00  0.00     0.277 HD
ATOM     63  H28 E12 d           3.677  69.231  66.199  0.00  0.00     0.277 HD
BRANCH  61  64
ATOM     64  C37 E12 d           3.257  67.861  64.731  0.00  0.00     0.129 C 
ATOM     65  C38 E12 d           4.024  68.917  63.909  0.00  0.00    -0.034 C 
ATOM     66  C39 E12 d           4.198  68.458  62.456  0.00  0.00    -0.058 C 
ATOM     67  H23 E12 d           5.016  69.074  64.358  0.00  0.00     0.036 H 
ATOM     68  H24 E12 d           3.462  69.863  63.922  0.00  0.00     0.036 H 
ATOM     69  C36 E12 d           5.043  67.172  62.404  0.00  0.00    -0.026 C 
ATOM     70  H25 E12 d           3.209  68.260  62.017  0.00  0.00     0.033 H 
ATOM     71  H26 E12 d           4.703  69.249  61.883  0.00  0.00     0.033 H 
ATOM     72  C31 E12 d           4.501  66.114  63.388  0.00  0.00     0.020 A 
ATOM     73  H20 E12 d           5.013  66.763  61.384  0.00  0.00     0.042 H 
ATOM     74  H21 E12 d           6.083  67.413  62.671  0.00  0.00     0.042 H 
ATOM     75  C32 E12 d           3.692  66.419  64.482  0.00  0.00    -0.005 A 
ATOM     76  N30 E12 d           4.847  64.814  63.162  0.00  0.00    -0.327 N 
ATOM     77  C33 E12 d           3.241  65.307  65.356  0.00  0.00    -0.068 A 
ATOM     78  C34 E12 d           3.596  64.014  65.115  0.00  0.00    -0.017 A 
ATOM     79  H18 E12 d           2.610  65.532  66.214  0.00  0.00     0.084 H 
ATOM     80  C29 E12 d           4.460  63.706  63.909  0.00  0.00     0.245 A 
ATOM     81  H19 E12 d           3.264  63.215  65.777  0.00  0.00     0.092 H 
ATOM     82  O35 E12 d           4.749  62.564  63.525  0.00  0.00    -0.268 OA
ATOM     83  H17 E12 d           5.443  64.639  62.378  0.00  0.00     0.169 HD
ATOM     84  H22 E12 d           2.206  67.908  64.409  0.00  0.00     0.092 H 
ENDBRANCH  61  64
ENDBRANCH  58  61
ENDBRANCH  55  58
ENDBRANCH  52  55
ENDBRANCH  49  52
ENDBRANCH  46  49
ENDBRANCH  43  46
ENDBRANCH   1  43
TORSDOF 15
ENDMDL
MODEL 6
REMARK VINA RESULT:     -10.0      1.837      9.383
REMARK  15 active torsions:
REMARK  status: ('A' for Active; 'I' for Inactive)
REMARK    1  A    between atoms: C10_11  and  N17_7 
REMARK    2  A    between atoms: N17_7  and  C24_8 
REMARK    3  A    between atoms: C24_8  and  C63_13 
REMARK    4  A    between atoms: C63_13  and  C64_28 
REMARK    5  A    between atoms: N40_26  and  C37_23 
REMARK    6  A    between atoms: C41_27  and  N40_26 
REMARK    7  A    between atoms: C72_36  and  C41_27 
REMARK    8  A    between atoms: C64_28  and  C65_29 
REMARK    9  A    between atoms: C65_29  and  C66_30 
REMARK   10  A    between atoms: C66_30  and  C67_31 
REMARK   11  A    between atoms: C67_31  and  C68_32 
REMARK   12  A    between atoms: C68_32  and  C69_33 
REMARK   13  A    between atoms: C69_33  and  C70_34 
REMARK   14  A    between atoms: C70_34  and  C71_35 
REMARK   15  A    between atoms: C71_35  and  C72_36 
ROOT
ATOM      1  C67 E12 d          -0.069  67.923  66.176  0.00  0.00    -0.065 C 
ATOM      2  H37 E12 d          -0.836  67.154  65.999  0.00  0.00     0.033 H 
ATOM      3  H38 E12 d          -0.513  68.920  66.044  0.00  0.00     0.033 H 
ENDROOT
BRANCH   1   4
ATOM      4  C66 E12 d           1.034  67.748  65.156  0.00  0.00    -0.065 C 
ATOM      5  H35 E12 d           1.871  68.414  65.411  0.00  0.00     0.033 H 
ATOM      6  H36 E12 d           1.378  66.704  65.173  0.00  0.00     0.033 H 
BRANCH   4   7
ATOM      7  C65 E12 d           0.539  68.083  63.771  0.00  0.00    -0.065 C 
ATOM      8  H33 E12 d           0.365  67.147  63.219  0.00  0.00     0.033 H 
ATOM      9  H34 E12 d          -0.405  68.641  63.856  0.00  0.00     0.033 H 
BRANCH   7  10
ATOM     10  C64 E12 d           1.544  68.929  63.001  0.00  0.00    -0.064 C 
ATOM     11  H31 E12 d           1.094  69.906  62.769  0.00  0.00     0.033 H 
ATOM     12  H32 E12 d           2.442  69.077  63.618  0.00  0.00     0.033 H 
BRANCH  10  13
ATOM     13  C63 E12 d           1.930  68.239  61.715  0.00  0.00    -0.043 C 
ATOM     14  H15 E12 d           1.819  67.152  61.842  0.00  0.00     0.035 H 
ATOM     15  H16 E12 d           1.266  68.583  60.909  0.00  0.00     0.035 H 
BRANCH  13  16
ATOM     16  C24 E12 d           3.389  68.553  61.335  0.00  0.00     0.083 C 
ATOM     17  H7  E12 d           3.461  68.833  60.274  0.00  0.00     0.075 H 
ATOM     18  H8  E12 d           3.784  69.370  61.957  0.00  0.00     0.075 H 
BRANCH  16  19
ATOM     19  N17 E12 d           4.154  67.248  61.605  0.00  0.00    -0.067 N 
ATOM     20  H5  E12 d           3.457  66.534  61.746  0.00  0.00     0.277 HD
ATOM     21  H6  E12 d           4.676  67.046  60.767  0.00  0.00     0.277 HD
BRANCH  19  22
ATOM     22  C10 E12 d           5.126  67.128  62.754  0.00  0.00     0.129 C 
ATOM     23  C4  E12 d           4.592  66.129  63.802  0.00  0.00    -0.005 A 
ATOM     24  C3  E12 d           4.395  66.496  65.121  0.00  0.00     0.020 A 
ATOM     25  C5  E12 d           4.363  64.698  63.448  0.00  0.00    -0.068 A 
ATOM     26  N2  E12 d           3.961  65.569  66.026  0.00  0.00    -0.327 N 
ATOM     27  C9  E12 d           4.637  67.916  65.646  0.00  0.00    -0.026 C 
ATOM     28  C1  E12 d           3.706  64.225  65.803  0.00  0.00     0.245 A 
ATOM     29  H1  E12 d           3.809  65.898  66.958  0.00  0.00     0.169 HD
ATOM     30  C6  E12 d           3.937  63.777  64.378  0.00  0.00    -0.017 A 
ATOM     31  O7  E12 d           3.284  63.493  66.720  0.00  0.00    -0.268 OA
ATOM     32  H9  E12 d           3.768  62.740  64.091  0.00  0.00     0.092 H 
ATOM     33  C14 E12 d           4.536  68.953  64.513  0.00  0.00    -0.058 C 
ATOM     34  H10 E12 d           5.641  67.968  66.092  0.00  0.00     0.042 H 
ATOM     35  H11 E12 d           3.884  68.148  66.413  0.00  0.00     0.042 H 
ATOM     36  C13 E12 d           5.445  68.542  63.310  0.00  0.00    -0.034 C 
ATOM     37  H3  E12 d           3.492  69.015  64.172  0.00  0.00     0.033 H 
ATOM     38  H4  E12 d           4.857  69.935  64.891  0.00  0.00     0.033 H 
ATOM     39  H13 E12 d           5.308  69.276  62.502  0.00  0.00     0.036 H 
ATOM     40  H14 E12 d           6.493  68.557  63.644  0.00  0.00     0.036 H 
ATOM     41  H2  E12 d           4.538  64.372  62.423  0.00  0.00     0.084 H 
ATOM     42  H12 E12 d           6.067  66.713  62.362  0.00  0.00     0.092 H 
ENDBRANCH  19  22
ENDBRANCH  16  19
ENDBRANCH  13  16
ENDBRANCH  10  13
ENDBRANCH   7  10
ENDBRANCH   4   7
ENDBRANCH   1   4
BRANCH   1  43
ATOM     43  C68 E12 d           0.419  67.797  67.604  0.00  0.00    -0.065 C 
ATOM     44  H39 E12 d           0.772  66.768  67.761  0.00  0.00     0.033 H 
ATOM     45  H40 E12 d          -0.424  68.003  68.280  0.00  0.00     0.033 H 
BRANCH  43  46
ATOM     46  C69 E12 d           1.551  68.752  67.943  0.00  0.00    -0.065 C 
ATOM     47  H41 E12 d           1.131  69.739  68.186  0.00  0.00     0.033 H 
ATOM     48  H42 E12 d           2.219  68.843  67.073  0.00  0.00     0.033 H 
BRANCH  46  49
ATOM     49  C70 E12 d           2.349  68.243  69.131  0.00  0.00    -0.065 C 
ATOM     50  H43 E12 d           1.834  68.553  70.052  0.00  0.00     0.033 H 
ATOM     51  H44 E12 d           3.350  68.698  69.097  0.00  0.00     0.033 H 
BRANCH  49  52
ATOM     52  C71 E12 d           2.512  66.726  69.159  0.00  0.00    -0.064 C 
ATOM     53  H45 E12 d           2.032  66.306  68.263  0.00  0.00     0.033 H 
ATOM     54  H46 E12 d           2.012  66.337  70.059  0.00  0.00     0.033 H 
BRANCH  52  55
ATOM     55  C72 E12 d           3.984  66.271  69.183  0.00  0.00    -0.043 C 
ATOM     56  H47 E12 d           4.572  67.018  69.736  0.00  0.00     0.035 H 
ATOM     57  H48 E12 d           4.348  66.212  68.147  0.00  0.00     0.035 H 
BRANCH  55  58
ATOM     58  C41 E12 d           4.184  64.905  69.848  0.00  0.00     0.083 C 
ATOM     59  H29 E12 d           4.493  65.033  70.895  0.00  0.00     0.075 H 
ATOM     60  H30 E12 d           4.948  64.327  69.308  0.00  0.00     0.075 H 
BRANCH  58  61
ATOM     61  N40 E12 d           2.873  64.210  69.782  0.00  0.00    -0.067 N 
ATOM     62  H27 E12 d           2.936  63.534  69.037  0.00  0.00     0.277 HD
ATOM     63  H28 E12 d           2.183  64.906  69.547  0.00  0.00     0.277 HD
BRANCH  61  64
ATOM     64  C37 E12 d           2.361  63.474  71.004  0.00  0.00     0.129 C 
ATOM     65  C38 E12 d           0.829  63.651  71.045  0.00  0.00    -0.034 C 
ATOM     66  C39 E12 d           0.208  62.786  72.148  0.00  0.00    -0.058 C 
ATOM     67  H23 E12 d           0.405  63.355  70.074  0.00  0.00     0.036 H 
ATOM     68  H24 E12 d           0.593  64.708  71.241  0.00  0.00     0.036 H 
ATOM     69  C36 E12 d           0.463  61.295  71.861  0.00  0.00    -0.026 C 
ATOM     70  H25 E12 d           0.660  63.052  73.115  0.00  0.00     0.033 H 
ATOM     71  H26 E12 d          -0.876  62.969  72.187  0.00  0.00     0.033 H 
ATOM     72  C31 E12 d           1.954  61.038  71.558  0.00  0.00     0.020 A 
ATOM     73  H20 E12 d           0.167  60.703  72.739  0.00  0.00     0.042 H 
ATOM     74  H21 E12 d          -0.139  60.988  70.993  0.00  0.00     0.042 H 
ATOM     75  C32 E12 d           2.840  62.031  71.140  0.00  0.00    -0.005 A 
ATOM     76  N30 E12 d           2.412  59.762  71.707  0.00  0.00    -0.327 N 
ATOM     77  C33 E12 d           4.250  61.650  70.876  0.00  0.00    -0.068 A 
ATOM     78  C34 E12 d           4.691  60.370  71.032  0.00  0.00    -0.017 A 
ATOM     79  H18 E12 d           4.952  62.415  70.547  0.00  0.00     0.084 H 
ATOM     80  C29 E12 d           3.714  59.314  71.506  0.00  0.00     0.245 A 
ATOM     81  H19 E12 d           5.728  60.111  70.820  0.00  0.00     0.092 H 
ATOM     82  O35 E12 d           4.023  58.150  71.793  0.00  0.00    -0.268 OA
ATOM     83  H17 E12 d           1.742  59.077  71.992  0.00  0.00     0.169 HD
ATOM     84  H22 E12 d           2.766  63.998  71.882  0.00  0.00     0.092 H 
ENDBRANCH  61  64
ENDBRANCH  58  61
ENDBRANCH  55  58
ENDBRANCH  52  55
ENDBRANCH  49  52
ENDBRANCH  46  49
ENDBRANCH  43  46
ENDBRANCH   1  43
TORSDOF 15
ENDMDL
MODEL 7
REMARK VINA RESULT:      -9.5      2.109      3.650
REMARK  15 active torsions:
REMARK  status: ('A' for Active; 'I' for Inactive)
REMARK    1  A    between atoms: C10_11  and  N17_7 
REMARK    2  A    between atoms: N17_7  and  C24_8 
REMARK    3  A    between atoms: C24_8  and  C63_13 
REMARK    4  A    between atoms: C63_13  and  C64_28 
REMARK    5  A    between atoms: N40_26  and  C37_23 
REMARK    6  A    between atoms: C41_27  and  N40_26 
REMARK    7  A    between atoms: C72_36  and  C41_27 
REMARK    8  A    between atoms: C64_28  and  C65_29 
REMARK    9  A    between atoms: C65_29  and  C66_30 
REMARK   10  A    between atoms: C66_30  and  C67_31 
REMARK   11  A    between atoms: C67_31  and  C68_32 
REMARK   12  A    between atoms: C68_32  and  C69_33 
REMARK   13  A    between atoms: C69_33  and  C70_34 
REMARK   14  A    between atoms: C70_34  and  C71_35 
REMARK   15  A    between atoms: C71_35  and  C72_36 
ROOT
ATOM      1  C67 E12 d           4.335  60.742  69.609  0.00  0.00    -0.065 C 
ATOM      2  H37 E12 d           4.131  59.928  68.899  0.00  0.00     0.033 H 
ATOM      3  H38 E12 d           5.233  61.292  69.290  0.00  0.00     0.033 H 
ENDROOT
BRANCH   1   4
ATOM      4  C66 E12 d           4.598  60.139  70.971  0.00  0.00    -0.065 C 
ATOM      5  H35 E12 d           3.766  59.471  71.237  0.00  0.00     0.033 H 
ATOM      6  H36 E12 d           5.534  59.563  70.936  0.00  0.00     0.033 H 
BRANCH   4   7
ATOM      7  C65 E12 d           4.721  61.218  72.018  0.00  0.00    -0.065 C 
ATOM      8  H33 E12 d           5.717  61.153  72.482  0.00  0.00     0.033 H 
ATOM      9  H34 E12 d           4.604  62.199  71.535  0.00  0.00     0.033 H 
BRANCH   7  10
ATOM     10  C64 E12 d           3.663  61.075  73.104  0.00  0.00    -0.064 C 
ATOM     11  H31 E12 d           4.084  61.399  74.067  0.00  0.00     0.033 H 
ATOM     12  H32 E12 d           2.797  61.704  72.852  0.00  0.00     0.033 H 
BRANCH  10  13
ATOM     13  C63 E12 d           3.219  59.636  73.213  0.00  0.00    -0.043 C 
ATOM     14  H15 E12 d           2.903  59.280  72.221  0.00  0.00     0.035 H 
ATOM     15  H16 E12 d           4.061  59.026  73.570  0.00  0.00     0.035 H 
BRANCH  13  16
ATOM     16  C24 E12 d           2.042  59.494  74.196  0.00  0.00     0.083 C 
ATOM     17  H7  E12 d           2.151  58.582  74.802  0.00  0.00     0.075 H 
ATOM     18  H8  E12 d           1.982  60.370  74.859  0.00  0.00     0.075 H 
BRANCH  16  19
ATOM     19  N17 E12 d           0.795  59.404  73.303  0.00  0.00    -0.067 N 
ATOM     20  H5  E12 d           1.101  59.608  72.365  0.00  0.00     0.277 HD
ATOM     21  H6  E12 d           0.477  58.449  73.353  0.00  0.00     0.277 HD
BRANCH  19  22
ATOM     22  C10 E12 d          -0.416  60.271  73.552  0.00  0.00     0.129 C 
ATOM     23  C4  E12 d          -0.196  61.679  72.959  0.00  0.00    -0.005 A 
ATOM     24  C3  E12 d          -0.277  62.817  73.741  0.00  0.00     0.020 A 
ATOM     25  C5  E12 d           0.015  61.868  71.495  0.00  0.00    -0.068 A 
ATOM     26  N2  E12 d          -0.118  64.048  73.168  0.00  0.00    -0.327 N 
ATOM     27  C9  E12 d          -0.541  62.786  75.252  0.00  0.00    -0.026 C 
ATOM     28  C1  E12 d           0.095  64.334  71.830  0.00  0.00     0.245 A 
ATOM     29  H1  E12 d          -0.158  64.832  73.787  0.00  0.00     0.169 HD
ATOM     30  C6  E12 d           0.163  63.117  70.935  0.00  0.00    -0.017 A 
ATOM     31  O7  E12 d           0.253  65.510  71.444  0.00  0.00    -0.268 OA
ATOM     32  H9  E12 d           0.326  63.227  69.864  0.00  0.00     0.092 H 
ATOM     33  C14 E12 d          -0.122  61.435  75.861  0.00  0.00    -0.058 C 
ATOM     34  H10 E12 d          -1.614  62.944  75.432  0.00  0.00     0.042 H 
ATOM     35  H11 E12 d           0.034  63.590  75.733  0.00  0.00     0.042 H 
ATOM     36  C13 E12 d          -0.763  60.252  75.066  0.00  0.00    -0.034 C 
ATOM     37  H3  E12 d           0.973  61.346  75.823  0.00  0.00     0.033 H 
ATOM     38  H4  E12 d          -0.457  61.392  76.908  0.00  0.00     0.033 H 
ATOM     39  H13 E12 d          -0.401  59.306  75.496  0.00  0.00     0.036 H 
ATOM     40  H14 E12 d          -1.856  60.309  75.175  0.00  0.00     0.036 H 
ATOM     41  H2  E12 d           0.055  60.992  70.849  0.00  0.00     0.084 H 
ATOM     42  H12 E12 d          -1.270  59.826  73.019  0.00  0.00     0.092 H 
ENDBRANCH  19  22
ENDBRANCH  16  19
ENDBRANCH  13  16
ENDBRANCH  10  13
ENDBRANCH   7  10
ENDBRANCH   4   7
ENDBRANCH   1   4
BRANCH   1  43
ATOM     43  C68 E12 d           3.158  61.695  69.601  0.00  0.00    -0.065 C 
ATOM     44  H39 E12 d           2.841  61.866  70.640  0.00  0.00     0.033 H 
ATOM     45  H40 E12 d           2.336  61.228  69.039  0.00  0.00     0.033 H 
BRANCH  43  46
ATOM     46  C69 E12 d           3.472  63.039  68.966  0.00  0.00    -0.065 C 
ATOM     47  H41 E12 d           2.646  63.324  68.297  0.00  0.00     0.033 H 
ATOM     48  H42 E12 d           4.401  62.956  68.385  0.00  0.00     0.033 H 
BRANCH  46  49
ATOM     49  C70 E12 d           3.645  64.110  70.029  0.00  0.00    -0.065 C 
ATOM     50  H43 E12 d           4.374  63.749  70.769  0.00  0.00     0.033 H 
ATOM     51  H44 E12 d           2.673  64.273  70.519  0.00  0.00     0.033 H 
BRANCH  49  52
ATOM     52  C71 E12 d           4.137  65.448  69.483  0.00  0.00    -0.064 C 
ATOM     53  H45 E12 d           4.386  65.319  68.419  0.00  0.00     0.033 H 
ATOM     54  H46 E12 d           5.040  65.741  70.038  0.00  0.00     0.033 H 
BRANCH  52  55
ATOM     55  C72 E12 d           3.097  66.577  69.608  0.00  0.00    -0.043 C 
ATOM     56  H47 E12 d           3.581  67.449  70.069  0.00  0.00     0.035 H 
ATOM     57  H48 E12 d           2.278  66.228  70.255  0.00  0.00     0.035 H 
BRANCH  55  58
ATOM     58  C41 E12 d           2.504  67.005  68.260  0.00  0.00     0.083 C 
ATOM     59  H29 E12 d           1.873  67.896  68.389  0.00  0.00     0.075 H 
ATOM     60  H30 E12 d           1.904  66.189  67.833  0.00  0.00     0.075 H 
BRANCH  58  61
ATOM     61  N40 E12 d           3.655  67.314  67.375  0.00  0.00    -0.067 N 
ATOM     62  H27 E12 d           4.374  66.639  67.582  0.00  0.00     0.277 HD
ATOM     63  H28 E12 d           3.978  68.236  67.623  0.00  0.00     0.277 HD
BRANCH  61  64
ATOM     64  C37 E12 d           3.458  67.304  65.872  0.00  0.00     0.129 C 
ATOM     65  C38 E12 d           4.124  68.577  65.308  0.00  0.00    -0.034 C 
ATOM     66  C39 E12 d           4.131  68.556  63.775  0.00  0.00    -0.058 C 
ATOM     67  H23 E12 d           5.161  68.633  65.672  0.00  0.00     0.036 H 
ATOM     68  H24 E12 d           3.566  69.460  65.653  0.00  0.00     0.036 H 
ATOM     69  C36 E12 d           4.967  67.368  63.264  0.00  0.00    -0.026 C 
ATOM     70  H25 E12 d           3.099  68.457  63.408  0.00  0.00     0.033 H 
ATOM     71  H26 E12 d           4.566  69.494  63.401  0.00  0.00     0.033 H 
ATOM     72  C31 E12 d           4.543  66.056  63.957  0.00  0.00     0.020 A 
ATOM     73  H20 E12 d           4.821  67.265  62.179  0.00  0.00     0.042 H 
ATOM     74  H21 E12 d           6.030  67.559  63.474  0.00  0.00     0.042 H 
ATOM     75  C32 E12 d           3.864  66.009  65.174  0.00  0.00    -0.005 A 
ATOM     76  N30 E12 d           4.864  64.886  63.332  0.00  0.00    -0.327 N 
ATOM     77  C33 E12 d           3.519  64.679  65.736  0.00  0.00    -0.068 A 
ATOM     78  C34 E12 d           3.846  63.521  65.097  0.00  0.00    -0.017 A 
ATOM     79  H18 E12 d           2.990  64.628  66.686  0.00  0.00     0.084 H 
ATOM     80  C29 E12 d           4.567  63.599  63.766  0.00  0.00     0.245 A 
ATOM     81  H19 E12 d           3.594  62.556  65.535  0.00  0.00     0.092 H 
ATOM     82  O35 E12 d           4.812  62.624  63.043  0.00  0.00    -0.268 OA
ATOM     83  H17 E12 d           5.366  64.963  62.470  0.00  0.00     0.169 HD
ATOM     84  H22 E12 d           2.378  67.404  65.693  0.00  0.00     0.092 H 
ENDBRANCH  61  64
ENDBRANCH  58  61
ENDBRANCH  55  58
ENDBRANCH  52  55
ENDBRANCH  49  52
ENDBRANCH  46  49
ENDBRANCH  43  46
ENDBRANCH   1  43
TORSDOF 15
ENDMDL
MODEL 8
REMARK VINA RESULT:      -9.3      2.891      9.711
REMARK  15 active torsions:
REMARK  status: ('A' for Active; 'I' for Inactive)
REMARK    1  A    between atoms: C10_11  and  N17_7 
REMARK    2  A    between atoms: N17_7  and  C24_8 
REMARK    3  A    between atoms: C24_8  and  C63_13 
REMARK    4  A    between atoms: C63_13  and  C64_28 
REMARK    5  A    between atoms: N40_26  and  C37_23 
REMARK    6  A    between atoms: C41_27  and  N40_26 
REMARK    7  A    between atoms: C72_36  and  C41_27 
REMARK    8  A    between atoms: C64_28  and  C65_29 
REMARK    9  A    between atoms: C65_29  and  C66_30 
REMARK   10  A    between atoms: C66_30  and  C67_31 
REMARK   11  A    between atoms: C67_31  and  C68_32 
REMARK   12  A    between atoms: C68_32  and  C69_33 
REMARK   13  A    between atoms: C69_33  and  C70_34 
REMARK   14  A    between atoms: C70_34  and  C71_35 
REMARK   15  A    between atoms: C71_35  and  C72_36 
ROOT
ATOM      1  C67 E12 d           4.118  60.280  69.924  0.00  0.00    -0.065 C 
ATOM      2  H37 E12 d           4.807  60.080  69.089  0.00  0.00     0.033 H 
ATOM      3  H38 E12 d           3.536  61.188  69.710  0.00  0.00     0.033 H 
ENDROOT
BRANCH   1   4
ATOM      4  C66 E12 d           4.933  60.513  71.176  0.00  0.00    -0.065 C 
ATOM      5  H35 E12 d           4.452  59.999  72.022  0.00  0.00     0.033 H 
ATOM      6  H36 E12 d           5.945  60.109  71.029  0.00  0.00     0.033 H 
BRANCH   4   7
ATOM      7  C65 E12 d           5.030  61.987  71.484  0.00  0.00    -0.065 C 
ATOM      8  H33 E12 d           4.821  62.142  72.553  0.00  0.00     0.033 H 
ATOM      9  H34 E12 d           6.049  62.332  71.255  0.00  0.00     0.033 H 
BRANCH   7  10
ATOM     10  C64 E12 d           4.038  62.802  70.666  0.00  0.00    -0.064 C 
ATOM     11  H31 E12 d           3.674  62.193  69.825  0.00  0.00     0.033 H 
ATOM     12  H32 E12 d           3.190  63.089  71.304  0.00  0.00     0.033 H 
BRANCH  10  13
ATOM     13  C63 E12 d           4.703  64.047  70.130  0.00  0.00    -0.043 C 
ATOM     14  H15 E12 d           4.670  64.832  70.899  0.00  0.00     0.035 H 
ATOM     15  H16 E12 d           5.750  63.818  69.885  0.00  0.00     0.035 H 
BRANCH  13  16
ATOM     16  C24 E12 d           3.989  64.554  68.863  0.00  0.00     0.083 C 
ATOM     17  H7  E12 d           4.184  63.882  68.013  0.00  0.00     0.075 H 
ATOM     18  H8  E12 d           2.904  64.625  69.031  0.00  0.00     0.075 H 
BRANCH  16  19
ATOM     19  N17 E12 d           4.590  65.944  68.605  0.00  0.00    -0.067 N 
ATOM     20  H5  E12 d           4.290  66.530  69.367  0.00  0.00     0.277 HD
ATOM     21  H6  E12 d           5.591  65.832  68.640  0.00  0.00     0.277 HD
BRANCH  19  22
ATOM     22  C10 E12 d           4.291  66.708  67.337  0.00  0.00     0.129 C 
ATOM     23  C4  E12 d           2.768  66.911  67.184  0.00  0.00    -0.005 A 
ATOM     24  C3  E12 d           2.085  66.466  66.067  0.00  0.00     0.020 A 
ATOM     25  C5  E12 d           1.994  67.688  68.196  0.00  0.00    -0.068 A 
ATOM     26  N2  E12 d           0.744  66.704  65.951  0.00  0.00    -0.327 N 
ATOM     27  C9  E12 d           2.753  65.699  64.919  0.00  0.00    -0.026 C 
ATOM     28  C1  E12 d          -0.069  67.398  66.832  0.00  0.00     0.245 A 
ATOM     29  H1  E12 d           0.298  66.334  65.136  0.00  0.00     0.169 HD
ATOM     30  C6  E12 d           0.646  67.927  68.055  0.00  0.00    -0.017 A 
ATOM     31  O7  E12 d          -1.292  67.517  66.616  0.00  0.00    -0.268 OA
ATOM     32  H9  E12 d           0.102  68.488  68.813  0.00  0.00     0.092 H 
ATOM     33  C14 E12 d           4.037  64.994  65.395  0.00  0.00    -0.058 C 
ATOM     34  H10 E12 d           3.008  66.406  64.115  0.00  0.00     0.042 H 
ATOM     35  H11 E12 d           2.051  64.945  64.535  0.00  0.00     0.042 H 
ATOM     36  C13 E12 d           4.975  66.002  66.134  0.00  0.00    -0.034 C 
ATOM     37  H3  E12 d           3.768  64.179  66.082  0.00  0.00     0.033 H 
ATOM     38  H4  E12 d           4.566  64.580  64.524  0.00  0.00     0.033 H 
ATOM     39  H13 E12 d           5.854  65.455  66.504  0.00  0.00     0.036 H 
ATOM     40  H14 E12 d           5.297  66.771  65.417  0.00  0.00     0.036 H 
ATOM     41  H2  E12 d           2.511  68.077  69.072  0.00  0.00     0.084 H 
ATOM     42  H12 E12 d           4.742  67.707  67.427  0.00  0.00     0.092 H 
ENDBRANCH  19  22
ENDBRANCH  16  19
ENDBRANCH  13  16
ENDBRANCH  10  13
ENDBRANCH   7  10
ENDBRANCH   4   7
ENDBRANCH   1   4
BRANCH   1  43
ATOM     43  C68 E12 d           3.161  59.113  70.049  0.00  0.00    -0.065 C 
ATOM     44  H39 E12 d           3.101  58.607  69.074  0.00  0.00     0.033 H 
ATOM     45  H40 E12 d           2.170  59.503  70.322  0.00  0.00     0.033 H 
BRANCH  43  46
ATOM     46  C69 E12 d           3.583  58.094  71.094  0.00  0.00    -0.065 C 
ATOM     47  H41 E12 d           4.554  58.392  71.518  0.00  0.00     0.033 H 
ATOM     48  H42 E12 d           3.678  57.107  70.619  0.00  0.00     0.033 H 
BRANCH  46  49
ATOM     49  C70 E12 d           2.557  58.011  72.211  0.00  0.00    -0.065 C 
ATOM     50  H43 E12 d           2.187  56.976  72.265  0.00  0.00     0.033 H 
ATOM     51  H44 E12 d           1.723  58.687  71.967  0.00  0.00     0.033 H 
BRANCH  49  52
ATOM     52  C71 E12 d           3.104  58.398  73.582  0.00  0.00    -0.064 C 
ATOM     53  H45 E12 d           3.602  59.375  73.496  0.00  0.00     0.033 H 
ATOM     54  H46 E12 d           3.837  57.638  73.892  0.00  0.00     0.033 H 
BRANCH  52  55
ATOM     55  C72 E12 d           2.015  58.497  74.667  0.00  0.00    -0.043 C 
ATOM     56  H47 E12 d           1.856  57.498  75.096  0.00  0.00     0.035 H 
ATOM     57  H48 E12 d           1.084  58.846  74.196  0.00  0.00     0.035 H 
BRANCH  55  58
ATOM     58  C41 E12 d           2.379  59.462  75.801  0.00  0.00     0.083 C 
ATOM     59  H29 E12 d           3.360  59.200  76.223  0.00  0.00     0.075 H 
ATOM     60  H30 E12 d           1.617  59.423  76.593  0.00  0.00     0.075 H 
BRANCH  58  61
ATOM     61  N40 E12 d           2.425  60.819  75.199  0.00  0.00    -0.067 N 
ATOM     62  H27 E12 d           2.814  60.717  74.275  0.00  0.00     0.277 HD
ATOM     63  H28 E12 d           3.047  61.372  75.767  0.00  0.00     0.277 HD
BRANCH  61  64
ATOM     64  C37 E12 d           1.139  61.609  75.053  0.00  0.00     0.129 C 
ATOM     65  C38 E12 d           1.110  62.661  76.181  0.00  0.00    -0.034 C 
ATOM     66  C39 E12 d          -0.069  63.624  75.999  0.00  0.00    -0.058 C 
ATOM     67  H23 E12 d           2.049  63.234  76.165  0.00  0.00     0.036 H 
ATOM     68  H24 E12 d           1.010  62.149  77.150  0.00  0.00     0.036 H 
ATOM     69  C36 E12 d           0.084  64.408  74.682  0.00  0.00    -0.026 C 
ATOM     70  H25 E12 d          -1.007  63.050  75.973  0.00  0.00     0.033 H 
ATOM     71  H26 E12 d          -0.094  64.331  76.842  0.00  0.00     0.033 H 
ATOM     72  C31 E12 d           0.367  63.454  73.502  0.00  0.00     0.020 A 
ATOM     73  H20 E12 d          -0.845  64.961  74.483  0.00  0.00     0.042 H 
ATOM     74  H21 E12 d           0.919  65.117  74.780  0.00  0.00     0.042 H 
ATOM     75  C32 E12 d           0.876  62.165  73.656  0.00  0.00    -0.005 A 
ATOM     76  N30 E12 d           0.104  63.917  72.247  0.00  0.00    -0.327 N 
ATOM     77  C33 E12 d           1.108  61.351  72.436  0.00  0.00    -0.068 A 
ATOM     78  C34 E12 d           0.839  61.829  71.189  0.00  0.00    -0.017 A 
ATOM     79  H18 E12 d           1.507  60.343  72.542  0.00  0.00     0.084 H 
ATOM     80  C29 E12 d           0.268  63.226  71.051  0.00  0.00     0.245 A 
ATOM     81  H19 E12 d           1.030  61.218  70.308  0.00  0.00     0.092 H 
ATOM     82  O35 E12 d          -0.121  63.723  69.985  0.00  0.00    -0.268 OA
ATOM     83  H17 E12 d          -0.243  64.853  72.179  0.00  0.00     0.169 HD
ATOM     84  H22 E12 d           0.314  60.909  75.248  0.00  0.00     0.092 H 
ENDBRANCH  61  64
ENDBRANCH  58  61
ENDBRANCH  55  58
ENDBRANCH  52  55
ENDBRANCH  49  52
ENDBRANCH  46  49
ENDBRANCH  43  46
ENDBRANCH   1  43
TORSDOF 15
ENDMDL
MODEL 9
REMARK VINA RESULT:      -9.3      2.227      9.614
REMARK  15 active torsions:
REMARK  status: ('A' for Active; 'I' for Inactive)
REMARK    1  A    between atoms: C10_11  and  N17_7 
REMARK    2  A    between atoms: N17_7  and  C24_8 
REMARK    3  A    between atoms: C24_8  and  C63_13 
REMARK    4  A    between atoms: C63_13  and  C64_28 
REMARK    5  A    between atoms: N40_26  and  C37_23 
REMARK    6  A    between atoms: C41_27  and  N40_26 
REMARK    7  A    between atoms: C72_36  and  C41_27 
REMARK    8  A    between atoms: C64_28  and  C65_29 
REMARK    9  A    between atoms: C65_29  and  C66_30 
REMARK   10  A    between atoms: C66_30  and  C67_31 
REMARK   11  A    between atoms: C67_31  and  C68_32 
REMARK   12  A    between atoms: C68_32  and  C69_33 
REMARK   13  A    between atoms: C69_33  and  C70_34 
REMARK   14  A    between atoms: C70_34  and  C71_35 
REMARK   15  A    between atoms: C71_35  and  C72_36 
ROOT
ATOM      1  C67 E12 d           4.338  60.792  69.855  0.00  0.00    -0.065 C 
ATOM      2  H37 E12 d           5.296  60.261  69.743  0.00  0.00     0.033 H 
ATOM      3  H38 E12 d           4.154  61.409  68.963  0.00  0.00     0.033 H 
ENDROOT
BRANCH   1   4
ATOM      4  C66 E12 d           4.429  61.702  71.059  0.00  0.00    -0.065 C 
ATOM      5  H35 E12 d           3.427  61.825  71.496  0.00  0.00     0.033 H 
ATOM      6  H36 E12 d           5.100  61.249  71.804  0.00  0.00     0.033 H 
BRANCH   4   7
ATOM      7  C65 E12 d           4.968  63.055  70.667  0.00  0.00    -0.065 C 
ATOM      8  H33 E12 d           5.574  63.451  71.496  0.00  0.00     0.033 H 
ATOM      9  H34 E12 d           5.598  62.942  69.773  0.00  0.00     0.033 H 
BRANCH   7  10
ATOM     10  C64 E12 d           3.850  64.041  70.361  0.00  0.00    -0.064 C 
ATOM     11  H31 E12 d           3.234  63.649  69.538  0.00  0.00     0.033 H 
ATOM     12  H32 E12 d           3.224  64.171  71.256  0.00  0.00     0.033 H 
BRANCH  10  13
ATOM     13  C63 E12 d           4.427  65.377  69.958  0.00  0.00    -0.043 C 
ATOM     14  H15 E12 d           4.873  65.857  70.842  0.00  0.00     0.035 H 
ATOM     15  H16 E12 d           5.204  65.218  69.196  0.00  0.00     0.035 H 
BRANCH  13  16
ATOM     16  C24 E12 d           3.338  66.300  69.381  0.00  0.00     0.083 C 
ATOM     17  H7  E12 d           2.408  65.739  69.207  0.00  0.00     0.075 H 
ATOM     18  H8  E12 d           3.139  67.139  70.064  0.00  0.00     0.075 H 
BRANCH  16  19
ATOM     19  N17 E12 d           3.920  66.808  68.053  0.00  0.00    -0.067 N 
ATOM     20  H5  E12 d           4.249  67.745  68.226  0.00  0.00     0.277 HD
ATOM     21  H6  E12 d           4.704  66.211  67.838  0.00  0.00     0.277 HD
BRANCH  19  22
ATOM     22  C10 E12 d           3.080  66.877  66.800  0.00  0.00     0.129 C 
ATOM     23  C4  E12 d           3.542  65.805  65.789  0.00  0.00    -0.005 A 
ATOM     24  C3  E12 d           3.951  66.142  64.511  0.00  0.00     0.020 A 
ATOM     25  C5  E12 d           3.468  64.354  66.125  0.00  0.00    -0.068 A 
ATOM     26  N2  E12 d           4.312  65.159  63.633  0.00  0.00    -0.327 N 
ATOM     27  C9  E12 d           4.029  67.587  64.003  0.00  0.00    -0.026 C 
ATOM     28  C1  E12 d           4.294  63.790  63.844  0.00  0.00     0.245 A 
ATOM     29  H1  E12 d           4.626  65.463  62.733  0.00  0.00     0.169 HD
ATOM     30  C6  E12 d           3.825  63.379  65.221  0.00  0.00    -0.017 A 
ATOM     31  O7  E12 d           4.680  63.001  62.959  0.00  0.00    -0.268 OA
ATOM     32  H9  E12 d           3.772  62.326  65.495  0.00  0.00     0.092 H 
ATOM     33  C14 E12 d           4.185  68.579  65.171  0.00  0.00    -0.058 C 
ATOM     34  H10 E12 d           3.108  67.824  63.451  0.00  0.00     0.042 H 
ATOM     35  H11 E12 d           4.894  67.685  63.332  0.00  0.00     0.042 H 
ATOM     36  C13 E12 d           3.085  68.330  66.253  0.00  0.00    -0.034 C 
ATOM     37  H3  E12 d           5.177  68.447  65.627  0.00  0.00     0.033 H 
ATOM     38  H4  E12 d           4.091  69.605  64.788  0.00  0.00     0.033 H 
ATOM     39  H13 E12 d           3.258  69.019  67.092  0.00  0.00     0.036 H 
ATOM     40  H14 E12 d           2.102  68.538  65.806  0.00  0.00     0.036 H 
ATOM     41  H2  E12 d           3.121  64.057  67.113  0.00  0.00     0.084 H 
ATOM     42  H12 E12 d           2.041  66.636  67.072  0.00  0.00     0.092 H 
ENDBRANCH  19  22
ENDBRANCH  16  19
ENDBRANCH  13  16
ENDBRANCH  10  13
ENDBRANCH   7  10
ENDBRANCH   4   7
ENDBRANCH   1   4
BRANCH   1  43
ATOM     43  C68 E12 d           3.230  59.767  69.969  0.00  0.00    -0.065 C 
ATOM     44  H39 E12 d           2.883  59.514  68.957  0.00  0.00     0.033 H 
ATOM     45  H40 E12 d           2.401  60.211  70.541  0.00  0.00     0.033 H 
BRANCH  43  46
ATOM     46  C69 E12 d           3.660  58.485  70.664  0.00  0.00    -0.065 C 
ATOM     47  H41 E12 d           4.683  58.609  71.047  0.00  0.00     0.033 H 
ATOM     48  H42 E12 d           3.637  57.658  69.940  0.00  0.00     0.033 H 
BRANCH  46  49
ATOM     49  C70 E12 d           2.730  58.160  71.820  0.00  0.00    -0.065 C 
ATOM     50  H43 E12 d           2.537  57.077  71.815  0.00  0.00     0.033 H 
ATOM     51  H44 E12 d           1.785  58.703  71.668  0.00  0.00     0.033 H 
BRANCH  49  52
ATOM     52  C71 E12 d           3.289  58.543  73.187  0.00  0.00    -0.064 C 
ATOM     53  H45 E12 d           3.798  59.514  73.097  0.00  0.00     0.033 H 
ATOM     54  H46 E12 d           4.016  57.776  73.495  0.00  0.00     0.033 H 
BRANCH  52  55
ATOM     55  C72 E12 d           2.208  58.657  74.278  0.00  0.00    -0.043 C 
ATOM     56  H47 E12 d           2.027  57.657  74.698  0.00  0.00     0.035 H 
ATOM     57  H48 E12 d           1.283  59.032  73.815  0.00  0.00     0.035 H 
BRANCH  55  58
ATOM     58  C41 E12 d           2.599  59.602  75.420  0.00  0.00     0.083 C 
ATOM     59  H29 E12 d           3.609  59.362  75.783  0.00  0.00     0.075 H 
ATOM     60  H30 E12 d           1.881  59.513  76.249  0.00  0.00     0.075 H 
BRANCH  58  61
ATOM     61  N40 E12 d           2.567  60.975  74.858  0.00  0.00    -0.067 N 
ATOM     62  H27 E12 d           2.902  60.912  73.909  0.00  0.00     0.277 HD
ATOM     63  H28 E12 d           3.207  61.531  75.404  0.00  0.00     0.277 HD
BRANCH  61  64
ATOM     64  C37 E12 d           1.252  61.729  74.814  0.00  0.00     0.129 C 
ATOM     65  C38 E12 d           1.231  62.696  76.016  0.00  0.00    -0.034 C 
ATOM     66  C39 E12 d           0.016  63.628  75.946  0.00  0.00    -0.058 C 
ATOM     67  H23 E12 d           2.150  63.301  76.009  0.00  0.00     0.036 H 
ATOM     68  H24 E12 d           1.183  62.112  76.948  0.00  0.00     0.036 H 
ATOM     69  C36 E12 d           0.094  64.508  74.685  0.00  0.00    -0.026 C 
ATOM     70  H25 E12 d          -0.903  63.024  75.911  0.00  0.00     0.033 H 
ATOM     71  H26 E12 d          -0.001  64.271  76.838  0.00  0.00     0.033 H 
ATOM     72  C31 E12 d           0.364  63.652  73.429  0.00  0.00     0.020 A 
ATOM     73  H20 E12 d          -0.859  65.042  74.558  0.00  0.00     0.042 H 
ATOM     74  H21 E12 d           0.909  65.237  74.805  0.00  0.00     0.042 H 
ATOM     75  C32 E12 d           0.919  62.373  73.471  0.00  0.00    -0.005 A 
ATOM     76  N30 E12 d           0.040  64.194  72.221  0.00  0.00    -0.327 N 
ATOM     77  C33 E12 d           1.133  61.657  72.188  0.00  0.00    -0.068 A 
ATOM     78  C34 E12 d           0.801  62.213  70.990  0.00  0.00    -0.017 A 
ATOM     79  H18 E12 d           1.567  60.658  72.206  0.00  0.00     0.084 H 
ATOM     80  C29 E12 d           0.182  63.596  70.973  0.00  0.00     0.245 A 
ATOM     81  H19 E12 d           0.979  61.674  70.060  0.00  0.00     0.092 H 
ATOM     82  O35 E12 d          -0.263  64.154  69.960  0.00  0.00    -0.268 OA
ATOM     83  H17 E12 d          -0.339  65.120  72.233  0.00  0.00     0.169 HD
ATOM     84  H22 E12 d           0.457  60.989  74.986  0.00  0.00     0.092 H 
ENDBRANCH  61  64
ENDBRANCH  58  61
ENDBRANCH  55  58
ENDBRANCH  52  55
ENDBRANCH  49  52
ENDBRANCH  46  49
ENDBRANCH  43  46
ENDBRANCH   1  43
TORSDOF 15
ENDMDL
MODEL 10
REMARK VINA RESULT:      -9.2      2.318     10.616
REMARK  15 active torsions:
REMARK  status: ('A' for Active; 'I' for Inactive)
REMARK    1  A    between atoms: C10_11  and  N17_7 
REMARK    2  A    between atoms: N17_7  and  C24_8 
REMARK    3  A    between atoms: C24_8  and  C63_13 
REMARK    4  A    between atoms: C63_13  and  C64_28 
REMARK    5  A    between atoms: N40_26  and  C37_23 
REMARK    6  A    between atoms: C41_27  and  N40_26 
REMARK    7  A    between atoms: C72_36  and  C41_27 
REMARK    8  A    between atoms: C64_28  and  C65_29 
REMARK    9  A    between atoms: C65_29  and  C66_30 
REMARK   10  A    between atoms: C66_30  and  C67_31 
REMARK   11  A    between atoms: C67_31  and  C68_32 
REMARK   12  A    between atoms: C68_32  and  C69_33 
REMARK   13  A    between atoms: C69_33  and  C70_34 
REMARK   14  A    between atoms: C70_34  and  C71_35 
REMARK   15  A    between atoms: C71_35  and  C72_36 
ROOT
ATOM      1  C67 E12 d           3.791  63.934  70.305  0.00  0.00    -0.065 C 
ATOM      2  H37 E12 d           4.268  64.810  70.769  0.00  0.00     0.033 H 
ATOM      3  H38 E12 d           4.434  63.052  70.440  0.00  0.00     0.033 H 
ENDROOT
BRANCH   1   4
ATOM      4  C66 E12 d           3.639  64.197  68.823  0.00  0.00    -0.065 C 
ATOM      5  H35 E12 d           4.413  63.639  68.276  0.00  0.00     0.033 H 
ATOM      6  H36 E12 d           2.644  63.860  68.497  0.00  0.00     0.033 H 
BRANCH   4   7
ATOM      7  C65 E12 d           3.785  65.668  68.524  0.00  0.00    -0.065 C 
ATOM      8  H33 E12 d           2.868  66.024  68.030  0.00  0.00     0.033 H 
ATOM      9  H34 E12 d           3.926  66.211  69.470  0.00  0.00     0.033 H 
BRANCH   7  10
ATOM     10  C64 E12 d           4.974  65.945  67.614  0.00  0.00    -0.064 C 
ATOM     11  H31 E12 d           5.237  67.012  67.675  0.00  0.00     0.033 H 
ATOM     12  H32 E12 d           5.830  65.337  67.941  0.00  0.00     0.033 H 
BRANCH  10  13
ATOM     13  C63 E12 d           4.631  65.596  66.186  0.00  0.00    -0.043 C 
ATOM     14  H15 E12 d           4.973  64.573  65.973  0.00  0.00     0.035 H 
ATOM     15  H16 E12 d           3.540  65.652  66.054  0.00  0.00     0.035 H 
BRANCH  13  16
ATOM     16  C24 E12 d           5.307  66.568  65.201  0.00  0.00     0.083 C 
ATOM     17  H7  E12 d           5.565  67.512  65.704  0.00  0.00     0.075 H 
ATOM     18  H8  E12 d           6.217  66.118  64.776  0.00  0.00     0.075 H 
BRANCH  16  19
ATOM     19  N17 E12 d           4.258  66.807  64.105  0.00  0.00    -0.067 N 
ATOM     20  H5  E12 d           4.706  66.588  63.229  0.00  0.00     0.277 HD
ATOM     21  H6  E12 d           3.513  66.150  64.275  0.00  0.00     0.277 HD
BRANCH  19  22
ATOM     22  C10 E12 d           3.603  68.155  63.923  0.00  0.00     0.129 C 
ATOM     23  C4  E12 d           2.160  68.126  64.469  0.00  0.00    -0.005 A 
ATOM     24  C3  E12 d           1.075  68.441  63.671  0.00  0.00     0.020 A 
ATOM     25  C5  E12 d           1.893  67.852  65.911  0.00  0.00    -0.068 A 
ATOM     26  N2  E12 d          -0.183  68.443  64.206  0.00  0.00    -0.327 N 
ATOM     27  C9  E12 d           1.196  68.794  62.184  0.00  0.00    -0.026 C 
ATOM     28  C1  E12 d          -0.543  68.192  65.520  0.00  0.00     0.245 A 
ATOM     29  H1  E12 d          -0.931  68.651  63.575  0.00  0.00     0.169 HD
ATOM     30  C6  E12 d           0.619  67.871  66.432  0.00  0.00    -0.017 A 
ATOM     31  O7  E12 d          -1.740  68.200  65.868  0.00  0.00    -0.268 OA
ATOM     32  H9  E12 d           0.451  67.657  67.487  0.00  0.00     0.092 H 
ATOM     33  C14 E12 d           2.481  68.205  61.575  0.00  0.00    -0.058 C 
ATOM     34  H10 E12 d           1.216  69.889  62.076  0.00  0.00     0.042 H 
ATOM     35  H11 E12 d           0.326  68.390  61.647  0.00  0.00     0.042 H 
ATOM     36  C13 E12 d           3.725  68.593  62.438  0.00  0.00    -0.034 C 
ATOM     37  H3  E12 d           2.394  67.109  61.538  0.00  0.00     0.033 H 
ATOM     38  H4  E12 d           2.611  68.596  60.556  0.00  0.00     0.033 H 
ATOM     39  H13 E12 d           4.615  68.113  62.004  0.00  0.00     0.036 H 
ATOM     40  H14 E12 d           3.846  69.686  62.405  0.00  0.00     0.036 H 
ATOM     41  H2  E12 d           2.731  67.630  66.571  0.00  0.00     0.084 H 
ATOM     42  H12 E12 d           4.161  68.889  64.524  0.00  0.00     0.092 H 
ENDBRANCH  19  22
ENDBRANCH  16  19
ENDBRANCH  13  16
ENDBRANCH  10  13
ENDBRANCH   7  10
ENDBRANCH   4   7
ENDBRANCH   1   4
BRANCH   1  43
ATOM     43  C68 E12 d           2.470  63.679  71.000  0.00  0.00    -0.065 C 
ATOM     44  H39 E12 d           1.876  64.604  70.968  0.00  0.00     0.033 H 
ATOM     45  H40 E12 d           2.674  63.409  72.047  0.00  0.00     0.033 H 
BRANCH  43  46
ATOM     46  C69 E12 d           1.658  62.563  70.365  0.00  0.00    -0.065 C 
ATOM     47  H41 E12 d           2.256  61.640  70.356  0.00  0.00     0.033 H 
ATOM     48  H42 E12 d           1.404  62.844  69.332  0.00  0.00     0.033 H 
BRANCH  46  49
ATOM     49  C70 E12 d           0.376  62.319  71.143  0.00  0.00    -0.065 C 
ATOM     50  H43 E12 d           0.426  61.313  71.585  0.00  0.00     0.033 H 
ATOM     51  H44 E12 d          -0.471  62.371  70.442  0.00  0.00     0.033 H 
BRANCH  49  52
ATOM     52  C71 E12 d           0.134  63.325  72.264  0.00  0.00    -0.064 C 
ATOM     53  H45 E12 d          -0.725  63.954  71.989  0.00  0.00     0.033 H 
ATOM     54  H46 E12 d           1.031  63.954  72.369  0.00  0.00     0.033 H 
BRANCH  52  55
ATOM     55  C72 E12 d          -0.159  62.663  73.624  0.00  0.00    -0.043 C 
ATOM     56  H47 E12 d          -1.076  63.106  74.038  0.00  0.00     0.035 H 
ATOM     57  H48 E12 d           0.684  62.867  74.301  0.00  0.00     0.035 H 
BRANCH  55  58
ATOM     58  C41 E12 d          -0.350  61.145  73.528  0.00  0.00     0.083 C 
ATOM     59  H29 E12 d           0.005  60.778  72.555  0.00  0.00     0.075 H 
ATOM     60  H30 E12 d          -1.412  60.888  73.653  0.00  0.00     0.075 H 
BRANCH  58  61
ATOM     61  N40 E12 d           0.454  60.551  74.626  0.00  0.00    -0.067 N 
ATOM     62  H27 E12 d          -0.191  60.281  75.350  0.00  0.00     0.277 HD
ATOM     63  H28 E12 d           1.063  61.276  74.970  0.00  0.00     0.277 HD
BRANCH  61  64
ATOM     64  C37 E12 d           1.325  59.343  74.337  0.00  0.00     0.129 C 
ATOM     65  C38 E12 d           0.388  58.170  73.981  0.00  0.00    -0.034 C 
ATOM     66  C39 E12 d           1.191  56.958  73.496  0.00  0.00    -0.058 C 
ATOM     67  H23 E12 d          -0.301  58.488  73.183  0.00  0.00     0.036 H 
ATOM     68  H24 E12 d          -0.190  57.886  74.873  0.00  0.00     0.036 H 
ATOM     69  C36 E12 d           1.955  57.307  72.206  0.00  0.00    -0.026 C 
ATOM     70  H25 E12 d           1.910  56.663  74.275  0.00  0.00     0.033 H 
ATOM     71  H26 E12 d           0.503  56.122  73.297  0.00  0.00     0.033 H 
ATOM     72  C31 E12 d           2.747  58.621  72.372  0.00  0.00     0.020 A 
ATOM     73  H20 E12 d           2.654  56.493  71.969  0.00  0.00     0.042 H 
ATOM     74  H21 E12 d           1.236  57.423  71.381  0.00  0.00     0.042 H 
ATOM     75  C32 E12 d           2.455  59.583  73.338  0.00  0.00    -0.005 A 
ATOM     76  N30 E12 d           3.785  58.839  71.513  0.00  0.00    -0.327 N 
ATOM     77  C33 E12 d           3.292  60.807  73.388  0.00  0.00    -0.068 A 
ATOM     78  C34 E12 d           4.326  61.008  72.524  0.00  0.00    -0.017 A 
ATOM     79  H18 E12 d           3.074  61.567  74.137  0.00  0.00     0.084 H 
ATOM     80  C29 E12 d           4.636  59.939  71.495  0.00  0.00     0.245 A 
ATOM     81  H19 E12 d           4.919  61.920  72.571  0.00  0.00     0.092 H 
ATOM     82  O35 E12 d           5.615  59.957  70.737  0.00  0.00    -0.268 OA
ATOM     83  H17 E12 d           3.950  58.133  70.824  0.00  0.00     0.169 HD
ATOM     84  H22 E12 d           1.823  59.078  75.281  0.00  0.00     0.092 H 
ENDBRANCH  61  64
ENDBRANCH  58  61
ENDBRANCH  55  58
ENDBRANCH  52  55
ENDBRANCH  49  52
ENDBRANCH  46  49
ENDBRANCH  43  46
ENDBRANCH   1  43
TORSDOF 15
ENDMDL
