MODEL 1
REMARK VINA RESULT:      -7.8      0.000      0.000
REMARK  6 active torsions:
REMARK  status: ('A' for Active; 'I' for Inactive)
REMARK    1  A    between atoms: P_2  and  O5'_5 
REMARK    2  A    between atoms: O5'_5  and  C5'_6 
REMARK    3  A    between atoms: C5'_6  and  C4'_7 
REMARK    4  A    between atoms: C3'_9  and  O3'_10 
REMARK    5  A    between atoms: C2'_11  and  O2'_12 
REMARK    6  A    between atoms: C1'_13  and  N1_14 
ROOT
ATOM      1  C4' MOL d          39.186  38.029  37.532  0.00  0.00     0.089 C 
ATOM      2  O4' MOL d          40.088  38.725  38.408  0.00  0.00    -0.353 OA
ATOM      3  C3' MOL d          38.646  39.084  36.589  0.00  0.00     0.091 C 
ATOM      4  C2' MOL d          39.780  40.116  36.566  0.00  0.00     0.105 C 
ATOM      5  C1' MOL d          40.400  39.986  37.938  0.00  0.00     0.141 C 
ATOM      6  H3  MOL d          38.334  37.649  38.116  0.00  0.00     0.090 H 
ATOM      7  H4  MOL d          38.457  38.667  35.589  0.00  0.00     0.091 H 
ATOM      8  H6  MOL d          40.508  39.845  35.787  0.00  0.00     0.093 H 
ATOM      9  H8  MOL d          39.873  40.711  38.576  0.00  0.00     0.123 H 
ENDROOT
BRANCH   5  10
ATOM     10  N1  MOL d          41.825  40.300  38.109  0.00  0.00    -0.280 N 
ATOM     11  C2  MOL d          42.767  39.733  37.253  0.00  0.00     0.331 A 
ATOM     12  O2  MOL d          42.422  38.989  36.369  0.00  0.00    -0.246 OA
ATOM     13  N3  MOL d          44.085  40.082  37.499  0.00  0.00    -0.275 N 
ATOM     14  C4  MOL d          44.552  40.934  38.504  0.00  0.00     0.250 A 
ATOM     15  H9  MOL d          44.774  39.683  36.895  0.00  0.00     0.173 HD
ATOM     16  O4  MOL d          45.748  41.123  38.578  0.00  0.00    -0.268 OA
ATOM     17  C5  MOL d          43.519  41.472  39.339  0.00  0.00    -0.002 A 
ATOM     18  C6  MOL d          42.236  41.159  39.131  0.00  0.00    -0.008 A 
ATOM     19  H10 MOL d          43.782  42.146  40.153  0.00  0.00     0.094 H 
ATOM     20  H11 MOL d          41.481  41.591  39.786  0.00  0.00     0.112 H 
ENDBRANCH   5  10
BRANCH   4  21
ATOM     21  O2' MOL d          39.360  41.479  36.339  0.00  0.00    -0.388 OA
ATOM     22  H7  MOL d          38.763  41.744  37.029  0.00  0.00     0.210 HD
ENDBRANCH   4  21
BRANCH   1  23
ATOM     23  C5' MOL d          39.890  36.822  36.962  0.00  0.00     0.059 C 
ATOM     24  H1  MOL d          40.750  37.140  36.355  0.00  0.00     0.079 H 
ATOM     25  H2  MOL d          40.237  36.169  37.776  0.00  0.00     0.079 H 
BRANCH  23  26
ATOM     26  O5' MOL d          38.937  36.123  36.140  0.00  0.00    -0.280 OA
BRANCH  26  27
ATOM     27  P   MOL d          39.284  34.752  35.397  0.00  0.00     0.422 P 
ATOM     28  O3P MOL d          39.405  33.615  36.522  0.00  0.00    -0.617 OA
ATOM     29  O1P MOL d          40.534  34.875  34.537  0.00  0.00    -0.617 OA
ATOM     30  O2P MOL d          38.101  34.464  34.557  0.00  0.00    -0.617 OA
ENDBRANCH  26  27
ENDBRANCH  23  26
ENDBRANCH   1  23
BRANCH   3  31
ATOM     31  O3' MOL d          37.458  39.681  37.096  0.00  0.00    -0.390 OA
ATOM     32  H5  MOL d          37.148  40.336  36.482  0.00  0.00     0.210 HD
ENDBRANCH   3  31
TORSDOF 6
ENDMDL
