MODEL 1
REMARK VINA RESULT:      -6.3      0.000      0.000
REMARK  6 active torsions:
REMARK  status: ('A' for Active; 'I' for Inactive)
REMARK    1  A    between atoms: P_2  and  O5'_5 
REMARK    2  A    between atoms: O5'_5  and  C5'_6 
REMARK    3  A    between atoms: C5'_6  and  C4'_7 
REMARK    4  A    between atoms: C3'_9  and  O3'_10 
REMARK    5  A    between atoms: C2'_11  and  O2'_12 
REMARK    6  A    between atoms: C1'_13  and  N1_14 
ROOT
ATOM      1  C4' MOL d          40.606  41.052  36.534  0.00  0.00     0.089 C 
ATOM      2  O4' MOL d          39.861  39.864  36.849  0.00  0.00    -0.353 OA
ATOM      3  C3' MOL d          42.062  40.669  36.695  0.00  0.00     0.091 C 
ATOM      4  C2' MOL d          42.039  39.162  36.416  0.00  0.00     0.105 C 
ATOM      5  C1' MOL d          40.664  38.740  36.882  0.00  0.00     0.141 C 
ATOM      6  H3  MOL d          40.388  41.826  37.285  0.00  0.00     0.090 H 
ATOM      7  H4  MOL d          42.698  41.205  35.975  0.00  0.00     0.091 H 
ATOM      8  H6  MOL d          42.150  38.986  35.336  0.00  0.00     0.093 H 
ATOM      9  H8  MOL d          40.780  38.453  37.938  0.00  0.00     0.123 H 
ENDROOT
BRANCH   5  10
ATOM     10  N1  MOL d          40.019  37.584  36.245  0.00  0.00    -0.280 N 
ATOM     11  C2  MOL d          40.365  36.293  36.639  0.00  0.00     0.331 A 
ATOM     12  O2  MOL d          41.187  36.116  37.502  0.00  0.00    -0.246 OA
ATOM     13  N3  MOL d          39.709  35.270  35.973  0.00  0.00    -0.275 N 
ATOM     14  C4  MOL d          38.751  35.405  34.965  0.00  0.00     0.250 A 
ATOM     15  H9  MOL d          39.946  34.337  36.243  0.00  0.00     0.173 HD
ATOM     16  O4  MOL d          38.283  34.394  34.486  0.00  0.00    -0.268 OA
ATOM     17  C5  MOL d          38.455  36.765  34.621  0.00  0.00    -0.002 A 
ATOM     18  C6  MOL d          39.066  37.778  35.241  0.00  0.00    -0.008 A 
ATOM     19  H10 MOL d          37.721  36.975  33.844  0.00  0.00     0.094 H 
ATOM     20  H11 MOL d          38.811  38.797  34.953  0.00  0.00     0.112 H 
ENDBRANCH   5  10
BRANCH   4  21
ATOM     21  O2' MOL d          43.052  38.398  37.106  0.00  0.00    -0.388 OA
ATOM     22  H7  MOL d          43.585  37.934  36.470  0.00  0.00     0.210 HD
ENDBRANCH   4  21
BRANCH   1  23
ATOM     23  C5' MOL d          40.128  41.592  35.208  0.00  0.00     0.059 C 
ATOM     24  H1  MOL d          40.964  42.064  34.671  0.00  0.00     0.079 H 
ATOM     25  H2  MOL d          39.712  40.777  34.597  0.00  0.00     0.079 H 
BRANCH  23  26
ATOM     26  O5' MOL d          39.108  42.568  35.490  0.00  0.00    -0.280 OA
BRANCH  26  27
ATOM     27  P   MOL d          37.568  42.178  35.662  0.00  0.00     0.422 P 
ATOM     28  O3P MOL d          37.270  42.084  37.235  0.00  0.00    -0.617 OA
ATOM     29  O1P MOL d          37.222  40.898  34.912  0.00  0.00    -0.617 OA
ATOM     30  O2P MOL d          36.819  43.325  35.104  0.00  0.00    -0.617 OA
ENDBRANCH  26  27
ENDBRANCH  23  26
ENDBRANCH   1  23
BRANCH   3  31
ATOM     31  O3' MOL d          42.524  40.910  38.019  0.00  0.00    -0.390 OA
ATOM     32  H5  MOL d          42.692  40.080  38.451  0.00  0.00     0.210 HD
ENDBRANCH   3  31
TORSDOF 6
ENDMDL
MODEL 2
REMARK VINA RESULT:      -6.2      2.168      4.200
REMARK  6 active torsions:
REMARK  status: ('A' for Active; 'I' for Inactive)
REMARK    1  A    between atoms: P_2  and  O5'_5 
REMARK    2  A    between atoms: O5'_5  and  C5'_6 
REMARK    3  A    between atoms: C5'_6  and  C4'_7 
REMARK    4  A    between atoms: C3'_9  and  O3'_10 
REMARK    5  A    between atoms: C2'_11  and  O2'_12 
REMARK    6  A    between atoms: C1'_13  and  N1_14 
ROOT
ATOM      1  C4' MOL d          40.831  41.039  34.543  0.00  0.00     0.089 C 
ATOM      2  O4' MOL d          40.063  39.824  34.531  0.00  0.00    -0.353 OA
ATOM      3  C3' MOL d          40.230  41.884  35.646  0.00  0.00     0.091 C 
ATOM      4  C2' MOL d          39.647  40.827  36.590  0.00  0.00     0.105 C 
ATOM      5  C1' MOL d          39.283  39.691  35.663  0.00  0.00     0.141 C 
ATOM      6  H3  MOL d          40.672  41.579  33.597  0.00  0.00     0.090 H 
ATOM      7  H4  MOL d          40.997  42.495  36.144  0.00  0.00     0.091 H 
ATOM      8  H6  MOL d          40.419  40.508  37.306  0.00  0.00     0.093 H 
ATOM      9  H8  MOL d          38.240  39.870  35.364  0.00  0.00     0.123 H 
ENDROOT
BRANCH   5  10
ATOM     10  N1  MOL d          39.297  38.316  36.181  0.00  0.00    -0.280 N 
ATOM     11  C2  MOL d          38.613  37.311  35.500  0.00  0.00     0.331 A 
ATOM     12  O2  MOL d          38.011  37.559  34.486  0.00  0.00    -0.246 OA
ATOM     13  N3  MOL d          38.678  36.051  36.072  0.00  0.00    -0.275 N 
ATOM     14  C4  MOL d          39.353  35.696  37.244  0.00  0.00     0.250 A 
ATOM     15  H9  MOL d          38.191  35.318  35.597  0.00  0.00     0.173 HD
ATOM     16  O4  MOL d          39.297  34.539  37.604  0.00  0.00    -0.268 OA
ATOM     17  C5  MOL d          40.029  36.788  37.880  0.00  0.00    -0.002 A 
ATOM     18  C6  MOL d          39.990  38.017  37.358  0.00  0.00    -0.008 A 
ATOM     19  H10 MOL d          40.583  36.613  38.801  0.00  0.00     0.094 H 
ATOM     20  H11 MOL d          40.519  38.819  37.870  0.00  0.00     0.112 H 
ENDBRANCH   5  10
BRANCH   4  21
ATOM     21  O2' MOL d          38.485  41.249  37.337  0.00  0.00    -0.388 OA
ATOM     22  H7  MOL d          38.579  40.981  38.244  0.00  0.00     0.210 HD
ENDBRANCH   4  21
BRANCH   1  23
ATOM     23  C5' MOL d          42.298  40.691  34.598  0.00  0.00     0.059 C 
ATOM     24  H1  MOL d          42.423  39.602  34.692  0.00  0.00     0.079 H 
ATOM     25  H2  MOL d          42.804  41.041  33.686  0.00  0.00     0.079 H 
BRANCH  23  26
ATOM     26  O5' MOL d          42.848  41.351  35.753  0.00  0.00    -0.280 OA
BRANCH  26  27
ATOM     27  P   MOL d          43.494  40.552  36.976  0.00  0.00     0.422 P 
ATOM     28  O3P MOL d          43.216  38.992  36.729  0.00  0.00    -0.617 OA
ATOM     29  O1P MOL d          42.967  41.046  38.316  0.00  0.00    -0.617 OA
ATOM     30  O2P MOL d          44.949  40.798  36.867  0.00  0.00    -0.617 OA
ENDBRANCH  26  27
ENDBRANCH  23  26
ENDBRANCH   1  23
BRANCH   3  31
ATOM     31  O3' MOL d          39.189  42.722  35.156  0.00  0.00    -0.390 OA
ATOM     32  H5  MOL d          39.552  43.564  34.908  0.00  0.00     0.210 HD
ENDBRANCH   3  31
TORSDOF 6
ENDMDL
MODEL 3
REMARK VINA RESULT:      -5.8      2.122      4.225
REMARK  6 active torsions:
REMARK  status: ('A' for Active; 'I' for Inactive)
REMARK    1  A    between atoms: P_2  and  O5'_5 
REMARK    2  A    between atoms: O5'_5  and  C5'_6 
REMARK    3  A    between atoms: C5'_6  and  C4'_7 
REMARK    4  A    between atoms: C3'_9  and  O3'_10 
REMARK    5  A    between atoms: C2'_11  and  O2'_12 
REMARK    6  A    between atoms: C1'_13  and  N1_14 
ROOT
ATOM      1  C4' MOL d          39.869  41.412  34.597  0.00  0.00     0.089 C 
ATOM      2  O4' MOL d          39.493  40.026  34.542  0.00  0.00    -0.353 OA
ATOM      3  C3' MOL d          38.796  42.087  35.426  0.00  0.00     0.091 C 
ATOM      4  C2' MOL d          38.302  40.944  36.320  0.00  0.00     0.105 C 
ATOM      5  C1' MOL d          38.515  39.715  35.467  0.00  0.00     0.141 C 
ATOM      6  H3  MOL d          39.818  41.843  33.586  0.00  0.00     0.090 H 
ATOM      7  H4  MOL d          39.211  42.915  36.018  0.00  0.00     0.091 H 
ATOM      8  H6  MOL d          38.921  40.895  37.228  0.00  0.00     0.093 H 
ATOM      9  H8  MOL d          37.576  39.568  34.913  0.00  0.00     0.123 H 
ENDROOT
BRANCH   5  10
ATOM     10  N1  MOL d          38.771  38.426  36.125  0.00  0.00    -0.280 N 
ATOM     11  C2  MOL d          39.254  38.399  37.432  0.00  0.00     0.331 A 
ATOM     12  O2  MOL d          39.460  39.424  38.030  0.00  0.00    -0.246 OA
ATOM     13  N3  MOL d          39.471  37.137  37.962  0.00  0.00    -0.275 N 
ATOM     14  C4  MOL d          39.256  35.912  37.325  0.00  0.00     0.250 A 
ATOM     15  H9  MOL d          39.819  37.099  38.899  0.00  0.00     0.173 HD
ATOM     16  O4  MOL d          39.509  34.898  37.941  0.00  0.00    -0.268 OA
ATOM     17  C5  MOL d          38.760  36.031  35.985  0.00  0.00    -0.002 A 
ATOM     18  C6  MOL d          38.536  37.231  35.440  0.00  0.00    -0.008 A 
ATOM     19  H10 MOL d          38.561  35.131  35.404  0.00  0.00     0.094 H 
ATOM     20  H11 MOL d          38.157  37.278  34.421  0.00  0.00     0.112 H 
ENDBRANCH   5  10
BRANCH   4  21
ATOM     21  O2' MOL d          36.917  41.036  36.720  0.00  0.00    -0.388 OA
ATOM     22  H7  MOL d          36.679  40.259  37.211  0.00  0.00     0.210 HD
ENDBRANCH   4  21
BRANCH   1  23
ATOM     23  C5' MOL d          41.309  41.511  35.035  0.00  0.00     0.059 C 
ATOM     24  H1  MOL d          41.936  41.843  34.194  0.00  0.00     0.079 H 
ATOM     25  H2  MOL d          41.402  42.226  35.867  0.00  0.00     0.079 H 
BRANCH  23  26
ATOM     26  O5' MOL d          41.714  40.199  35.465  0.00  0.00    -0.280 OA
BRANCH  26  27
ATOM     27  P   MOL d          42.801  39.966  36.612  0.00  0.00     0.422 P 
ATOM     28  O3P MOL d          42.927  38.383  36.840  0.00  0.00    -0.617 OA
ATOM     29  O1P MOL d          42.452  40.726  37.885  0.00  0.00    -0.617 OA
ATOM     30  O2P MOL d          44.072  40.465  36.042  0.00  0.00    -0.617 OA
ENDBRANCH  26  27
ENDBRANCH  23  26
ENDBRANCH   1  23
BRANCH   3  31
ATOM     31  O3' MOL d          37.728  42.563  34.614  0.00  0.00    -0.390 OA
ATOM     32  H5  MOL d          37.958  42.457  33.698  0.00  0.00     0.210 HD
ENDBRANCH   3  31
TORSDOF 6
ENDMDL
MODEL 4
REMARK VINA RESULT:      -5.8      1.896      4.635
REMARK  6 active torsions:
REMARK  status: ('A' for Active; 'I' for Inactive)
REMARK    1  A    between atoms: P_2  and  O5'_5 
REMARK    2  A    between atoms: O5'_5  and  C5'_6 
REMARK    3  A    between atoms: C5'_6  and  C4'_7 
REMARK    4  A    between atoms: C3'_9  and  O3'_10 
REMARK    5  A    between atoms: C2'_11  and  O2'_12 
REMARK    6  A    between atoms: C1'_13  and  N1_14 
ROOT
ATOM      1  C4' MOL d          39.311  38.416  34.485  0.00  0.00     0.089 C 
ATOM      2  O4' MOL d          40.545  39.000  34.935  0.00  0.00    -0.353 OA
ATOM      3  C3' MOL d          39.193  37.101  35.225  0.00  0.00     0.091 C 
ATOM      4  C2' MOL d          39.994  37.371  36.505  0.00  0.00     0.105 C 
ATOM      5  C1' MOL d          41.038  38.370  36.061  0.00  0.00     0.141 C 
ATOM      6  H3  MOL d          39.390  38.180  33.413  0.00  0.00     0.090 H 
ATOM      7  H4  MOL d          38.144  36.859  35.447  0.00  0.00     0.091 H 
ATOM      8  H6  MOL d          39.334  37.814  37.264  0.00  0.00     0.093 H 
ATOM      9  H8  MOL d          41.909  37.775  35.748  0.00  0.00     0.123 H 
ENDROOT
BRANCH   5  10
ATOM     10  N1  MOL d          41.567  39.329  37.040  0.00  0.00    -0.280 N 
ATOM     11  C2  MOL d          42.826  39.895  36.846  0.00  0.00     0.331 A 
ATOM     12  O2  MOL d          43.483  39.607  35.877  0.00  0.00    -0.246 OA
ATOM     13  N3  MOL d          43.240  40.780  37.827  0.00  0.00    -0.275 N 
ATOM     14  C4  MOL d          42.532  41.154  38.973  0.00  0.00     0.250 A 
ATOM     15  H9  MOL d          44.142  41.194  37.704  0.00  0.00     0.173 HD
ATOM     16  O4  MOL d          43.055  41.941  39.733  0.00  0.00    -0.268 OA
ATOM     17  C5  MOL d          41.249  40.525  39.095  0.00  0.00    -0.002 A 
ATOM     18  C6  MOL d          40.814  39.667  38.168  0.00  0.00    -0.008 A 
ATOM     19  H10 MOL d          40.621  40.751  39.956  0.00  0.00     0.094 H 
ATOM     20  H11 MOL d          39.833  39.213  38.296  0.00  0.00     0.112 H 
ENDBRANCH   5  10
BRANCH   4  21
ATOM     21  O2' MOL d          40.632  36.210  37.082  0.00  0.00    -0.388 OA
ATOM     22  H7  MOL d          39.990  35.706  37.567  0.00  0.00     0.210 HD
ENDBRANCH   4  21
BRANCH   1  23
ATOM     23  C5' MOL d          38.209  39.438  34.620  0.00  0.00     0.059 C 
ATOM     24  H1  MOL d          37.708  39.583  33.652  0.00  0.00     0.079 H 
ATOM     25  H2  MOL d          37.473  39.103  35.367  0.00  0.00     0.079 H 
BRANCH  23  26
ATOM     26  O5' MOL d          38.820  40.669  35.049  0.00  0.00    -0.280 OA
BRANCH  26  27
ATOM     27  P   MOL d          37.974  41.899  35.617  0.00  0.00     0.422 P 
ATOM     28  O3P MOL d          38.760  43.242  35.230  0.00  0.00    -0.617 OA
ATOM     29  O1P MOL d          37.719  41.768  37.112  0.00  0.00    -0.617 OA
ATOM     30  O2P MOL d          36.698  41.863  34.867  0.00  0.00    -0.617 OA
ENDBRANCH  26  27
ENDBRANCH  23  26
ENDBRANCH   1  23
BRANCH   3  31
ATOM     31  O3' MOL d          39.791  36.034  34.496  0.00  0.00    -0.390 OA
ATOM     32  H5  MOL d          40.683  36.269  34.267  0.00  0.00     0.210 HD
ENDBRANCH   3  31
TORSDOF 6
ENDMDL
MODEL 5
REMARK VINA RESULT:      -5.0      3.061      6.307
REMARK  6 active torsions:
REMARK  status: ('A' for Active; 'I' for Inactive)
REMARK    1  A    between atoms: P_2  and  O5'_5 
REMARK    2  A    between atoms: O5'_5  and  C5'_6 
REMARK    3  A    between atoms: C5'_6  and  C4'_7 
REMARK    4  A    between atoms: C3'_9  and  O3'_10 
REMARK    5  A    between atoms: C2'_11  and  O2'_12 
REMARK    6  A    between atoms: C1'_13  and  N1_14 
ROOT
ATOM      1  C4' MOL d          38.696  38.751  37.111  0.00  0.00     0.089 C 
ATOM      2  O4' MOL d          39.356  39.853  37.755  0.00  0.00    -0.353 OA
ATOM      3  C3' MOL d          38.927  38.953  35.629  0.00  0.00     0.091 C 
ATOM      4  C2' MOL d          40.243  39.740  35.606  0.00  0.00     0.105 C 
ATOM      5  C1' MOL d          40.206  40.523  36.897  0.00  0.00     0.141 C 
ATOM      6  H3  MOL d          37.612  38.826  37.284  0.00  0.00     0.090 H 
ATOM      7  H4  MOL d          39.020  37.992  35.104  0.00  0.00     0.091 H 
ATOM      8  H6  MOL d          41.090  39.039  35.604  0.00  0.00     0.093 H 
ATOM      9  H8  MOL d          39.731  41.485  36.652  0.00  0.00     0.123 H 
ENDROOT
BRANCH   5  10
ATOM     10  N1  MOL d          41.473  40.884  37.548  0.00  0.00    -0.280 N 
ATOM     11  C2  MOL d          42.581  41.216  36.772  0.00  0.00     0.331 A 
ATOM     12  O2  MOL d          42.509  41.214  35.570  0.00  0.00    -0.246 OA
ATOM     13  N3  MOL d          43.731  41.532  37.478  0.00  0.00    -0.275 N 
ATOM     14  C4  MOL d          43.884  41.551  38.867  0.00  0.00     0.250 A 
ATOM     15  H9  MOL d          44.537  41.772  36.936  0.00  0.00     0.173 HD
ATOM     16  O4  MOL d          44.971  41.847  39.316  0.00  0.00    -0.268 OA
ATOM     17  C5  MOL d          42.696  41.197  39.589  0.00  0.00    -0.002 A 
ATOM     18  C6  MOL d          41.568  40.887  38.943  0.00  0.00    -0.008 A 
ATOM     19  H10 MOL d          42.715  41.181  40.677  0.00  0.00     0.094 H 
ATOM     20  H11 MOL d          40.688  40.626  39.527  0.00  0.00     0.112 H 
ENDBRANCH   5  10
BRANCH   4  21
ATOM     21  O2' MOL d          40.398  40.638  34.485  0.00  0.00    -0.388 OA
ATOM     22  H7  MOL d          40.141  40.193  33.686  0.00  0.00     0.210 HD
ENDBRANCH   4  21
BRANCH   1  23
ATOM     23  C5' MOL d          39.147  37.464  37.758  0.00  0.00     0.059 C 
ATOM     24  H1  MOL d          39.844  37.680  38.581  0.00  0.00     0.079 H 
ATOM     25  H2  MOL d          38.278  36.913  38.148  0.00  0.00     0.079 H 
BRANCH  23  26
ATOM     26  O5' MOL d          39.807  36.687  36.742  0.00  0.00    -0.280 OA
BRANCH  26  27
ATOM     27  P   MOL d          39.678  35.097  36.654  0.00  0.00     0.422 P 
ATOM     28  O3P MOL d          38.674  34.764  35.448  0.00  0.00    -0.617 OA
ATOM     29  O1P MOL d          39.238  34.491  37.980  0.00  0.00    -0.617 OA
ATOM     30  O2P MOL d          41.031  34.624  36.290  0.00  0.00    -0.617 OA
ENDBRANCH  26  27
ENDBRANCH  23  26
ENDBRANCH   1  23
BRANCH   3  31
ATOM     31  O3' MOL d          37.890  39.728  35.037  0.00  0.00    -0.390 OA
ATOM     32  H5  MOL d          37.246  39.148  34.648  0.00  0.00     0.210 HD
ENDBRANCH   3  31
TORSDOF 6
ENDMDL
MODEL 6
REMARK VINA RESULT:      -4.3      2.744      5.938
REMARK  6 active torsions:
REMARK  status: ('A' for Active; 'I' for Inactive)
REMARK    1  A    between atoms: P_2  and  O5'_5 
REMARK    2  A    between atoms: O5'_5  and  C5'_6 
REMARK    3  A    between atoms: C5'_6  and  C4'_7 
REMARK    4  A    between atoms: C3'_9  and  O3'_10 
REMARK    5  A    between atoms: C2'_11  and  O2'_12 
REMARK    6  A    between atoms: C1'_13  and  N1_14 
ROOT
ATOM      1  C4' MOL d          38.291  38.422  36.845  0.00  0.00     0.089 C 
ATOM      2  O4' MOL d          39.560  38.851  37.364  0.00  0.00    -0.353 OA
ATOM      3  C3' MOL d          37.555  39.693  36.477  0.00  0.00     0.091 C 
ATOM      4  C2' MOL d          38.704  40.663  36.180  0.00  0.00     0.105 C 
ATOM      5  C1' MOL d          39.815  40.179  37.082  0.00  0.00     0.141 C 
ATOM      6  H3  MOL d          37.716  37.934  37.647  0.00  0.00     0.090 H 
ATOM      7  H4  MOL d          36.913  39.543  35.598  0.00  0.00     0.091 H 
ATOM      8  H6  MOL d          38.998  40.572  35.123  0.00  0.00     0.093 H 
ATOM      9  H8  MOL d          39.704  40.739  38.022  0.00  0.00     0.123 H 
ENDROOT
BRANCH   5  10
ATOM     10  N1  MOL d          41.210  40.397  36.675  0.00  0.00    -0.280 N 
ATOM     11  C2  MOL d          41.617  40.058  35.386  0.00  0.00     0.331 A 
ATOM     12  O2  MOL d          40.833  39.591  34.599  0.00  0.00    -0.246 OA
ATOM     13  N3  MOL d          42.953  40.293  35.101  0.00  0.00    -0.275 N 
ATOM     14  C4  MOL d          43.913  40.828  35.964  0.00  0.00     0.250 A 
ATOM     15  H9  MOL d          43.262  40.055  34.180  0.00  0.00     0.173 HD
ATOM     16  O4  MOL d          45.044  40.959  35.546  0.00  0.00    -0.268 OA
ATOM     17  C5  MOL d          43.410  41.147  37.269  0.00  0.00    -0.002 A 
ATOM     18  C6  MOL d          42.128  40.936  37.580  0.00  0.00    -0.008 A 
ATOM     19  H10 MOL d          44.083  41.568  38.015  0.00  0.00     0.094 H 
ATOM     20  H11 MOL d          41.785  41.194  38.580  0.00  0.00     0.112 H 
ENDBRANCH   5  10
BRANCH   4  21
ATOM     21  O2' MOL d          38.416  42.053  36.450  0.00  0.00    -0.388 OA
ATOM     22  H7  MOL d          39.229  42.520  36.603  0.00  0.00     0.210 HD
ENDBRANCH   4  21
BRANCH   1  23
ATOM     23  C5' MOL d          38.524  37.373  35.785  0.00  0.00     0.059 C 
ATOM     24  H1  MOL d          37.718  37.408  35.037  0.00  0.00     0.079 H 
ATOM     25  H2  MOL d          39.492  37.545  35.291  0.00  0.00     0.079 H 
BRANCH  23  26
ATOM     26  O5' MOL d          38.527  36.094  36.446  0.00  0.00    -0.280 OA
BRANCH  26  27
ATOM     27  P   MOL d          39.874  35.306  36.788  0.00  0.00     0.422 P 
ATOM     28  O3P MOL d          39.583  34.393  38.074  0.00  0.00    -0.617 OA
ATOM     29  O1P MOL d          41.050  36.253  36.984  0.00  0.00    -0.617 OA
ATOM     30  O2P MOL d          40.106  34.424  35.623  0.00  0.00    -0.617 OA
ENDBRANCH  26  27
ENDBRANCH  23  26
ENDBRANCH   1  23
BRANCH   3  31
ATOM     31  O3' MOL d          36.778  40.182  37.565  0.00  0.00    -0.390 OA
ATOM     32  H5  MOL d          36.043  39.599  37.715  0.00  0.00     0.210 HD
ENDBRANCH   3  31
TORSDOF 6
ENDMDL
MODEL 7
REMARK VINA RESULT:      -3.6      1.453      2.107
REMARK  6 active torsions:
REMARK  status: ('A' for Active; 'I' for Inactive)
REMARK    1  A    between atoms: P_2  and  O5'_5 
REMARK    2  A    between atoms: O5'_5  and  C5'_6 
REMARK    3  A    between atoms: C5'_6  and  C4'_7 
REMARK    4  A    between atoms: C3'_9  and  O3'_10 
REMARK    5  A    between atoms: C2'_11  and  O2'_12 
REMARK    6  A    between atoms: C1'_13  and  N1_14 
ROOT
ATOM      1  C4' MOL d          41.150  40.326  38.282  0.00  0.00     0.089 C 
ATOM      2  O4' MOL d          40.786  38.940  38.173  0.00  0.00    -0.353 OA
ATOM      3  C3' MOL d          42.303  40.517  37.319  0.00  0.00     0.091 C 
ATOM      4  C2' MOL d          42.043  39.426  36.274  0.00  0.00     0.105 C 
ATOM      5  C1' MOL d          41.354  38.339  37.066  0.00  0.00     0.141 C 
ATOM      6  H3  MOL d          41.535  40.523  39.293  0.00  0.00     0.090 H 
ATOM      7  H4  MOL d          42.286  41.521  36.870  0.00  0.00     0.091 H 
ATOM      8  H6  MOL d          41.375  39.817  35.493  0.00  0.00     0.093 H 
ATOM      9  H8  MOL d          42.154  37.677  37.428  0.00  0.00     0.123 H 
ENDROOT
BRANCH   5  10
ATOM     10  N1  MOL d          40.409  37.448  36.379  0.00  0.00    -0.280 N 
ATOM     11  C2  MOL d          40.028  37.719  35.066  0.00  0.00     0.331 A 
ATOM     12  O2  MOL d          40.471  38.678  34.487  0.00  0.00    -0.246 OA
ATOM     13  N3  MOL d          39.127  36.827  34.509  0.00  0.00    -0.275 N 
ATOM     14  C4  MOL d          38.574  35.701  35.124  0.00  0.00     0.250 A 
ATOM     15  H9  MOL d          38.842  37.008  33.568  0.00  0.00     0.173 HD
ATOM     16  O4  MOL d          37.790  35.030  34.485  0.00  0.00    -0.268 OA
ATOM     17  C5  MOL d          39.018  35.495  36.472  0.00  0.00    -0.002 A 
ATOM     18  C6  MOL d          39.887  36.334  37.043  0.00  0.00    -0.008 A 
ATOM     19  H10 MOL d          38.642  34.644  37.037  0.00  0.00     0.094 H 
ATOM     20  H11 MOL d          40.201  36.142  38.067  0.00  0.00     0.112 H 
ENDBRANCH   5  10
BRANCH   4  21
ATOM     21  O2' MOL d          43.227  38.899  35.635  0.00  0.00    -0.388 OA
ATOM     22  H7  MOL d          43.996  39.319  36.001  0.00  0.00     0.210 HD
ENDBRANCH   4  21
BRANCH   1  23
ATOM     23  C5' MOL d          39.910  41.171  38.122  0.00  0.00     0.059 C 
ATOM     24  H1  MOL d          39.480  41.399  39.109  0.00  0.00     0.079 H 
ATOM     25  H2  MOL d          40.157  42.110  37.604  0.00  0.00     0.079 H 
BRANCH  23  26
ATOM     26  O5' MOL d          38.973  40.408  37.340  0.00  0.00    -0.280 OA
BRANCH  26  27
ATOM     27  P   MOL d          38.158  41.037  36.118  0.00  0.00     0.422 P 
ATOM     28  O3P MOL d          39.180  41.937  35.272  0.00  0.00    -0.617 OA
ATOM     29  O1P MOL d          36.935  41.811  36.594  0.00  0.00    -0.617 OA
ATOM     30  O2P MOL d          37.750  39.878  35.294  0.00  0.00    -0.617 OA
ENDBRANCH  26  27
ENDBRANCH  23  26
ENDBRANCH   1  23
BRANCH   3  31
ATOM     31  O3' MOL d          43.557  40.292  37.953  0.00  0.00    -0.390 OA
ATOM     32  H5  MOL d          43.541  40.666  38.826  0.00  0.00     0.210 HD
ENDBRANCH   3  31
TORSDOF 6
ENDMDL
