MODEL 1
REMARK VINA RESULT:      -5.3      0.000      0.000
REMARK WARNING: 32 MAX_TORS EXCEEDED!!!
REMARK  36 active torsions:
REMARK  status: ('A' for Active; 'I' for Inactive)
REMARK    1  A    between atoms: C6_6  and  N6_7 
REMARK    2  A    between atoms: CCN_19  and  N9_10 
REMARK    3  A    between atoms: CCK_16  and  OAN_12 
REMARK    4  A    between atoms: CCL_17  and  OAO_13 
REMARK    5  A    between atoms: CCC_15  and  CCM_18 
REMARK       I    between atoms: NBR_27  and  CCC_15 
REMARK    6  A    between atoms: CBZ_20  and  CBG_22 
REMARK       I    between atoms: NBS_28  and  CBZ_20 
REMARK    7  A    between atoms: CBG_22  and  CAX_23 
REMARK    8  A    between atoms: CAX_23  and  CAU_24 
REMARK    9  A    between atoms: CAU_24  and  CAW_25 
REMARK   10  A    between atoms: CAW_25  and  CBD_26 
REMARK   11  A    between atoms: CBD_26  and  NBR_27 
REMARK   12  A    between atoms: CCI_29  and  NBS_28 
REMARK   13  A    between atoms: CCB_30  and  CCI_29 
REMARK   14  A    between atoms: CCI_29  and  CBJ_32 
REMARK       I    between atoms: NBQ_44  and  CCB_30 
REMARK   15  A    between atoms: CBJ_32  and  CAZ_33 
REMARK   16  A    between atoms: CAZ_33  and  CAS_34 
REMARK   17  A    between atoms: CAS_34  and  CAR_35 
REMARK   18  A    between atoms: CAR_35  and  NAC_36 
REMARK   19  A    between atoms: CBH_39  and  CCA_37 
REMARK       I    between atoms: CCA_37  and  NBT_45 
REMARK   20  A    between atoms: CAY_40  and  CBH_39 
REMARK   21  A    between atoms: CAT_41  and  CAY_40 
REMARK   22  A    between atoms: CAV_42  and  CAT_41 
REMARK   23  A    between atoms: CBC_43  and  CAV_42 
REMARK   24  A    between atoms: CBC_43  and  NBQ_44 
REMARK   25  A    between atoms: NBT_45  and  CCJ_46 
REMARK   26  A    between atoms: CCJ_46  and  CBK_47 
REMARK   27  A    between atoms: CCJ_46  and  CCD_54 
REMARK   28  A    between atoms: CBK_47  and  CBB_48 
REMARK   29  A    between atoms: CBB_48  and  CBF_49 
REMARK   30  A    between atoms: CBF_49  and  NBP_50 
REMARK       I    between atoms: NBP_50  and  CBX_51 
REMARK       I    between atoms: CBX_51  and  NAB_52 
REMARK       I    between atoms: CBX_51  and  NAE_53 
REMARK       I    between atoms: CCD_54  and  N_56 
REMARK   31  A    between atoms: N_56  and  CA_57 
REMARK   32  A    between atoms: CA_57  and  CB_58 
REMARK   33  A    between atoms: CA_57  and  C_65 
REMARK   34  A    between atoms: CB_58  and  CG_59 
REMARK   35  A    between atoms: CG_59  and  CD_60 
REMARK   36  A    between atoms: CD_60  and  NE_61 
REMARK       I    between atoms: NE_61  and  CZ_62 
REMARK       I    between atoms: CZ_62  and  NH1_63 
REMARK       I    between atoms: C_65  and  NAF_67 
ROOT
ATOM      1  CCB A02 d          17.914   4.371   6.801  0.00  0.00     0.240 C 
ATOM      2  OAK A02 d          18.575   3.991   5.842  0.00  0.00    -0.271 OA
ATOM      3  NBQ A02 d          18.412   5.092   7.804  0.00  0.00    -0.359 N 
ATOM      4  H45 A02 d          17.806   5.353   8.556  0.00  0.00     0.162 HD
ENDROOT
BRANCH   1   5
ATOM      5  CCI A02 d          16.418   3.992   6.924  0.00  0.00     0.089 C 
ATOM      6  H23 A02 d          16.290   3.022   6.421  0.00  0.00     0.087 H 
BRANCH   5   7
ATOM      7  NBS A02 d          15.567   4.976   6.207  0.00  0.00    -0.348 N 
ATOM      8  CBZ A02 d          15.409   6.233   6.652  0.00  0.00     0.218 C 
ATOM      9  OAI A02 d          15.903   6.667   7.700  0.00  0.00    -0.274 OA
ATOM     10  H22 A02 d          15.100   4.695   5.369  0.00  0.00     0.163 HD
BRANCH   8  11
ATOM     11  CBG A02 d          14.499   7.125   5.783  0.00  0.00     0.009 C 
ATOM     12  H11 A02 d          14.773   6.990   4.727  0.00  0.00     0.047 H 
ATOM     13  H12 A02 d          14.653   8.175   6.070  0.00  0.00     0.047 H 
BRANCH  11  14
ATOM     14  CAX A02 d          13.010   6.772   5.961  0.00  0.00    -0.057 C 
ATOM     15  H13 A02 d          12.891   6.165   6.871  0.00  0.00     0.033 H 
ATOM     16  H14 A02 d          12.672   6.193   5.088  0.00  0.00     0.033 H 
BRANCH  14  17
ATOM     17  CAU A02 d          12.150   8.035   6.086  0.00  0.00    -0.063 C 
ATOM     18  H15 A02 d          12.469   8.754   5.317  0.00  0.00     0.033 H 
ATOM     19  H16 A02 d          12.309   8.470   7.083  0.00  0.00     0.033 H 
BRANCH  17  20
ATOM     20  CAW A02 d          10.655   7.758   5.905  0.00  0.00    -0.050 C 
ATOM     21  H17 A02 d          10.510   6.793   5.397  0.00  0.00     0.035 H 
ATOM     22  H18 A02 d          10.194   8.559   5.309  0.00  0.00     0.035 H 
BRANCH  20  23
ATOM     23  CBD A02 d          10.023   7.714   7.299  0.00  0.00    -0.005 C 
ATOM     24  H19 A02 d           9.764   6.672   7.535  0.00  0.00     0.064 H 
ATOM     25  H20 A02 d           9.110   8.326   7.290  0.00  0.00     0.064 H 
BRANCH  23  26
ATOM     26  NBR A02 d          10.923   8.227   8.346  0.00  0.00    -0.359 N 
ATOM     27  CCC A02 d          10.736   8.048   9.655  0.00  0.00     0.249 C 
ATOM     28  OAL A02 d           9.748   7.489  10.152  0.00  0.00    -0.271 OA
ATOM     29  H21 A02 d          11.729   8.743   8.057  0.00  0.00     0.162 HD
BRANCH  27  30
ATOM     30  CCM A02 d          11.842   8.584  10.583  0.00  0.00     0.144 C 
ATOM     31  OBV A02 d          11.764   7.976  11.916  0.00  0.00    -0.346 OA
ATOM     32  CCN A02 d          12.817   6.976  12.045  0.00  0.00     0.140 C 
ATOM     33  CCL A02 d          13.377   6.796  10.621  0.00  0.00     0.105 C 
ATOM     34  H10 A02 d          13.611   7.358  12.704  0.00  0.00     0.123 H 
ATOM     35  CCK A02 d          13.209   8.184  10.029  0.00  0.00     0.098 C 
ATOM     36  H8  A02 d          12.818   6.036  10.055  0.00  0.00     0.093 H 
ATOM     37  H7  A02 d          13.235   8.178   8.929  0.00  0.00     0.091 H 
ATOM     38  H9  A02 d          11.760   9.679  10.659  0.00  0.00     0.102 H 
BRANCH  32  39
ATOM     39  N9  A02 d          12.289   5.678  12.645  0.00  0.00    -0.294 N 
ATOM     40  C4  A02 d          13.018   4.619  12.982  0.00  0.00     0.167 A 
ATOM     41  N3  A02 d          14.331   4.349  12.911  0.00  0.00    -0.222 NA
ATOM     42  C5  A02 d          12.146   3.658  13.477  0.00  0.00     0.149 A 
ATOM     43  C2  A02 d          14.801   3.180  13.325  0.00  0.00     0.091 A 
ATOM     44  N1  A02 d          13.984   2.237  13.816  0.00  0.00    -0.222 NA
ATOM     45  H1  A02 d          15.865   2.982  13.265  0.00  0.00     0.146 H 
ATOM     46  C6  A02 d          12.660   2.443  13.899  0.00  0.00     0.155 A 
ATOM     47  N7  A02 d          10.911   4.154  13.439  0.00  0.00    -0.236 NA
ATOM     48  C8  A02 d          11.011   5.391  12.941  0.00  0.00     0.071 A 
ATOM     49  H4  A02 d          10.173   6.071  12.794  0.00  0.00     0.144 H 
BRANCH  46  50
ATOM     50  N6  A02 d          11.848   1.504  14.374  0.00  0.00    -0.382 N 
ATOM     51  H2  A02 d          11.587   1.506  15.370  0.00  0.00     0.157 HD
ATOM     52  H3  A02 d          11.480   0.775  13.746  0.00  0.00     0.157 HD
ENDBRANCH  46  50
ENDBRANCH  32  39
BRANCH  33  53
ATOM     53  OAO A02 d          14.756   6.461  10.670  0.00  0.00    -0.388 OA
ATOM     54  H6  A02 d          14.860   5.612  11.082  0.00  0.00     0.210 HD
ENDBRANCH  33  53
BRANCH  35  55
ATOM     55  OAN A02 d          14.214   9.067  10.563  0.00  0.00    -0.390 OA
ATOM     56  H5  A02 d          14.559   8.701  11.370  0.00  0.00     0.210 HD
ENDBRANCH  35  55
ENDBRANCH  27  30
ENDBRANCH  23  26
ENDBRANCH  20  23
ENDBRANCH  17  20
ENDBRANCH  14  17
ENDBRANCH  11  14
ENDBRANCH   8  11
ENDBRANCH   5   7
BRANCH   5  57
ATOM     57  CBJ A02 d          15.960   3.798   8.388  0.00  0.00    -0.038 C 
ATOM     58  H24 A02 d          15.229   4.587   8.622  0.00  0.00     0.036 H 
ATOM     59  H25 A02 d          16.841   3.911   9.036  0.00  0.00     0.036 H 
BRANCH  57  60
ATOM     60  CAZ A02 d          15.313   2.445   8.698  0.00  0.00    -0.061 C 
ATOM     61  H26 A02 d          14.264   2.459   8.366  0.00  0.00     0.033 H 
ATOM     62  H27 A02 d          15.352   2.264   9.782  0.00  0.00     0.033 H 
BRANCH  60  63
ATOM     63  CAS A02 d          16.064   1.314   7.965  0.00  0.00    -0.043 C 
ATOM     64  H28 A02 d          16.487   0.622   8.709  0.00  0.00     0.035 H 
ATOM     65  H29 A02 d          16.877   1.752   7.367  0.00  0.00     0.035 H 
BRANCH  63  66
ATOM     66  CAR A02 d          15.122   0.534   7.034  0.00  0.00     0.080 C 
ATOM     67  H30 A02 d          14.929  -0.461   7.462  0.00  0.00     0.075 H 
ATOM     68  H31 A02 d          15.595   0.424   6.047  0.00  0.00     0.075 H 
BRANCH  66  69
ATOM     69  NAC A02 d          13.847   1.259   6.886  0.00  0.00    -0.079 N 
ATOM     70  H32 A02 d          13.907   2.145   7.362  0.00  0.00     0.274 HD
ATOM     71  H33 A02 d          13.101   0.712   7.287  0.00  0.00     0.274 HD
ATOM     72  H34 A02 d          13.661   1.414   5.907  0.00  0.00     0.274 HD
ENDBRANCH  66  69
ENDBRANCH  63  66
ENDBRANCH  60  63
ENDBRANCH  57  60
ENDBRANCH   5  57
ENDBRANCH   1   5
BRANCH   3  73
ATOM     73  CBC A02 d          19.828   5.522   7.847  0.00  0.00    -0.005 C 
ATOM     74  H43 A02 d          20.264   5.235   8.816  0.00  0.00     0.064 H 
ATOM     75  H44 A02 d          20.381   5.028   7.035  0.00  0.00     0.064 H 
BRANCH  73  76
ATOM     76  CAV A02 d          19.935   7.042   7.677  0.00  0.00    -0.050 C 
ATOM     77  H41 A02 d          18.970   7.503   7.935  0.00  0.00     0.035 H 
ATOM     78  H42 A02 d          20.716   7.427   8.349  0.00  0.00     0.035 H 
BRANCH  76  79
ATOM     79  CAT A02 d          20.294   7.397   6.230  0.00  0.00    -0.063 C 
ATOM     80  H39 A02 d          20.891   8.320   6.228  0.00  0.00     0.033 H 
ATOM     81  H40 A02 d          20.886   6.576   5.798  0.00  0.00     0.033 H 
BRANCH  79  82
ATOM     82  CAY A02 d          19.045   7.613   5.369  0.00  0.00    -0.057 C 
ATOM     83  H37 A02 d          19.341   7.626   4.309  0.00  0.00     0.033 H 
ATOM     84  H38 A02 d          18.344   6.783   5.544  0.00  0.00     0.033 H 
BRANCH  82  85
ATOM     85  CBH A02 d          18.343   8.939   5.706  0.00  0.00     0.009 C 
ATOM     86  H35 A02 d          17.436   8.723   6.290  0.00  0.00     0.047 H 
ATOM     87  H36 A02 d          19.025   9.561   6.304  0.00  0.00     0.047 H 
BRANCH  85  88
ATOM     88  CCA A02 d          17.946   9.711   4.436  0.00  0.00     0.218 C 
ATOM     89  OAJ A02 d          17.478   9.121   3.457  0.00  0.00    -0.274 OA
ATOM     90  NBT A02 d          18.140  11.034   4.497  0.00  0.00    -0.348 N 
ATOM     91  H46 A02 d          18.515  11.422   5.339  0.00  0.00     0.163 HD
BRANCH  90  92
ATOM     92  CCJ A02 d          17.825  11.952   3.375  0.00  0.00     0.089 C 
ATOM     93  H47 A02 d          17.371  11.359   2.569  0.00  0.00     0.087 H 
BRANCH  92  94
ATOM     94  CBK A02 d          19.109  12.616   2.811  0.00  0.00    -0.036 C 
ATOM     95  H48 A02 d          19.976  12.025   3.141  0.00  0.00     0.036 H 
ATOM     96  H49 A02 d          19.181  13.633   3.223  0.00  0.00     0.036 H 
BRANCH  94  97
ATOM     97  CBB A02 d          19.153  12.717   1.276  0.00  0.00    -0.048 C 
ATOM     98  H50 A02 d          18.153  12.488   0.878  0.00  0.00     0.035 H 
ATOM     99  H51 A02 d          19.876  11.981   0.894  0.00  0.00     0.035 H 
BRANCH  97 100
ATOM    100  CBF A02 d          19.569  14.116   0.795  0.00  0.00     0.009 C 
ATOM    101  H52 A02 d          18.826  14.498   0.079  0.00  0.00     0.064 H 
ATOM    102  H53 A02 d          20.554  14.064   0.309  0.00  0.00     0.064 H 
BRANCH 100 103
ATOM    103  NBP A02 d          19.636  15.008   1.968  0.00  0.00    -0.227 N 
ATOM    104  CBX A02 d          20.222  16.213   1.962  0.00  0.00     0.665 C 
ATOM    105  NAB A02 d          20.791  16.724   0.872  0.00  0.00    -0.235 N 
ATOM    106  NAE A02 d          20.223  16.922   3.087  0.00  0.00    -0.235 N 
ATOM    107  H55 A02 d          21.232  17.655   0.909  0.00  0.00     0.174 HD
ATOM    108  H56 A02 d          20.791  16.189  -0.008  0.00  0.00     0.174 HD
ATOM    109  H57 A02 d          19.787  16.540   3.938  0.00  0.00     0.174 HD
ATOM    110  H58 A02 d          20.660  17.855   3.107  0.00  0.00     0.174 HD
ATOM    111  H54 A02 d          19.207  14.684   2.846  0.00  0.00     0.177 HD
ENDBRANCH 100 103
ENDBRANCH  97 100
ENDBRANCH  94  97
ENDBRANCH  92  94
BRANCH  92 112
ATOM    112  CCD A02 d          16.794  13.018   3.821  0.00  0.00     0.241 C 
ATOM    113  OAM A02 d          16.840  13.511   4.948  0.00  0.00    -0.271 OA
ATOM    114  N   A02 d          15.877  13.344   2.907  0.00  0.00    -0.346 N 
ATOM    115  H59 A02 d          15.915  12.892   2.015  0.00  0.00     0.163 HD
BRANCH 114 116
ATOM    116  CA  A02 d          14.807  14.339   3.144  0.00  0.00     0.089 C 
ATOM    117  H60 A02 d          15.042  15.247   2.571  0.00  0.00     0.087 H 
BRANCH 116 118
ATOM    118  CB  A02 d          14.755  14.695   4.635  0.00  0.00    -0.036 C 
ATOM    119  H61 A02 d          15.653  14.296   5.130  0.00  0.00     0.036 H 
ATOM    120  H62 A02 d          13.858  14.240   5.081  0.00  0.00     0.036 H 
BRANCH 118 121
ATOM    121  CG  A02 d          14.702  16.209   4.847  0.00  0.00    -0.048 C 
ATOM    122  H63 A02 d          14.373  16.416   5.877  0.00  0.00     0.035 H 
ATOM    123  H64 A02 d          13.983  16.646   4.139  0.00  0.00     0.035 H 
BRANCH 121 124
ATOM    124  CD  A02 d          16.069  16.848   4.625  0.00  0.00     0.009 C 
ATOM    125  H65 A02 d          15.952  17.918   4.401  0.00  0.00     0.064 H 
ATOM    126  H66 A02 d          16.584  16.352   3.788  0.00  0.00     0.064 H 
BRANCH 124 127
ATOM    127  NE  A02 d          16.837  16.677   5.854  0.00  0.00    -0.227 N 
ATOM    128  CZ  A02 d          17.831  17.470   6.254  0.00  0.00     0.665 C 
ATOM    129  NH1 A02 d          18.213  18.553   5.577  0.00  0.00    -0.235 N 
ATOM    130  NH2 A02 d          18.432  17.150   7.392  0.00  0.00    -0.235 N 
ATOM    131  H68 A02 d          18.987  19.133   5.930  0.00  0.00     0.174 HD
ATOM    132  H69 A02 d          17.734  18.808   4.702  0.00  0.00     0.174 HD
ATOM    133  H70 A02 d          18.135  16.313   7.914  0.00  0.00     0.174 HD
ATOM    134  H71 A02 d          19.195  17.740   7.755  0.00  0.00     0.174 HD
ATOM    135  H67 A02 d          16.592  15.881   6.461  0.00  0.00     0.177 HD
ENDBRANCH 124 127
ENDBRANCH 121 124
ENDBRANCH 118 121
ENDBRANCH 116 118
BRANCH 116 136
ATOM    136  C   A02 d          13.430  13.811   2.682  0.00  0.00     0.238 C 
ATOM    137  O   A02 d          12.879  14.237   1.664  0.00  0.00    -0.271 OA
ATOM    138  NAF A02 d          12.911  12.857   3.452  0.00  0.00    -0.368 N 
ATOM    139  H72 A02 d          12.022  12.459   3.225  0.00  0.00     0.159 HD
ATOM    140  H73 A02 d          13.411  12.538   4.258  0.00  0.00     0.159 HD
ENDBRANCH 116 136
ENDBRANCH 114 116
ENDBRANCH  92 112
ENDBRANCH  90  92
ENDBRANCH  85  88
ENDBRANCH  82  85
ENDBRANCH  79  82
ENDBRANCH  76  79
ENDBRANCH  73  76
ENDBRANCH   3  73
TORSDOF 36
ENDMDL
MODEL 2
REMARK VINA RESULT:      -4.9      3.547      9.571
REMARK WARNING: 32 MAX_TORS EXCEEDED!!!
REMARK  36 active torsions:
REMARK  status: ('A' for Active; 'I' for Inactive)
REMARK    1  A    between atoms: C6_6  and  N6_7 
REMARK    2  A    between atoms: CCN_19  and  N9_10 
REMARK    3  A    between atoms: CCK_16  and  OAN_12 
REMARK    4  A    between atoms: CCL_17  and  OAO_13 
REMARK    5  A    between atoms: CCC_15  and  CCM_18 
REMARK       I    between atoms: NBR_27  and  CCC_15 
REMARK    6  A    between atoms: CBZ_20  and  CBG_22 
REMARK       I    between atoms: NBS_28  and  CBZ_20 
REMARK    7  A    between atoms: CBG_22  and  CAX_23 
REMARK    8  A    between atoms: CAX_23  and  CAU_24 
REMARK    9  A    between atoms: CAU_24  and  CAW_25 
REMARK   10  A    between atoms: CAW_25  and  CBD_26 
REMARK   11  A    between atoms: CBD_26  and  NBR_27 
REMARK   12  A    between atoms: CCI_29  and  NBS_28 
REMARK   13  A    between atoms: CCB_30  and  CCI_29 
REMARK   14  A    between atoms: CCI_29  and  CBJ_32 
REMARK       I    between atoms: NBQ_44  and  CCB_30 
REMARK   15  A    between atoms: CBJ_32  and  CAZ_33 
REMARK   16  A    between atoms: CAZ_33  and  CAS_34 
REMARK   17  A    between atoms: CAS_34  and  CAR_35 
REMARK   18  A    between atoms: CAR_35  and  NAC_36 
REMARK   19  A    between atoms: CBH_39  and  CCA_37 
REMARK       I    between atoms: CCA_37  and  NBT_45 
REMARK   20  A    between atoms: CAY_40  and  CBH_39 
REMARK   21  A    between atoms: CAT_41  and  CAY_40 
REMARK   22  A    between atoms: CAV_42  and  CAT_41 
REMARK   23  A    between atoms: CBC_43  and  CAV_42 
REMARK   24  A    between atoms: CBC_43  and  NBQ_44 
REMARK   25  A    between atoms: NBT_45  and  CCJ_46 
REMARK   26  A    between atoms: CCJ_46  and  CBK_47 
REMARK   27  A    between atoms: CCJ_46  and  CCD_54 
REMARK   28  A    between atoms: CBK_47  and  CBB_48 
REMARK   29  A    between atoms: CBB_48  and  CBF_49 
REMARK   30  A    between atoms: CBF_49  and  NBP_50 
REMARK       I    between atoms: NBP_50  and  CBX_51 
REMARK       I    between atoms: CBX_51  and  NAB_52 
REMARK       I    between atoms: CBX_51  and  NAE_53 
REMARK       I    between atoms: CCD_54  and  N_56 
REMARK   31  A    between atoms: N_56  and  CA_57 
REMARK   32  A    between atoms: CA_57  and  CB_58 
REMARK   33  A    between atoms: CA_57  and  C_65 
REMARK   34  A    between atoms: CB_58  and  CG_59 
REMARK   35  A    between atoms: CG_59  and  CD_60 
REMARK   36  A    between atoms: CD_60  and  NE_61 
REMARK       I    between atoms: NE_61  and  CZ_62 
REMARK       I    between atoms: CZ_62  and  NH1_63 
REMARK       I    between atoms: C_65  and  NAF_67 
ROOT
ATOM      1  CCB A02 d          17.281   7.593   8.480  0.00  0.00     0.240 C 
ATOM      2  OAK A02 d          17.552   8.447   9.315  0.00  0.00    -0.271 OA
ATOM      3  NBQ A02 d          18.186   6.795   7.917  0.00  0.00    -0.359 N 
ATOM      4  H45 A02 d          17.883   6.129   7.234  0.00  0.00     0.162 HD
ENDROOT
BRANCH   1   5
ATOM      5  CCI A02 d          15.824   7.409   7.988  0.00  0.00     0.089 C 
ATOM      6  H23 A02 d          15.844   6.630   7.212  0.00  0.00     0.087 H 
BRANCH   5   7
ATOM      7  NBS A02 d          15.325   8.654   7.351  0.00  0.00    -0.348 N 
ATOM      8  CBZ A02 d          14.705   9.612   8.058  0.00  0.00     0.218 C 
ATOM      9  OAI A02 d          14.453   9.532   9.267  0.00  0.00    -0.274 OA
ATOM     10  H22 A02 d          15.454   8.783   6.368  0.00  0.00     0.163 HD
BRANCH   8  11
ATOM     11  CBG A02 d          14.259  10.842   7.242  0.00  0.00     0.009 C 
ATOM     12  H11 A02 d          14.021  11.662   7.935  0.00  0.00     0.047 H 
ATOM     13  H12 A02 d          13.361  10.578   6.664  0.00  0.00     0.047 H 
BRANCH  11  14
ATOM     14  CAX A02 d          15.357  11.315   6.269  0.00  0.00    -0.057 C 
ATOM     15  H13 A02 d          15.380  10.640   5.400  0.00  0.00     0.033 H 
ATOM     16  H14 A02 d          16.329  11.285   6.783  0.00  0.00     0.033 H 
BRANCH  14  17
ATOM     17  CAU A02 d          15.092  12.745   5.784  0.00  0.00    -0.063 C 
ATOM     18  H15 A02 d          15.600  12.888   4.819  0.00  0.00     0.033 H 
ATOM     19  H16 A02 d          15.503  13.448   6.523  0.00  0.00     0.033 H 
BRANCH  17  20
ATOM     20  CAW A02 d          13.601  13.045   5.600  0.00  0.00    -0.050 C 
ATOM     21  H17 A02 d          13.007  12.436   6.298  0.00  0.00     0.035 H 
ATOM     22  H18 A02 d          13.297  12.819   4.567  0.00  0.00     0.035 H 
BRANCH  20  23
ATOM     23  CBD A02 d          13.391  14.532   5.894  0.00  0.00    -0.005 C 
ATOM     24  H19 A02 d          13.231  14.658   6.975  0.00  0.00     0.064 H 
ATOM     25  H20 A02 d          12.500  14.875   5.349  0.00  0.00     0.064 H 
BRANCH  23  26
ATOM     26  NBR A02 d          14.541  15.359   5.487  0.00  0.00    -0.359 N 
ATOM     27  CCC A02 d          14.550  16.166   4.426  0.00  0.00     0.249 C 
ATOM     28  OAL A02 d          13.619  16.268   3.614  0.00  0.00    -0.271 OA
ATOM     29  H21 A02 d          15.369  15.312   6.045  0.00  0.00     0.162 HD
BRANCH  27  30
ATOM     30  CCM A02 d          15.819  17.016   4.225  0.00  0.00     0.144 C 
ATOM     31  OBV A02 d          16.948  16.486   4.998  0.00  0.00    -0.346 OA
ATOM     32  CCN A02 d          17.859  15.794   4.096  0.00  0.00     0.140 C 
ATOM     33  CCL A02 d          17.094  15.679   2.763  0.00  0.00     0.105 C 
ATOM     34  H10 A02 d          18.764  16.400   3.946  0.00  0.00     0.123 H 
ATOM     35  CCK A02 d          16.254  16.942   2.761  0.00  0.00     0.098 C 
ATOM     36  H8  A02 d          16.474  14.771   2.724  0.00  0.00     0.093 H 
ATOM     37  H7  A02 d          15.401  16.880   2.069  0.00  0.00     0.091 H 
ATOM     38  H9  A02 d          15.613  18.057   4.516  0.00  0.00     0.102 H 
BRANCH  32  39
ATOM     39  N9  A02 d          18.284  14.440   4.656  0.00  0.00    -0.294 N 
ATOM     40  C4  A02 d          18.662  13.383   3.944  0.00  0.00     0.167 A 
ATOM     41  N3  A02 d          18.779  13.160   2.626  0.00  0.00    -0.222 NA
ATOM     42  C5  A02 d          18.952  12.364   4.841  0.00  0.00     0.149 A 
ATOM     43  C2  A02 d          19.185  11.979   2.177  0.00  0.00     0.091 A 
ATOM     44  N1  A02 d          19.481  10.980   3.020  0.00  0.00    -0.222 NA
ATOM     45  H1  A02 d          19.279  11.819   1.109  0.00  0.00     0.146 H 
ATOM     46  C6  A02 d          19.370  11.139   4.349  0.00  0.00     0.155 A 
ATOM     47  N7  A02 d          18.754  12.823   6.075  0.00  0.00    -0.236 NA
ATOM     48  C8  A02 d          18.358  14.095   5.951  0.00  0.00     0.071 A 
ATOM     49  H4  A02 d          18.127  14.757   6.784  0.00  0.00     0.144 H 
BRANCH  46  50
ATOM     50  N6  A02 d          19.651  10.145   5.184  0.00  0.00    -0.382 N 
ATOM     51  H2  A02 d          19.098   9.276   5.155  0.00  0.00     0.157 HD
ATOM     52  H3  A02 d          20.420  10.243   5.862  0.00  0.00     0.157 HD
ENDBRANCH  46  50
ENDBRANCH  32  39
BRANCH  33  53
ATOM     53  OAO A02 d          18.000  15.706   1.669  0.00  0.00    -0.388 OA
ATOM     54  H6  A02 d          18.440  16.547   1.644  0.00  0.00     0.210 HD
ENDBRANCH  33  53
BRANCH  35  55
ATOM     55  OAN A02 d          17.084  18.080   2.455  0.00  0.00    -0.390 OA
ATOM     56  H5  A02 d          16.597  18.688   1.911  0.00  0.00     0.210 HD
ENDBRANCH  35  55
ENDBRANCH  27  30
ENDBRANCH  23  26
ENDBRANCH  20  23
ENDBRANCH  17  20
ENDBRANCH  14  17
ENDBRANCH  11  14
ENDBRANCH   8  11
ENDBRANCH   5   7
BRANCH   5  57
ATOM     57  CBJ A02 d          14.869   6.910   9.096  0.00  0.00    -0.038 C 
ATOM     58  H24 A02 d          14.294   7.773   9.463  0.00  0.00     0.036 H 
ATOM     59  H25 A02 d          15.482   6.503   9.915  0.00  0.00     0.036 H 
BRANCH  57  60
ATOM     60  CAZ A02 d          13.875   5.826   8.665  0.00  0.00    -0.061 C 
ATOM     61  H26 A02 d          13.772   5.086   9.473  0.00  0.00     0.033 H 
ATOM     62  H27 A02 d          14.251   5.329   7.759  0.00  0.00     0.033 H 
BRANCH  60  63
ATOM     63  CAS A02 d          12.497   6.454   8.370  0.00  0.00    -0.043 C 
ATOM     64  H28 A02 d          12.552   7.011   7.422  0.00  0.00     0.035 H 
ATOM     65  H29 A02 d          12.234   7.143   9.186  0.00  0.00     0.035 H 
BRANCH  63  66
ATOM     66  CAR A02 d          11.409   5.375   8.254  0.00  0.00     0.080 C 
ATOM     67  H30 A02 d          10.454   5.781   8.620  0.00  0.00     0.075 H 
ATOM     68  H31 A02 d          11.695   4.503   8.861  0.00  0.00     0.075 H 
BRANCH  66  69
ATOM     69  NAC A02 d          11.257   4.962   6.848  0.00  0.00    -0.079 N 
ATOM     70  H32 A02 d          10.728   5.659   6.348  0.00  0.00     0.274 HD
ATOM     71  H33 A02 d          10.772   4.079   6.808  0.00  0.00     0.274 HD
ATOM     72  H34 A02 d          12.168   4.864   6.426  0.00  0.00     0.274 HD
ENDBRANCH  66  69
ENDBRANCH  63  66
ENDBRANCH  60  63
ENDBRANCH  57  60
ENDBRANCH   5  57
ENDBRANCH   1   5
BRANCH   3  73
ATOM     73  CBC A02 d          19.625   6.855   8.263  0.00  0.00    -0.005 C 
ATOM     74  H43 A02 d          20.069   7.753   7.808  0.00  0.00     0.064 H 
ATOM     75  H44 A02 d          19.732   6.908   9.356  0.00  0.00     0.064 H 
BRANCH  73  76
ATOM     76  CAV A02 d          20.356   5.612   7.744  0.00  0.00    -0.050 C 
ATOM     77  H41 A02 d          20.655   5.779   6.698  0.00  0.00     0.035 H 
ATOM     78  H42 A02 d          21.252   5.437   8.358  0.00  0.00     0.035 H 
BRANCH  76  79
ATOM     79  CAT A02 d          19.445   4.382   7.819  0.00  0.00    -0.063 C 
ATOM     80  H39 A02 d          19.905   3.638   8.485  0.00  0.00     0.033 H 
ATOM     81  H40 A02 d          18.469   4.686   8.227  0.00  0.00     0.033 H 
BRANCH  79  82
ATOM     82  CAY A02 d          19.228   3.747   6.441  0.00  0.00    -0.057 C 
ATOM     83  H37 A02 d          19.760   4.346   5.686  0.00  0.00     0.033 H 
ATOM     84  H38 A02 d          19.635   2.725   6.452  0.00  0.00     0.033 H 
BRANCH  82  85
ATOM     85  CBH A02 d          17.737   3.687   6.069  0.00  0.00     0.009 C 
ATOM     86  H35 A02 d          17.562   2.800   5.443  0.00  0.00     0.047 H 
ATOM     87  H36 A02 d          17.143   3.607   6.992  0.00  0.00     0.047 H 
BRANCH  85  88
ATOM     88  CCA A02 d          17.293   4.939   5.296  0.00  0.00     0.218 C 
ATOM     89  OAJ A02 d          18.116   5.786   4.936  0.00  0.00    -0.274 OA
ATOM     90  NBT A02 d          15.979   5.015   5.052  0.00  0.00    -0.348 N 
ATOM     91  H46 A02 d          15.391   4.273   5.375  0.00  0.00     0.163 HD
BRANCH  90  92
ATOM     92  CCJ A02 d          15.352   6.146   4.325  0.00  0.00     0.089 C 
ATOM     93  H47 A02 d          15.896   7.064   4.593  0.00  0.00     0.087 H 
BRANCH  92  94
ATOM     94  CBK A02 d          13.869   6.334   4.742  0.00  0.00    -0.036 C 
ATOM     95  H48 A02 d          13.782   6.107   5.815  0.00  0.00     0.036 H 
ATOM     96  H49 A02 d          13.257   5.626   4.166  0.00  0.00     0.036 H 
BRANCH  94  97
ATOM     97  CBB A02 d          13.316   7.750   4.506  0.00  0.00    -0.048 C 
ATOM     98  H50 A02 d          14.156   8.429   4.299  0.00  0.00     0.035 H 
ATOM     99  H51 A02 d          12.792   8.082   5.415  0.00  0.00     0.035 H 
BRANCH  97 100
ATOM    100  CBF A02 d          12.335   7.803   3.323  0.00  0.00     0.009 C 
ATOM    101  H52 A02 d          11.358   8.174   3.667  0.00  0.00     0.064 H 
ATOM    102  H53 A02 d          12.215   6.797   2.895  0.00  0.00     0.064 H 
BRANCH 100 103
ATOM    103  NBP A02 d          12.887   8.717   2.305  0.00  0.00    -0.227 N 
ATOM    104  CBX A02 d          12.167   9.645   1.661  0.00  0.00     0.665 C 
ATOM    105  NAB A02 d          10.871   9.836   1.900  0.00  0.00    -0.235 N 
ATOM    106  NAE A02 d          12.778  10.407   0.758  0.00  0.00    -0.235 N 
ATOM    107  H55 A02 d          10.352  10.561   1.383  0.00  0.00     0.174 HD
ATOM    108  H56 A02 d          10.386   9.259   2.602  0.00  0.00     0.174 HD
ATOM    109  H57 A02 d          13.780  10.271   0.563  0.00  0.00     0.174 HD
ATOM    110  H58 A02 d          12.249  11.134   0.255  0.00  0.00     0.174 HD
ATOM    111  H54 A02 d          13.887   8.636   2.075  0.00  0.00     0.177 HD
ENDBRANCH 100 103
ENDBRANCH  97 100
ENDBRANCH  94  97
ENDBRANCH  92  94
BRANCH  92 112
ATOM    112  CCD A02 d          15.481   5.945   2.796  0.00  0.00     0.241 C 
ATOM    113  OAM A02 d          15.003   4.954   2.245  0.00  0.00    -0.271 OA
ATOM    114  N   A02 d          16.140   6.908   2.146  0.00  0.00    -0.346 N 
ATOM    115  H59 A02 d          16.496   7.678   2.675  0.00  0.00     0.163 HD
BRANCH 114 116
ATOM    116  CA  A02 d          16.369   6.894   0.684  0.00  0.00     0.089 C 
ATOM    117  H60 A02 d          16.286   5.857   0.327  0.00  0.00     0.087 H 
BRANCH 116 118
ATOM    118  CB  A02 d          17.781   7.411   0.379  0.00  0.00    -0.036 C 
ATOM    119  H61 A02 d          18.382   7.377   1.299  0.00  0.00     0.036 H 
ATOM    120  H62 A02 d          17.712   8.451   0.024  0.00  0.00     0.036 H 
BRANCH 118 121
ATOM    121  CG  A02 d          18.467   6.564  -0.695  0.00  0.00    -0.048 C 
ATOM    122  H63 A02 d          18.694   7.201  -1.563  0.00  0.00     0.035 H 
ATOM    123  H64 A02 d          17.788   5.755  -1.002  0.00  0.00     0.035 H 
BRANCH 121 124
ATOM    124  CD  A02 d          19.764   5.953  -0.174  0.00  0.00     0.009 C 
ATOM    125  H65 A02 d          20.389   6.734   0.285  0.00  0.00     0.064 H 
ATOM    126  H66 A02 d          20.315   5.481  -1.000  0.00  0.00     0.064 H 
BRANCH 124 127
ATOM    127  NE  A02 d          19.406   4.951   0.825  0.00  0.00    -0.227 N 
ATOM    128  CZ  A02 d          19.933   4.860   2.045  0.00  0.00     0.665 C 
ATOM    129  NH1 A02 d          20.839   5.721   2.509  0.00  0.00    -0.235 N 
ATOM    130  NH2 A02 d          19.500   3.870   2.813  0.00  0.00    -0.235 N 
ATOM    131  H68 A02 d          21.216   5.607   3.461  0.00  0.00     0.174 HD
ATOM    132  H69 A02 d          21.161   6.499   1.917  0.00  0.00     0.174 HD
ATOM    133  H70 A02 d          18.801   3.206   2.453  0.00  0.00     0.174 HD
ATOM    134  H71 A02 d          19.864   3.765   3.771  0.00  0.00     0.174 HD
ATOM    135  H67 A02 d          18.688   4.258   0.566  0.00  0.00     0.177 HD
ENDBRANCH 124 127
ENDBRANCH 121 124
ENDBRANCH 118 121
ENDBRANCH 116 118
BRANCH 116 136
ATOM    136  C   A02 d          15.323   7.753  -0.062  0.00  0.00     0.238 C 
ATOM    137  O   A02 d          15.270   8.977   0.075  0.00  0.00    -0.271 OA
ATOM    138  NAF A02 d          14.513   7.069  -0.868  0.00  0.00    -0.368 N 
ATOM    139  H72 A02 d          13.805   7.547  -1.389  0.00  0.00     0.159 HD
ATOM    140  H73 A02 d          14.612   6.077  -0.952  0.00  0.00     0.159 HD
ENDBRANCH 116 136
ENDBRANCH 114 116
ENDBRANCH  92 112
ENDBRANCH  90  92
ENDBRANCH  85  88
ENDBRANCH  82  85
ENDBRANCH  79  82
ENDBRANCH  76  79
ENDBRANCH  73  76
ENDBRANCH   3  73
TORSDOF 36
ENDMDL
MODEL 3
REMARK VINA RESULT:      -4.8      2.924      7.297
REMARK WARNING: 32 MAX_TORS EXCEEDED!!!
REMARK  36 active torsions:
REMARK  status: ('A' for Active; 'I' for Inactive)
REMARK    1  A    between atoms: C6_6  and  N6_7 
REMARK    2  A    between atoms: CCN_19  and  N9_10 
REMARK    3  A    between atoms: CCK_16  and  OAN_12 
REMARK    4  A    between atoms: CCL_17  and  OAO_13 
REMARK    5  A    between atoms: CCC_15  and  CCM_18 
REMARK       I    between atoms: NBR_27  and  CCC_15 
REMARK    6  A    between atoms: CBZ_20  and  CBG_22 
REMARK       I    between atoms: NBS_28  and  CBZ_20 
REMARK    7  A    between atoms: CBG_22  and  CAX_23 
REMARK    8  A    between atoms: CAX_23  and  CAU_24 
REMARK    9  A    between atoms: CAU_24  and  CAW_25 
REMARK   10  A    between atoms: CAW_25  and  CBD_26 
REMARK   11  A    between atoms: CBD_26  and  NBR_27 
REMARK   12  A    between atoms: CCI_29  and  NBS_28 
REMARK   13  A    between atoms: CCB_30  and  CCI_29 
REMARK   14  A    between atoms: CCI_29  and  CBJ_32 
REMARK       I    between atoms: NBQ_44  and  CCB_30 
REMARK   15  A    between atoms: CBJ_32  and  CAZ_33 
REMARK   16  A    between atoms: CAZ_33  and  CAS_34 
REMARK   17  A    between atoms: CAS_34  and  CAR_35 
REMARK   18  A    between atoms: CAR_35  and  NAC_36 
REMARK   19  A    between atoms: CBH_39  and  CCA_37 
REMARK       I    between atoms: CCA_37  and  NBT_45 
REMARK   20  A    between atoms: CAY_40  and  CBH_39 
REMARK   21  A    between atoms: CAT_41  and  CAY_40 
REMARK   22  A    between atoms: CAV_42  and  CAT_41 
REMARK   23  A    between atoms: CBC_43  and  CAV_42 
REMARK   24  A    between atoms: CBC_43  and  NBQ_44 
REMARK   25  A    between atoms: NBT_45  and  CCJ_46 
REMARK   26  A    between atoms: CCJ_46  and  CBK_47 
REMARK   27  A    between atoms: CCJ_46  and  CCD_54 
REMARK   28  A    between atoms: CBK_47  and  CBB_48 
REMARK   29  A    between atoms: CBB_48  and  CBF_49 
REMARK   30  A    between atoms: CBF_49  and  NBP_50 
REMARK       I    between atoms: NBP_50  and  CBX_51 
REMARK       I    between atoms: CBX_51  and  NAB_52 
REMARK       I    between atoms: CBX_51  and  NAE_53 
REMARK       I    between atoms: CCD_54  and  N_56 
REMARK   31  A    between atoms: N_56  and  CA_57 
REMARK   32  A    between atoms: CA_57  and  CB_58 
REMARK   33  A    between atoms: CA_57  and  C_65 
REMARK   34  A    between atoms: CB_58  and  CG_59 
REMARK   35  A    between atoms: CG_59  and  CD_60 
REMARK   36  A    between atoms: CD_60  and  NE_61 
REMARK       I    between atoms: NE_61  and  CZ_62 
REMARK       I    between atoms: CZ_62  and  NH1_63 
REMARK       I    between atoms: C_65  and  NAF_67 
ROOT
ATOM      1  CCB A02 d          15.961   9.712   5.660  0.00  0.00     0.240 C 
ATOM      2  OAK A02 d          15.961   9.208   6.776  0.00  0.00    -0.271 OA
ATOM      3  NBQ A02 d          15.473  10.922   5.394  0.00  0.00    -0.359 N 
ATOM      4  H45 A02 d          15.502  11.257   4.451  0.00  0.00     0.162 HD
ENDROOT
BRANCH   1   5
ATOM      5  CCI A02 d          16.516   8.929   4.444  0.00  0.00     0.089 C 
ATOM      6  H23 A02 d          15.654   8.469   3.939  0.00  0.00     0.087 H 
BRANCH   5   7
ATOM      7  NBS A02 d          17.404   7.826   4.893  0.00  0.00    -0.348 N 
ATOM      8  CBZ A02 d          17.217   6.559   4.491  0.00  0.00     0.218 C 
ATOM      9  OAI A02 d          16.286   6.189   3.766  0.00  0.00    -0.274 OA
ATOM     10  H22 A02 d          18.161   8.033   5.512  0.00  0.00     0.163 HD
BRANCH   8  11
ATOM     11  CBG A02 d          18.235   5.541   5.045  0.00  0.00     0.009 C 
ATOM     12  H11 A02 d          19.102   5.500   4.370  0.00  0.00     0.047 H 
ATOM     13  H12 A02 d          17.758   4.550   5.090  0.00  0.00     0.047 H 
BRANCH  11  14
ATOM     14  CAX A02 d          18.720   5.924   6.457  0.00  0.00    -0.057 C 
ATOM     15  H13 A02 d          17.976   5.589   7.195  0.00  0.00     0.033 H 
ATOM     16  H14 A02 d          18.827   7.018   6.514  0.00  0.00     0.033 H 
BRANCH  14  17
ATOM     17  CAU A02 d          20.071   5.273   6.776  0.00  0.00    -0.063 C 
ATOM     18  H15 A02 d          20.873   5.959   6.466  0.00  0.00     0.033 H 
ATOM     19  H16 A02 d          20.151   4.334   6.208  0.00  0.00     0.033 H 
BRANCH  17  20
ATOM     20  CAW A02 d          20.243   4.960   8.265  0.00  0.00    -0.050 C 
ATOM     21  H17 A02 d          19.393   5.362   8.835  0.00  0.00     0.035 H 
ATOM     22  H18 A02 d          21.178   5.407   8.637  0.00  0.00     0.035 H 
BRANCH  20  23
ATOM     23  CBD A02 d          20.298   3.438   8.412  0.00  0.00    -0.005 C 
ATOM     24  H19 A02 d          20.658   3.195   9.423  0.00  0.00     0.064 H 
ATOM     25  H20 A02 d          20.999   3.037   7.666  0.00  0.00     0.064 H 
BRANCH  23  26
ATOM     26  NBR A02 d          18.984   2.801   8.213  0.00  0.00    -0.359 N 
ATOM     27  CCC A02 d          18.333   2.108   9.149  0.00  0.00     0.249 C 
ATOM     28  OAL A02 d          18.783   1.858  10.276  0.00  0.00    -0.271 OA
ATOM     29  H21 A02 d          18.551   2.894   7.317  0.00  0.00     0.162 HD
BRANCH  27  30
ATOM     30  CCM A02 d          16.929   1.600   8.770  0.00  0.00     0.144 C 
ATOM     31  OBV A02 d          15.880   2.368   9.449  0.00  0.00    -0.346 OA
ATOM     32  CCN A02 d          15.271   3.287   8.496  0.00  0.00     0.140 C 
ATOM     33  CCL A02 d          16.189   3.249   7.258  0.00  0.00     0.105 C 
ATOM     34  H10 A02 d          14.270   2.924   8.219  0.00  0.00     0.123 H 
ATOM     35  CCK A02 d          16.696   1.818   7.275  0.00  0.00     0.098 C 
ATOM     36  H8  A02 d          17.009   3.978   7.334  0.00  0.00     0.093 H 
ATOM     37  H7  A02 d          17.612   1.689   6.680  0.00  0.00     0.091 H 
ATOM     38  H9  A02 d          16.844   0.532   9.024  0.00  0.00     0.102 H 
BRANCH  32  39
ATOM     39  N9  A02 d          15.121   4.687   9.082  0.00  0.00    -0.294 N 
ATOM     40  C4  A02 d          14.481   5.001  10.204  0.00  0.00     0.167 A 
ATOM     41  N3  A02 d          13.808   4.274  11.109  0.00  0.00    -0.222 NA
ATOM     42  C5  A02 d          14.577   6.377  10.362  0.00  0.00     0.149 A 
ATOM     43  C2  A02 d          13.250   4.859  12.161  0.00  0.00     0.091 A 
ATOM     44  N1  A02 d          13.334   6.184  12.345  0.00  0.00    -0.222 NA
ATOM     45  H1  A02 d          12.715   4.254  12.885  0.00  0.00     0.146 H 
ATOM     46  C6  A02 d          13.982   6.965  11.466  0.00  0.00     0.155 A 
ATOM     47  N7  A02 d          15.278   6.869   9.342  0.00  0.00    -0.236 NA
ATOM     48  C8  A02 d          15.615   5.828   8.573  0.00  0.00     0.071 A 
ATOM     49  H4  A02 d          16.206   5.895   7.661  0.00  0.00     0.144 H 
BRANCH  46  50
ATOM     50  N6  A02 d          14.055   8.281  11.641  0.00  0.00    -0.382 N 
ATOM     51  H2  A02 d          13.370   8.758  12.243  0.00  0.00     0.157 HD
ATOM     52  H3  A02 d          14.796   8.822  11.173  0.00  0.00     0.157 HD
ENDBRANCH  46  50
ENDBRANCH  32  39
BRANCH  33  53
ATOM     53  OAO A02 d          15.435   3.474   6.076  0.00  0.00    -0.388 OA
ATOM     54  H6  A02 d          14.676   4.007   6.282  0.00  0.00     0.210 HD
ENDBRANCH  33  53
BRANCH  35  55
ATOM     55  OAN A02 d          15.658   0.927   6.822  0.00  0.00    -0.390 OA
ATOM     56  H5  A02 d          14.815   1.361   6.898  0.00  0.00     0.210 HD
ENDBRANCH  35  55
ENDBRANCH  27  30
ENDBRANCH  23  26
ENDBRANCH  20  23
ENDBRANCH  17  20
ENDBRANCH  14  17
ENDBRANCH  11  14
ENDBRANCH   8  11
ENDBRANCH   5   7
BRANCH   5  57
ATOM     57  CBJ A02 d          17.211   9.837   3.405  0.00  0.00    -0.038 C 
ATOM     58  H24 A02 d          18.248   9.999   3.734  0.00  0.00     0.036 H 
ATOM     59  H25 A02 d          16.678  10.800   3.385  0.00  0.00     0.036 H 
BRANCH  57  60
ATOM     60  CAZ A02 d          17.248   9.287   1.975  0.00  0.00    -0.061 C 
ATOM     61  H26 A02 d          16.938  10.076   1.274  0.00  0.00     0.033 H 
ATOM     62  H27 A02 d          16.557   8.435   1.896  0.00  0.00     0.033 H 
BRANCH  60  63
ATOM     63  CAS A02 d          18.675   8.821   1.620  0.00  0.00    -0.043 C 
ATOM     64  H28 A02 d          18.760   8.726   0.527  0.00  0.00     0.035 H 
ATOM     65  H29 A02 d          18.860   7.843   2.089  0.00  0.00     0.035 H 
BRANCH  63  66
ATOM     66  CAR A02 d          19.727   9.823   2.120  0.00  0.00     0.080 C 
ATOM     67  H30 A02 d          19.795   9.762   3.216  0.00  0.00     0.075 H 
ATOM     68  H31 A02 d          19.429  10.840   1.826  0.00  0.00     0.075 H 
BRANCH  66  69
ATOM     69  NAC A02 d          21.041   9.510   1.530  0.00  0.00    -0.079 N 
ATOM     70  H32 A02 d          21.486  10.363   1.230  0.00  0.00     0.274 HD
ATOM     71  H33 A02 d          20.917   8.899   0.738  0.00  0.00     0.274 HD
ATOM     72  H34 A02 d          21.618   9.053   2.219  0.00  0.00     0.274 HD
ENDBRANCH  66  69
ENDBRANCH  63  66
ENDBRANCH  60  63
ENDBRANCH  57  60
ENDBRANCH   5  57
ENDBRANCH   1   5
BRANCH   3  73
ATOM     73  CBC A02 d          14.890  11.792   6.441  0.00  0.00    -0.005 C 
ATOM     74  H43 A02 d          15.306  11.510   7.419  0.00  0.00     0.064 H 
ATOM     75  H44 A02 d          15.143  12.840   6.223  0.00  0.00     0.064 H 
BRANCH  73  76
ATOM     76  CAV A02 d          13.365  11.640   6.479  0.00  0.00    -0.050 C 
ATOM     77  H41 A02 d          13.029  11.128   5.565  0.00  0.00     0.035 H 
ATOM     78  H42 A02 d          13.084  11.042   7.358  0.00  0.00     0.035 H 
BRANCH  76  79
ATOM     79  CAT A02 d          12.689  13.014   6.566  0.00  0.00    -0.063 C 
ATOM     80  H39 A02 d          11.648  12.920   6.227  0.00  0.00     0.033 H 
ATOM     81  H40 A02 d          12.706  13.353   7.612  0.00  0.00     0.033 H 
BRANCH  79  82
ATOM     82  CAY A02 d          13.401  14.055   5.696  0.00  0.00    -0.057 C 
ATOM     83  H37 A02 d          14.011  14.703   6.343  0.00  0.00     0.033 H 
ATOM     84  H38 A02 d          14.052  13.535   4.978  0.00  0.00     0.033 H 
BRANCH  82  85
ATOM     85  CBH A02 d          12.401  14.928   4.919  0.00  0.00     0.009 C 
ATOM     86  H35 A02 d          11.426  14.420   4.899  0.00  0.00     0.047 H 
ATOM     87  H36 A02 d          12.299  15.896   5.432  0.00  0.00     0.047 H 
BRANCH  85  88
ATOM     88  CCA A02 d          12.864  15.175   3.474  0.00  0.00     0.218 C 
ATOM     89  OAJ A02 d          12.075  15.591   2.619  0.00  0.00    -0.274 OA
ATOM     90  NBT A02 d          14.157  14.916   3.244  0.00  0.00    -0.348 N 
ATOM     91  H46 A02 d          14.720  14.592   4.004  0.00  0.00     0.163 HD
BRANCH  90  92
ATOM     92  CCJ A02 d          14.794  15.086   1.915  0.00  0.00     0.089 C 
ATOM     93  H47 A02 d          14.166  15.767   1.322  0.00  0.00     0.087 H 
BRANCH  92  94
ATOM     94  CBK A02 d          14.880  13.737   1.152  0.00  0.00    -0.036 C 
ATOM     95  H48 A02 d          15.728  13.790   0.453  0.00  0.00     0.036 H 
ATOM     96  H49 A02 d          13.947  13.600   0.588  0.00  0.00     0.036 H 
BRANCH  94  97
ATOM     97  CBB A02 d          15.080  12.507   2.055  0.00  0.00    -0.048 C 
ATOM     98  H50 A02 d          15.005  12.823   3.106  0.00  0.00     0.035 H 
ATOM     99  H51 A02 d          16.081  12.090   1.868  0.00  0.00     0.035 H 
BRANCH  97 100
ATOM    100  CBF A02 d          14.032  11.414   1.792  0.00  0.00     0.009 C 
ATOM    101  H52 A02 d          14.371  10.461   2.225  0.00  0.00     0.064 H 
ATOM    102  H53 A02 d          13.886  11.292   0.708  0.00  0.00     0.064 H 
BRANCH 100 103
ATOM    103  NBP A02 d          12.764  11.827   2.423  0.00  0.00    -0.227 N 
ATOM    104  CBX A02 d          12.018  11.030   3.200  0.00  0.00     0.665 C 
ATOM    105  NAB A02 d          12.371   9.778   3.485  0.00  0.00    -0.235 N 
ATOM    106  NAE A02 d          10.890  11.516   3.708  0.00  0.00    -0.235 N 
ATOM    107  H55 A02 d          11.769   9.197   4.087  0.00  0.00     0.174 HD
ATOM    108  H56 A02 d          13.246   9.390   3.105  0.00  0.00     0.174 HD
ATOM    109  H57 A02 d          10.604  12.483   3.496  0.00  0.00     0.174 HD
ATOM    110  H58 A02 d          10.302  10.927   4.315  0.00  0.00     0.174 HD
ATOM    111  H54 A02 d          12.432  12.787   2.257  0.00  0.00     0.177 HD
ENDBRANCH 100 103
ENDBRANCH  97 100
ENDBRANCH  94  97
ENDBRANCH  92  94
BRANCH  92 112
ATOM    112  CCD A02 d          16.192  15.734   2.063  0.00  0.00     0.241 C 
ATOM    113  OAM A02 d          16.642  16.476   1.190  0.00  0.00    -0.271 OA
ATOM    114  N   A02 d          16.849  15.426   3.183  0.00  0.00    -0.346 N 
ATOM    115  H59 A02 d          16.407  14.813   3.839  0.00  0.00     0.163 HD
BRANCH 114 116
ATOM    116  CA  A02 d          18.198  15.943   3.505  0.00  0.00     0.089 C 
ATOM    117  H60 A02 d          18.399  16.815   2.866  0.00  0.00     0.087 H 
BRANCH 116 118
ATOM    118  CB  A02 d          19.248  14.863   3.214  0.00  0.00    -0.036 C 
ATOM    119  H61 A02 d          19.005  14.376   2.258  0.00  0.00     0.036 H 
ATOM    120  H62 A02 d          19.226  14.116   4.022  0.00  0.00     0.036 H 
BRANCH 118 121
ATOM    121  CG  A02 d          20.654  15.459   3.126  0.00  0.00    -0.048 C 
ATOM    122  H63 A02 d          21.364  14.778   3.620  0.00  0.00     0.035 H 
ATOM    123  H64 A02 d          20.664  16.433   3.637  0.00  0.00     0.035 H 
BRANCH 121 124
ATOM    124  CD  A02 d          21.082  15.656   1.675  0.00  0.00     0.009 C 
ATOM    125  H65 A02 d          21.724  16.545   1.590  0.00  0.00     0.064 H 
ATOM    126  H66 A02 d          20.196  15.780   1.036  0.00  0.00     0.064 H 
BRANCH 124 127
ATOM    127  NE  A02 d          21.825  14.465   1.273  0.00  0.00    -0.227 N 
ATOM    128  CZ  A02 d          21.384  13.537   0.424  0.00  0.00     0.665 C 
ATOM    129  NH1 A02 d          20.206  13.619  -0.193  0.00  0.00    -0.235 N 
ATOM    130  NH2 A02 d          22.189  12.509   0.189  0.00  0.00    -0.235 N 
ATOM    131  H68 A02 d          19.912  12.874  -0.841  0.00  0.00     0.174 HD
ATOM    132  H69 A02 d          19.590  14.426  -0.022  0.00  0.00     0.174 HD
ATOM    133  H70 A02 d          23.099  12.448   0.667  0.00  0.00     0.174 HD
ATOM    134  H71 A02 d          21.903  11.773  -0.472  0.00  0.00     0.174 HD
ATOM    135  H67 A02 d          22.763  14.332   1.676  0.00  0.00     0.177 HD
ENDBRANCH 124 127
ENDBRANCH 121 124
ENDBRANCH 118 121
ENDBRANCH 116 118
BRANCH 116 136
ATOM    136  C   A02 d          18.297  16.387   4.983  0.00  0.00     0.238 C 
ATOM    137  O   A02 d          18.714  17.503   5.299  0.00  0.00    -0.271 OA
ATOM    138  NAF A02 d          17.877  15.482   5.866  0.00  0.00    -0.368 N 
ATOM    139  H72 A02 d          17.907  15.688   6.844  0.00  0.00     0.159 HD
ATOM    140  H73 A02 d          17.533  14.598   5.551  0.00  0.00     0.159 HD
ENDBRANCH 116 136
ENDBRANCH 114 116
ENDBRANCH  92 112
ENDBRANCH  90  92
ENDBRANCH  85  88
ENDBRANCH  82  85
ENDBRANCH  79  82
ENDBRANCH  76  79
ENDBRANCH  73  76
ENDBRANCH   3  73
TORSDOF 36
ENDMDL
MODEL 4
REMARK VINA RESULT:      -4.8      2.876      7.911
REMARK WARNING: 32 MAX_TORS EXCEEDED!!!
REMARK  36 active torsions:
REMARK  status: ('A' for Active; 'I' for Inactive)
REMARK    1  A    between atoms: C6_6  and  N6_7 
REMARK    2  A    between atoms: CCN_19  and  N9_10 
REMARK    3  A    between atoms: CCK_16  and  OAN_12 
REMARK    4  A    between atoms: CCL_17  and  OAO_13 
REMARK    5  A    between atoms: CCC_15  and  CCM_18 
REMARK       I    between atoms: NBR_27  and  CCC_15 
REMARK    6  A    between atoms: CBZ_20  and  CBG_22 
REMARK       I    between atoms: NBS_28  and  CBZ_20 
REMARK    7  A    between atoms: CBG_22  and  CAX_23 
REMARK    8  A    between atoms: CAX_23  and  CAU_24 
REMARK    9  A    between atoms: CAU_24  and  CAW_25 
REMARK   10  A    between atoms: CAW_25  and  CBD_26 
REMARK   11  A    between atoms: CBD_26  and  NBR_27 
REMARK   12  A    between atoms: CCI_29  and  NBS_28 
REMARK   13  A    between atoms: CCB_30  and  CCI_29 
REMARK   14  A    between atoms: CCI_29  and  CBJ_32 
REMARK       I    between atoms: NBQ_44  and  CCB_30 
REMARK   15  A    between atoms: CBJ_32  and  CAZ_33 
REMARK   16  A    between atoms: CAZ_33  and  CAS_34 
REMARK   17  A    between atoms: CAS_34  and  CAR_35 
REMARK   18  A    between atoms: CAR_35  and  NAC_36 
REMARK   19  A    between atoms: CBH_39  and  CCA_37 
REMARK       I    between atoms: CCA_37  and  NBT_45 
REMARK   20  A    between atoms: CAY_40  and  CBH_39 
REMARK   21  A    between atoms: CAT_41  and  CAY_40 
REMARK   22  A    between atoms: CAV_42  and  CAT_41 
REMARK   23  A    between atoms: CBC_43  and  CAV_42 
REMARK   24  A    between atoms: CBC_43  and  NBQ_44 
REMARK   25  A    between atoms: NBT_45  and  CCJ_46 
REMARK   26  A    between atoms: CCJ_46  and  CBK_47 
REMARK   27  A    between atoms: CCJ_46  and  CCD_54 
REMARK   28  A    between atoms: CBK_47  and  CBB_48 
REMARK   29  A    between atoms: CBB_48  and  CBF_49 
REMARK   30  A    between atoms: CBF_49  and  NBP_50 
REMARK       I    between atoms: NBP_50  and  CBX_51 
REMARK       I    between atoms: CBX_51  and  NAB_52 
REMARK       I    between atoms: CBX_51  and  NAE_53 
REMARK       I    between atoms: CCD_54  and  N_56 
REMARK   31  A    between atoms: N_56  and  CA_57 
REMARK   32  A    between atoms: CA_57  and  CB_58 
REMARK   33  A    between atoms: CA_57  and  C_65 
REMARK   34  A    between atoms: CB_58  and  CG_59 
REMARK   35  A    between atoms: CG_59  and  CD_60 
REMARK   36  A    between atoms: CD_60  and  NE_61 
REMARK       I    between atoms: NE_61  and  CZ_62 
REMARK       I    between atoms: CZ_62  and  NH1_63 
REMARK       I    between atoms: C_65  and  NAF_67 
ROOT
ATOM      1  CCB A02 d           9.464  12.864   2.639  0.00  0.00     0.240 C 
ATOM      2  OAK A02 d           8.547  13.554   2.211  0.00  0.00    -0.271 OA
ATOM      3  NBQ A02 d          10.578  12.607   1.956  0.00  0.00    -0.359 N 
ATOM      4  H45 A02 d          11.276  12.025   2.374  0.00  0.00     0.162 HD
ENDROOT
BRANCH   1   5
ATOM      5  CCI A02 d           9.364  12.201   4.034  0.00  0.00     0.089 C 
ATOM      6  H23 A02 d           9.062  12.986   4.742  0.00  0.00     0.087 H 
BRANCH   5   7
ATOM      7  NBS A02 d          10.692  11.700   4.473  0.00  0.00    -0.348 N 
ATOM      8  CBZ A02 d          11.290  12.160   5.583  0.00  0.00     0.218 C 
ATOM      9  OAI A02 d          10.830  13.054   6.303  0.00  0.00    -0.274 OA
ATOM     10  H22 A02 d          11.153  11.001   3.926  0.00  0.00     0.163 HD
BRANCH   8  11
ATOM     11  CBG A02 d          12.662  11.527   5.896  0.00  0.00     0.009 C 
ATOM     12  H11 A02 d          13.308  12.287   6.358  0.00  0.00     0.047 H 
ATOM     13  H12 A02 d          13.116  11.180   4.957  0.00  0.00     0.047 H 
BRANCH  11  14
ATOM     14  CAX A02 d          12.535  10.329   6.859  0.00  0.00    -0.057 C 
ATOM     15  H13 A02 d          12.737   9.401   6.305  0.00  0.00     0.033 H 
ATOM     16  H14 A02 d          11.512  10.301   7.263  0.00  0.00     0.033 H 
BRANCH  14  17
ATOM     17  CAU A02 d          13.528  10.444   8.022  0.00  0.00    -0.063 C 
ATOM     18  H15 A02 d          13.805  11.501   8.144  0.00  0.00     0.033 H 
ATOM     19  H16 A02 d          14.425   9.856   7.777  0.00  0.00     0.033 H 
BRANCH  17  20
ATOM     20  CAW A02 d          12.955   9.933   9.346  0.00  0.00    -0.050 C 
ATOM     21  H17 A02 d          12.069   9.308   9.157  0.00  0.00     0.035 H 
ATOM     22  H18 A02 d          12.674  10.782   9.987  0.00  0.00     0.035 H 
BRANCH  20  23
ATOM     23  CBD A02 d          14.044   9.102  10.029  0.00  0.00    -0.005 C 
ATOM     24  H19 A02 d          14.596   9.750  10.726  0.00  0.00     0.064 H 
ATOM     25  H20 A02 d          14.731   8.722   9.259  0.00  0.00     0.064 H 
BRANCH  23  26
ATOM     26  NBR A02 d          13.498   7.958  10.780  0.00  0.00    -0.359 N 
ATOM     27  CCC A02 d          13.047   6.835  10.220  0.00  0.00     0.249 C 
ATOM     28  OAL A02 d          12.968   6.643   8.998  0.00  0.00    -0.271 OA
ATOM     29  H21 A02 d          13.464   8.028  11.777  0.00  0.00     0.162 HD
BRANCH  27  30
ATOM     30  CCM A02 d          12.602   5.720  11.186  0.00  0.00     0.144 C 
ATOM     31  OBV A02 d          12.208   4.507  10.460  0.00  0.00    -0.346 OA
ATOM     32  CCN A02 d          13.269   3.515  10.579  0.00  0.00     0.140 C 
ATOM     33  CCL A02 d          14.466   4.277  11.181  0.00  0.00     0.105 C 
ATOM     34  H10 A02 d          12.957   2.720  11.272  0.00  0.00     0.123 H 
ATOM     35  CCK A02 d          13.784   5.307  12.063  0.00  0.00     0.098 C 
ATOM     36  H8  A02 d          15.085   4.748  10.402  0.00  0.00     0.093 H 
ATOM     37  H7  A02 d          14.443   6.151  12.311  0.00  0.00     0.091 H 
ATOM     38  H9  A02 d          11.767   6.082  11.805  0.00  0.00     0.102 H 
BRANCH  32  39
ATOM     39  N9  A02 d          13.590   2.871   9.234  0.00  0.00    -0.294 N 
ATOM     40  C4  A02 d          14.793   2.490   8.817  0.00  0.00     0.167 A 
ATOM     41  N3  A02 d          16.015   2.543   9.370  0.00  0.00    -0.222 NA
ATOM     42  C5  A02 d          14.640   1.966   7.540  0.00  0.00     0.149 A 
ATOM     43  C2  A02 d          17.071   2.082   8.713  0.00  0.00     0.091 A 
ATOM     44  N1  A02 d          16.952   1.562   7.484  0.00  0.00    -0.222 NA
ATOM     45  H1  A02 d          18.049   2.128   9.179  0.00  0.00     0.146 H 
ATOM     46  C6  A02 d          15.758   1.496   6.872  0.00  0.00     0.155 A 
ATOM     47  N7  A02 d          13.351   2.031   7.212  0.00  0.00    -0.236 NA
ATOM     48  C8  A02 d          12.718   2.574   8.258  0.00  0.00     0.071 A 
ATOM     49  H4  A02 d          11.644   2.751   8.309  0.00  0.00     0.144 H 
BRANCH  46  50
ATOM     50  N6  A02 d          15.642   0.992   5.648  0.00  0.00    -0.382 N 
ATOM     51  H2  A02 d          15.987   0.043   5.447  0.00  0.00     0.157 HD
ATOM     52  H3  A02 d          15.207   1.551   4.900  0.00  0.00     0.157 HD
ENDBRANCH  46  50
ENDBRANCH  32  39
BRANCH  33  53
ATOM     53  OAO A02 d          15.254   3.408  11.981  0.00  0.00    -0.388 OA
ATOM     54  H6  A02 d          16.163   3.471  11.714  0.00  0.00     0.210 HD
ENDBRANCH  33  53
BRANCH  35  55
ATOM     55  OAN A02 d          13.288   4.672  13.258  0.00  0.00    -0.390 OA
ATOM     56  H5  A02 d          12.384   4.409  13.124  0.00  0.00     0.210 HD
ENDBRANCH  35  55
ENDBRANCH  27  30
ENDBRANCH  23  26
ENDBRANCH  20  23
ENDBRANCH  17  20
ENDBRANCH  14  17
ENDBRANCH  11  14
ENDBRANCH   8  11
ENDBRANCH   5   7
BRANCH   5  57
ATOM     57  CBJ A02 d           8.284  11.097   4.104  0.00  0.00    -0.038 C 
ATOM     58  H24 A02 d           8.266  10.578   3.135  0.00  0.00     0.036 H 
ATOM     59  H25 A02 d           7.313  11.584   4.278  0.00  0.00     0.036 H 
BRANCH  57  60
ATOM     60  CAZ A02 d           8.490  10.047   5.201  0.00  0.00    -0.061 C 
ATOM     61  H26 A02 d           9.516  10.125   5.590  0.00  0.00     0.033 H 
ATOM     62  H27 A02 d           8.333   9.045   4.777  0.00  0.00     0.033 H 
BRANCH  60  63
ATOM     63  CAS A02 d           7.490  10.276   6.353  0.00  0.00    -0.043 C 
ATOM     64  H28 A02 d           7.341   9.329   6.893  0.00  0.00     0.035 H 
ATOM     65  H29 A02 d           6.531  10.615   5.934  0.00  0.00     0.035 H 
BRANCH  63  66
ATOM     66  CAR A02 d           8.009  11.336   7.337  0.00  0.00     0.080 C 
ATOM     67  H30 A02 d           7.192  11.642   8.007  0.00  0.00     0.075 H 
ATOM     68  H31 A02 d           8.369  12.210   6.774  0.00  0.00     0.075 H 
BRANCH  66  69
ATOM     69  NAC A02 d           9.116  10.782   8.137  0.00  0.00    -0.079 N 
ATOM     70  H32 A02 d           8.807  10.642   9.086  0.00  0.00     0.274 HD
ATOM     71  H33 A02 d           9.893  11.425   8.127  0.00  0.00     0.274 HD
ATOM     72  H34 A02 d           9.406   9.900   7.744  0.00  0.00     0.274 HD
ENDBRANCH  66  69
ENDBRANCH  63  66
ENDBRANCH  60  63
ENDBRANCH  57  60
ENDBRANCH   5  57
ENDBRANCH   1   5
BRANCH   3  73
ATOM     73  CBC A02 d          10.822  13.151   0.600  0.00  0.00    -0.005 C 
ATOM     74  H43 A02 d          10.353  12.491  -0.144  0.00  0.00     0.064 H 
ATOM     75  H44 A02 d          10.381  14.156   0.528  0.00  0.00     0.064 H 
BRANCH  73  76
ATOM     76  CAV A02 d          12.326  13.240   0.319  0.00  0.00    -0.050 C 
ATOM     77  H41 A02 d          12.549  12.724  -0.627  0.00  0.00     0.035 H 
ATOM     78  H42 A02 d          12.617  14.297   0.236  0.00  0.00     0.035 H 
BRANCH  76  79
ATOM     79  CAT A02 d          13.125  12.583   1.451  0.00  0.00    -0.063 C 
ATOM     80  H39 A02 d          12.976  13.163   2.373  0.00  0.00     0.033 H 
ATOM     81  H40 A02 d          12.756  11.557   1.599  0.00  0.00     0.033 H 
BRANCH  79  82
ATOM     82  CAY A02 d          14.623  12.530   1.136  0.00  0.00    -0.057 C 
ATOM     83  H37 A02 d          14.780  12.854   0.097  0.00  0.00     0.033 H 
ATOM     84  H38 A02 d          15.154  13.210   1.818  0.00  0.00     0.033 H 
BRANCH  82  85
ATOM     85  CBH A02 d          15.191  11.111   1.306  0.00  0.00     0.009 C 
ATOM     86  H35 A02 d          14.634  10.424   0.653  0.00  0.00     0.047 H 
ATOM     87  H36 A02 d          16.252  11.114   1.016  0.00  0.00     0.047 H 
BRANCH  85  88
ATOM     88  CCA A02 d          15.073  10.621   2.759  0.00  0.00     0.218 C 
ATOM     89  OAJ A02 d          14.320   9.687   3.053  0.00  0.00    -0.274 OA
ATOM     90  NBT A02 d          15.843  11.273   3.638  0.00  0.00    -0.348 N 
ATOM     91  H46 A02 d          16.429  12.011   3.303  0.00  0.00     0.163 HD
BRANCH  90  92
ATOM     92  CCJ A02 d          15.869  10.954   5.087  0.00  0.00     0.089 C 
ATOM     93  H47 A02 d          14.843  10.712   5.399  0.00  0.00     0.087 H 
BRANCH  92  94
ATOM     94  CBK A02 d          16.345  12.171   5.926  0.00  0.00    -0.036 C 
ATOM     95  H48 A02 d          17.000  11.801   6.728  0.00  0.00     0.036 H 
ATOM     96  H49 A02 d          15.460  12.652   6.367  0.00  0.00     0.036 H 
BRANCH  94  97
ATOM     97  CBB A02 d          17.119  13.232   5.125  0.00  0.00    -0.048 C 
ATOM     98  H50 A02 d          16.946  14.217   5.584  0.00  0.00     0.035 H 
ATOM     99  H51 A02 d          16.743  13.239   4.091  0.00  0.00     0.035 H 
BRANCH  97 100
ATOM    100  CBF A02 d          18.631  12.957   5.101  0.00  0.00     0.009 C 
ATOM    101  H52 A02 d          18.841  12.097   4.447  0.00  0.00     0.064 H 
ATOM    102  H53 A02 d          18.985  12.738   6.119  0.00  0.00     0.064 H 
BRANCH 100 103
ATOM    103  NBP A02 d          19.312  14.158   4.581  0.00  0.00    -0.227 N 
ATOM    104  CBX A02 d          19.634  14.340   3.293  0.00  0.00     0.665 C 
ATOM    105  NAB A02 d          19.347  13.443   2.352  0.00  0.00    -0.235 N 
ATOM    106  NAE A02 d          20.253  15.465   2.948  0.00  0.00    -0.235 N 
ATOM    107  H55 A02 d          19.611  13.621   1.372  0.00  0.00     0.174 HD
ATOM    108  H56 A02 d          18.860  12.570   2.603  0.00  0.00     0.174 HD
ATOM    109  H57 A02 d          20.481  16.169   3.666  0.00  0.00     0.174 HD
ATOM    110  H58 A02 d          20.504  15.634   1.963  0.00  0.00     0.174 HD
ATOM    111  H54 A02 d          19.555  14.902   5.250  0.00  0.00     0.177 HD
ENDBRANCH 100 103
ENDBRANCH  97 100
ENDBRANCH  94  97
ENDBRANCH  92  94
BRANCH  92 112
ATOM    112  CCD A02 d          16.754   9.712   5.353  0.00  0.00     0.241 C 
ATOM    113  OAM A02 d          17.804   9.539   4.735  0.00  0.00    -0.271 OA
ATOM    114  N   A02 d          16.292   8.869   6.279  0.00  0.00    -0.346 N 
ATOM    115  H59 A02 d          15.427   9.089   6.731  0.00  0.00     0.163 HD
BRANCH 114 116
ATOM    116  CA  A02 d          16.992   7.625   6.670  0.00  0.00     0.089 C 
ATOM    117  H60 A02 d          17.671   7.336   5.855  0.00  0.00     0.087 H 
BRANCH 116 118
ATOM    118  CB  A02 d          15.969   6.502   6.885  0.00  0.00    -0.036 C 
ATOM    119  H61 A02 d          15.708   6.455   7.952  0.00  0.00     0.036 H 
ATOM    120  H62 A02 d          16.418   5.546   6.575  0.00  0.00     0.036 H 
BRANCH 118 121
ATOM    121  CG  A02 d          14.696   6.741   6.071  0.00  0.00    -0.048 C 
ATOM    122  H63 A02 d          14.827   7.647   5.459  0.00  0.00     0.035 H 
ATOM    123  H64 A02 d          13.851   6.884   6.760  0.00  0.00     0.035 H 
BRANCH 121 124
ATOM    124  CD  A02 d          14.395   5.561   5.153  0.00  0.00     0.009 C 
ATOM    125  H65 A02 d          13.638   5.848   4.408  0.00  0.00     0.064 H 
ATOM    126  H66 A02 d          14.024   4.711   5.745  0.00  0.00     0.064 H 
BRANCH 124 127
ATOM    127  NE  A02 d          15.640   5.197   4.484  0.00  0.00    -0.227 N 
ATOM    128  CZ  A02 d          15.816   5.148   3.164  0.00  0.00     0.665 C 
ATOM    129  NH1 A02 d          14.861   5.471   2.293  0.00  0.00    -0.235 N 
ATOM    130  NH2 A02 d          17.013   4.777   2.732  0.00  0.00    -0.235 N 
ATOM    131  H68 A02 d          15.047   5.415   1.281  0.00  0.00     0.174 HD
ATOM    132  H69 A02 d          13.936   5.775   2.630  0.00  0.00     0.174 HD
ATOM    133  H70 A02 d          17.750   4.527   3.407  0.00  0.00     0.174 HD
ATOM    134  H71 A02 d          17.206   4.737   1.721  0.00  0.00     0.174 HD
ATOM    135  H67 A02 d          16.447   4.961   5.079  0.00  0.00     0.177 HD
ENDBRANCH 124 127
ENDBRANCH 121 124
ENDBRANCH 118 121
ENDBRANCH 116 118
BRANCH 116 136
ATOM    136  C   A02 d          17.828   7.826   7.955  0.00  0.00     0.238 C 
ATOM    137  O   A02 d          18.987   8.245   7.917  0.00  0.00    -0.271 OA
ATOM    138  NAF A02 d          17.190   7.534   9.087  0.00  0.00    -0.368 N 
ATOM    139  H72 A02 d          17.658   7.635   9.965  0.00  0.00     0.159 HD
ATOM    140  H73 A02 d          16.243   7.212   9.059  0.00  0.00     0.159 HD
ENDBRANCH 116 136
ENDBRANCH 114 116
ENDBRANCH  92 112
ENDBRANCH  90  92
ENDBRANCH  85  88
ENDBRANCH  82  85
ENDBRANCH  79  82
ENDBRANCH  76  79
ENDBRANCH  73  76
ENDBRANCH   3  73
TORSDOF 36
ENDMDL
MODEL 5
REMARK VINA RESULT:      -4.7      2.686      4.949
REMARK WARNING: 32 MAX_TORS EXCEEDED!!!
REMARK  36 active torsions:
REMARK  status: ('A' for Active; 'I' for Inactive)
REMARK    1  A    between atoms: C6_6  and  N6_7 
REMARK    2  A    between atoms: CCN_19  and  N9_10 
REMARK    3  A    between atoms: CCK_16  and  OAN_12 
REMARK    4  A    between atoms: CCL_17  and  OAO_13 
REMARK    5  A    between atoms: CCC_15  and  CCM_18 
REMARK       I    between atoms: NBR_27  and  CCC_15 
REMARK    6  A    between atoms: CBZ_20  and  CBG_22 
REMARK       I    between atoms: NBS_28  and  CBZ_20 
REMARK    7  A    between atoms: CBG_22  and  CAX_23 
REMARK    8  A    between atoms: CAX_23  and  CAU_24 
REMARK    9  A    between atoms: CAU_24  and  CAW_25 
REMARK   10  A    between atoms: CAW_25  and  CBD_26 
REMARK   11  A    between atoms: CBD_26  and  NBR_27 
REMARK   12  A    between atoms: CCI_29  and  NBS_28 
REMARK   13  A    between atoms: CCB_30  and  CCI_29 
REMARK   14  A    between atoms: CCI_29  and  CBJ_32 
REMARK       I    between atoms: NBQ_44  and  CCB_30 
REMARK   15  A    between atoms: CBJ_32  and  CAZ_33 
REMARK   16  A    between atoms: CAZ_33  and  CAS_34 
REMARK   17  A    between atoms: CAS_34  and  CAR_35 
REMARK   18  A    between atoms: CAR_35  and  NAC_36 
REMARK   19  A    between atoms: CBH_39  and  CCA_37 
REMARK       I    between atoms: CCA_37  and  NBT_45 
REMARK   20  A    between atoms: CAY_40  and  CBH_39 
REMARK   21  A    between atoms: CAT_41  and  CAY_40 
REMARK   22  A    between atoms: CAV_42  and  CAT_41 
REMARK   23  A    between atoms: CBC_43  and  CAV_42 
REMARK   24  A    between atoms: CBC_43  and  NBQ_44 
REMARK   25  A    between atoms: NBT_45  and  CCJ_46 
REMARK   26  A    between atoms: CCJ_46  and  CBK_47 
REMARK   27  A    between atoms: CCJ_46  and  CCD_54 
REMARK   28  A    between atoms: CBK_47  and  CBB_48 
REMARK   29  A    between atoms: CBB_48  and  CBF_49 
REMARK   30  A    between atoms: CBF_49  and  NBP_50 
REMARK       I    between atoms: NBP_50  and  CBX_51 
REMARK       I    between atoms: CBX_51  and  NAB_52 
REMARK       I    between atoms: CBX_51  and  NAE_53 
REMARK       I    between atoms: CCD_54  and  N_56 
REMARK   31  A    between atoms: N_56  and  CA_57 
REMARK   32  A    between atoms: CA_57  and  CB_58 
REMARK   33  A    between atoms: CA_57  and  C_65 
REMARK   34  A    between atoms: CB_58  and  CG_59 
REMARK   35  A    between atoms: CG_59  and  CD_60 
REMARK   36  A    between atoms: CD_60  and  NE_61 
REMARK       I    between atoms: NE_61  and  CZ_62 
REMARK       I    between atoms: CZ_62  and  NH1_63 
REMARK       I    between atoms: C_65  and  NAF_67 
ROOT
ATOM      1  CCB A02 d          17.048   3.850   5.780  0.00  0.00     0.240 C 
ATOM      2  OAK A02 d          17.499   3.211   4.838  0.00  0.00    -0.271 OA
ATOM      3  NBQ A02 d          17.801   4.545   6.631  0.00  0.00    -0.359 N 
ATOM      4  H45 A02 d          17.355   5.032   7.382  0.00  0.00     0.162 HD
ENDROOT
BRANCH   1   5
ATOM      5  CCI A02 d          15.527   3.858   6.068  0.00  0.00     0.089 C 
ATOM      6  H23 A02 d          15.091   3.013   5.517  0.00  0.00     0.087 H 
BRANCH   5   7
ATOM      7  NBS A02 d          14.901   5.098   5.540  0.00  0.00    -0.348 N 
ATOM      8  CBZ A02 d          15.016   6.275   6.176  0.00  0.00     0.218 C 
ATOM      9  OAI A02 d          15.596   6.428   7.258  0.00  0.00    -0.274 OA
ATOM     10  H22 A02 d          14.380   5.055   4.688  0.00  0.00     0.163 HD
BRANCH   8  11
ATOM     11  CBG A02 d          14.312   7.462   5.487  0.00  0.00     0.009 C 
ATOM     12  H11 A02 d          14.711   7.569   4.468  0.00  0.00     0.047 H 
ATOM     13  H12 A02 d          14.517   8.378   6.059  0.00  0.00     0.047 H 
BRANCH  11  14
ATOM     14  CAX A02 d          12.786   7.256   5.405  0.00  0.00    -0.057 C 
ATOM     15  H13 A02 d          12.356   7.361   6.413  0.00  0.00     0.033 H 
ATOM     16  H14 A02 d          12.581   6.244   5.023  0.00  0.00     0.033 H 
BRANCH  14  17
ATOM     17  CAU A02 d          12.136   8.284   4.473  0.00  0.00    -0.063 C 
ATOM     18  H15 A02 d          12.931   8.852   3.967  0.00  0.00     0.033 H 
ATOM     19  H16 A02 d          11.524   8.969   5.079  0.00  0.00     0.033 H 
BRANCH  17  20
ATOM     20  CAW A02 d          11.241   7.642   3.410  0.00  0.00    -0.050 C 
ATOM     21  H17 A02 d          11.646   6.661   3.120  0.00  0.00     0.035 H 
ATOM     22  H18 A02 d          11.185   8.292   2.524  0.00  0.00     0.035 H 
BRANCH  20  23
ATOM     23  CBD A02 d           9.848   7.471   4.021  0.00  0.00    -0.005 C 
ATOM     24  H19 A02 d           9.770   6.456   4.438  0.00  0.00     0.064 H 
ATOM     25  H20 A02 d           9.098   7.601   3.229  0.00  0.00     0.064 H 
BRANCH  23  26
ATOM     26  NBR A02 d           9.576   8.444   5.093  0.00  0.00    -0.359 N 
ATOM     27  CCC A02 d           8.547   8.366   5.938  0.00  0.00     0.249 C 
ATOM     28  OAL A02 d           7.657   7.505   5.882  0.00  0.00    -0.271 OA
ATOM     29  H21 A02 d          10.205   9.215   5.194  0.00  0.00     0.162 HD
BRANCH  27  30
ATOM     30  CCM A02 d           8.490   9.433   7.047  0.00  0.00     0.144 C 
ATOM     31  OBV A02 d           8.316   8.824   8.370  0.00  0.00    -0.346 OA
ATOM     32  CCN A02 d           9.588   8.854   9.080  0.00  0.00     0.140 C 
ATOM     33  CCL A02 d          10.630   9.261   8.020  0.00  0.00     0.105 C 
ATOM     34  H10 A02 d           9.553   9.619   9.870  0.00  0.00     0.123 H 
ATOM     35  CCK A02 d           9.827  10.172   7.110  0.00  0.00     0.098 C 
ATOM     36  H8  A02 d          11.029   8.388   7.482  0.00  0.00     0.093 H 
ATOM     37  H7  A02 d          10.291  10.293   6.120  0.00  0.00     0.091 H 
ATOM     38  H9  A02 d           7.669  10.135   6.840  0.00  0.00     0.102 H 
BRANCH  32  39
ATOM     39  N9  A02 d           9.899   7.512   9.735  0.00  0.00    -0.294 N 
ATOM     40  C4  A02 d          10.874   7.274  10.606  0.00  0.00     0.167 A 
ATOM     41  N3  A02 d          11.829   8.047  11.147  0.00  0.00    -0.222 NA
ATOM     42  C5  A02 d          10.810   5.928  10.940  0.00  0.00     0.149 A 
ATOM     43  C2  A02 d          12.698   7.538  12.010  0.00  0.00     0.091 A 
ATOM     44  N1  A02 d          12.654   6.244  12.358  0.00  0.00    -0.222 NA
ATOM     45  H1  A02 d          13.459   8.179  12.441  0.00  0.00     0.146 H 
ATOM     46  C6  A02 d          11.731   5.418  11.840  0.00  0.00     0.155 A 
ATOM     47  N7  A02 d           9.796   5.379  10.275  0.00  0.00    -0.236 NA
ATOM     48  C8  A02 d           9.239   6.357   9.551  0.00  0.00     0.071 A 
ATOM     49  H4  A02 d           8.373   6.234   8.904  0.00  0.00     0.144 H 
BRANCH  46  50
ATOM     50  N6  A02 d          11.695   4.133  12.175  0.00  0.00    -0.382 N 
ATOM     51  H2  A02 d          11.625   3.412  11.443  0.00  0.00     0.157 HD
ATOM     52  H3  A02 d          11.738   3.857  13.166  0.00  0.00     0.157 HD
ENDBRANCH  46  50
ENDBRANCH  32  39
BRANCH  33  53
ATOM     53  OAO A02 d          11.687   9.996   8.621  0.00  0.00    -0.388 OA
ATOM     54  H6  A02 d          12.376   9.398   8.885  0.00  0.00     0.210 HD
ENDBRANCH  33  53
BRANCH  35  55
ATOM     55  OAN A02 d           9.633  11.450   7.747  0.00  0.00    -0.390 OA
ATOM     56  H5  A02 d           9.471  12.111   7.085  0.00  0.00     0.210 HD
ENDBRANCH  35  55
ENDBRANCH  27  30
ENDBRANCH  23  26
ENDBRANCH  20  23
ENDBRANCH  17  20
ENDBRANCH  14  17
ENDBRANCH  11  14
ENDBRANCH   8  11
ENDBRANCH   5   7
BRANCH   5  57
ATOM     57  CBJ A02 d          15.191   3.638   7.561  0.00  0.00    -0.038 C 
ATOM     58  H24 A02 d          14.643   4.522   7.920  0.00  0.00     0.036 H 
ATOM     59  H25 A02 d          16.139   3.545   8.112  0.00  0.00     0.036 H 
BRANCH  57  60
ATOM     60  CAZ A02 d          14.343   2.399   7.865  0.00  0.00    -0.061 C 
ATOM     61  H26 A02 d          14.913   1.719   8.516  0.00  0.00     0.033 H 
ATOM     62  H27 A02 d          14.100   1.885   6.924  0.00  0.00     0.033 H 
BRANCH  60  63
ATOM     63  CAS A02 d          13.036   2.808   8.576  0.00  0.00    -0.043 C 
ATOM     64  H28 A02 d          13.169   2.699   9.663  0.00  0.00     0.035 H 
ATOM     65  H29 A02 d          12.222   2.150   8.237  0.00  0.00     0.035 H 
BRANCH  63  66
ATOM     66  CAR A02 d          12.666   4.265   8.260  0.00  0.00     0.080 C 
ATOM     67  H30 A02 d          13.568   4.809   7.941  0.00  0.00     0.075 H 
ATOM     68  H31 A02 d          12.250   4.740   9.162  0.00  0.00     0.075 H 
BRANCH  66  69
ATOM     69  NAC A02 d          11.663   4.308   7.180  0.00  0.00    -0.079 N 
ATOM     70  H32 A02 d          11.269   3.389   7.052  0.00  0.00     0.274 HD
ATOM     71  H33 A02 d          12.104   4.608   6.324  0.00  0.00     0.274 HD
ATOM     72  H34 A02 d          10.932   4.956   7.426  0.00  0.00     0.274 HD
ENDBRANCH  66  69
ENDBRANCH  63  66
ENDBRANCH  60  63
ENDBRANCH  57  60
ENDBRANCH   5  57
ENDBRANCH   1   5
BRANCH   3  73
ATOM     73  CBC A02 d          19.275   4.625   6.506  0.00  0.00    -0.005 C 
ATOM     74  H43 A02 d          19.737   3.942   7.235  0.00  0.00     0.064 H 
ATOM     75  H44 A02 d          19.568   4.328   5.489  0.00  0.00     0.064 H 
BRANCH  73  76
ATOM     76  CAV A02 d          19.761   6.053   6.774  0.00  0.00    -0.050 C 
ATOM     77  H41 A02 d          19.058   6.553   7.457  0.00  0.00     0.035 H 
ATOM     78  H42 A02 d          20.757   6.015   7.239  0.00  0.00     0.035 H 
BRANCH  76  79
ATOM     79  CAT A02 d          19.845   6.848   5.465  0.00  0.00    -0.063 C 
ATOM     80  H39 A02 d          20.880   7.186   5.320  0.00  0.00     0.033 H 
ATOM     81  H40 A02 d          19.553   6.191   4.632  0.00  0.00     0.033 H 
BRANCH  79  82
ATOM     82  CAY A02 d          18.921   8.070   5.480  0.00  0.00    -0.057 C 
ATOM     83  H37 A02 d          18.305   8.062   4.569  0.00  0.00     0.033 H 
ATOM     84  H38 A02 d          18.270   8.013   6.365  0.00  0.00     0.033 H 
BRANCH  82  85
ATOM     85  CBH A02 d          19.718   9.385   5.531  0.00  0.00     0.009 C 
ATOM     86  H35 A02 d          19.855   9.678   6.582  0.00  0.00     0.047 H 
ATOM     87  H36 A02 d          20.701   9.224   5.063  0.00  0.00     0.047 H 
BRANCH  85  88
ATOM     88  CCA A02 d          18.991  10.519   4.788  0.00  0.00     0.218 C 
ATOM     89  OAJ A02 d          19.618  11.481   4.334  0.00  0.00    -0.274 OA
ATOM     90  NBT A02 d          17.667  10.362   4.677  0.00  0.00    -0.348 N 
ATOM     91  H46 A02 d          17.249   9.542   5.069  0.00  0.00     0.163 HD
BRANCH  90  92
ATOM     92  CCJ A02 d          16.787  11.348   4.000  0.00  0.00     0.089 C 
ATOM     93  H47 A02 d          17.315  11.716   3.109  0.00  0.00     0.087 H 
BRANCH  92  94
ATOM     94  CBK A02 d          16.494  12.566   4.916  0.00  0.00    -0.036 C 
ATOM     95  H48 A02 d          17.145  12.496   5.800  0.00  0.00     0.036 H 
ATOM     96  H49 A02 d          15.442  12.515   5.230  0.00  0.00     0.036 H 
BRANCH  94  97
ATOM     97  CBB A02 d          16.732  13.933   4.252  0.00  0.00    -0.048 C 
ATOM     98  H50 A02 d          15.827  14.547   4.372  0.00  0.00     0.035 H 
ATOM     99  H51 A02 d          16.929  13.777   3.181  0.00  0.00     0.035 H 
BRANCH  97 100
ATOM    100  CBF A02 d          17.923  14.683   4.870  0.00  0.00     0.009 C 
ATOM    101  H52 A02 d          18.195  14.220   5.830  0.00  0.00     0.064 H 
ATOM    102  H53 A02 d          17.655  15.737   5.033  0.00  0.00     0.064 H 
BRANCH 100 103
ATOM    103  NBP A02 d          19.060  14.596   3.934  0.00  0.00    -0.227 N 
ATOM    104  CBX A02 d          19.755  15.655   3.497  0.00  0.00     0.665 C 
ATOM    105  NAB A02 d          19.482  16.898   3.888  0.00  0.00    -0.235 N 
ATOM    106  NAE A02 d          20.758  15.448   2.648  0.00  0.00    -0.235 N 
ATOM    107  H55 A02 d          20.040  17.686   3.528  0.00  0.00     0.174 HD
ATOM    108  H56 A02 d          18.713  17.073   4.551  0.00  0.00     0.174 HD
ATOM    109  H57 A02 d          20.981  14.492   2.337  0.00  0.00     0.174 HD
ATOM    110  H58 A02 d          21.313  16.245   2.303  0.00  0.00     0.174 HD
ATOM    111  H54 A02 d          19.338  13.663   3.597  0.00  0.00     0.177 HD
ENDBRANCH 100 103
ENDBRANCH  97 100
ENDBRANCH  94  97
ENDBRANCH  92  94
BRANCH  92 112
ATOM    112  CCD A02 d          15.475  10.672   3.533  0.00  0.00     0.241 C 
ATOM    113  OAM A02 d          14.443  10.766   4.196  0.00  0.00    -0.271 OA
ATOM    114  N   A02 d          15.559   9.994   2.386  0.00  0.00    -0.346 N 
ATOM    115  H59 A02 d          16.440   9.968   1.913  0.00  0.00     0.163 HD
BRANCH 114 116
ATOM    116  CA  A02 d          14.415   9.278   1.777  0.00  0.00     0.089 C 
ATOM    117  H60 A02 d          13.659   9.101   2.556  0.00  0.00     0.087 H 
BRANCH 116 118
ATOM    118  CB  A02 d          14.886   7.924   1.230  0.00  0.00    -0.036 C 
ATOM    119  H61 A02 d          15.695   8.094   0.503  0.00  0.00     0.036 H 
ATOM    120  H62 A02 d          14.042   7.428   0.729  0.00  0.00     0.036 H 
BRANCH 118 121
ATOM    121  CG  A02 d          15.404   7.017   2.348  0.00  0.00    -0.048 C 
ATOM    122  H63 A02 d          14.703   7.057   3.195  0.00  0.00     0.035 H 
ATOM    123  H64 A02 d          16.392   7.377   2.673  0.00  0.00     0.035 H 
BRANCH 121 124
ATOM    124  CD  A02 d          15.531   5.573   1.876  0.00  0.00     0.009 C 
ATOM    125  H65 A02 d          15.593   5.541   0.778  0.00  0.00     0.064 H 
ATOM    126  H66 A02 d          14.661   4.990   2.212  0.00  0.00     0.064 H 
BRANCH 124 127
ATOM    127  NE  A02 d          16.753   5.027   2.459  0.00  0.00    -0.227 N 
ATOM    128  CZ  A02 d          17.989   5.288   2.036  0.00  0.00     0.665 C 
ATOM    129  NH1 A02 d          18.250   6.128   1.034  0.00  0.00    -0.235 N 
ATOM    130  NH2 A02 d          18.982   4.686   2.676  0.00  0.00    -0.235 N 
ATOM    131  H68 A02 d          19.224   6.296   0.745  0.00  0.00     0.174 HD
ATOM    132  H69 A02 d          17.479   6.607   0.549  0.00  0.00     0.174 HD
ATOM    133  H70 A02 d          18.778   4.038   3.450  0.00  0.00     0.174 HD
ATOM    134  H71 A02 d          19.957   4.866   2.399  0.00  0.00     0.174 HD
ATOM    135  H67 A02 d          16.652   4.390   3.262  0.00  0.00     0.177 HD
ENDBRANCH 124 127
ENDBRANCH 121 124
ENDBRANCH 118 121
ENDBRANCH 116 118
BRANCH 116 136
ATOM    136  C   A02 d          13.766  10.105   0.645  0.00  0.00     0.238 C 
ATOM    137  O   A02 d          12.605  10.513   0.722  0.00  0.00    -0.271 OA
ATOM    138  NAF A02 d          14.564  10.354  -0.392  0.00  0.00    -0.368 N 
ATOM    139  H72 A02 d          14.224  10.883  -1.169  0.00  0.00     0.159 HD
ATOM    140  H73 A02 d          15.504  10.011  -0.393  0.00  0.00     0.159 HD
ENDBRANCH 116 136
ENDBRANCH 114 116
ENDBRANCH  92 112
ENDBRANCH  90  92
ENDBRANCH  85  88
ENDBRANCH  82  85
ENDBRANCH  79  82
ENDBRANCH  76  79
ENDBRANCH  73  76
ENDBRANCH   3  73
TORSDOF 36
ENDMDL
MODEL 6
REMARK VINA RESULT:      -4.6      3.828      8.033
REMARK WARNING: 32 MAX_TORS EXCEEDED!!!
REMARK  36 active torsions:
REMARK  status: ('A' for Active; 'I' for Inactive)
REMARK    1  A    between atoms: C6_6  and  N6_7 
REMARK    2  A    between atoms: CCN_19  and  N9_10 
REMARK    3  A    between atoms: CCK_16  and  OAN_12 
REMARK    4  A    between atoms: CCL_17  and  OAO_13 
REMARK    5  A    between atoms: CCC_15  and  CCM_18 
REMARK       I    between atoms: NBR_27  and  CCC_15 
REMARK    6  A    between atoms: CBZ_20  and  CBG_22 
REMARK       I    between atoms: NBS_28  and  CBZ_20 
REMARK    7  A    between atoms: CBG_22  and  CAX_23 
REMARK    8  A    between atoms: CAX_23  and  CAU_24 
REMARK    9  A    between atoms: CAU_24  and  CAW_25 
REMARK   10  A    between atoms: CAW_25  and  CBD_26 
REMARK   11  A    between atoms: CBD_26  and  NBR_27 
REMARK   12  A    between atoms: CCI_29  and  NBS_28 
REMARK   13  A    between atoms: CCB_30  and  CCI_29 
REMARK   14  A    between atoms: CCI_29  and  CBJ_32 
REMARK       I    between atoms: NBQ_44  and  CCB_30 
REMARK   15  A    between atoms: CBJ_32  and  CAZ_33 
REMARK   16  A    between atoms: CAZ_33  and  CAS_34 
REMARK   17  A    between atoms: CAS_34  and  CAR_35 
REMARK   18  A    between atoms: CAR_35  and  NAC_36 
REMARK   19  A    between atoms: CBH_39  and  CCA_37 
REMARK       I    between atoms: CCA_37  and  NBT_45 
REMARK   20  A    between atoms: CAY_40  and  CBH_39 
REMARK   21  A    between atoms: CAT_41  and  CAY_40 
REMARK   22  A    between atoms: CAV_42  and  CAT_41 
REMARK   23  A    between atoms: CBC_43  and  CAV_42 
REMARK   24  A    between atoms: CBC_43  and  NBQ_44 
REMARK   25  A    between atoms: NBT_45  and  CCJ_46 
REMARK   26  A    between atoms: CCJ_46  and  CBK_47 
REMARK   27  A    between atoms: CCJ_46  and  CCD_54 
REMARK   28  A    between atoms: CBK_47  and  CBB_48 
REMARK   29  A    between atoms: CBB_48  and  CBF_49 
REMARK   30  A    between atoms: CBF_49  and  NBP_50 
REMARK       I    between atoms: NBP_50  and  CBX_51 
REMARK       I    between atoms: CBX_51  and  NAB_52 
REMARK       I    between atoms: CBX_51  and  NAE_53 
REMARK       I    between atoms: CCD_54  and  N_56 
REMARK   31  A    between atoms: N_56  and  CA_57 
REMARK   32  A    between atoms: CA_57  and  CB_58 
REMARK   33  A    between atoms: CA_57  and  C_65 
REMARK   34  A    between atoms: CB_58  and  CG_59 
REMARK   35  A    between atoms: CG_59  and  CD_60 
REMARK   36  A    between atoms: CD_60  and  NE_61 
REMARK       I    between atoms: NE_61  and  CZ_62 
REMARK       I    between atoms: CZ_62  and  NH1_63 
REMARK       I    between atoms: C_65  and  NAF_67 
ROOT
ATOM      1  CCB A02 d          12.237   9.413   1.269  0.00  0.00     0.240 C 
ATOM      2  OAK A02 d          12.860   9.751   2.268  0.00  0.00    -0.271 OA
ATOM      3  NBQ A02 d          11.379  10.205   0.629  0.00  0.00    -0.359 N 
ATOM      4  H45 A02 d          10.902   9.848  -0.176  0.00  0.00     0.162 HD
ENDROOT
BRANCH   1   5
ATOM      5  CCI A02 d          12.391   7.984   0.692  0.00  0.00     0.089 C 
ATOM      6  H23 A02 d          11.812   7.312   1.342  0.00  0.00     0.087 H 
BRANCH   5   7
ATOM      7  NBS A02 d          13.809   7.544   0.755  0.00  0.00    -0.348 N 
ATOM      8  CBZ A02 d          14.192   6.496   1.501  0.00  0.00     0.218 C 
ATOM      9  OAI A02 d          13.432   5.842   2.226  0.00  0.00    -0.274 OA
ATOM     10  H22 A02 d          14.496   8.042   0.227  0.00  0.00     0.163 HD
BRANCH   8  11
ATOM     11  CBG A02 d          15.699   6.170   1.445  0.00  0.00     0.009 C 
ATOM     12  H11 A02 d          16.269   7.093   1.622  0.00  0.00     0.047 H 
ATOM     13  H12 A02 d          15.941   5.775   0.447  0.00  0.00     0.047 H 
BRANCH  11  14
ATOM     14  CAX A02 d          16.100   5.126   2.505  0.00  0.00    -0.057 C 
ATOM     15  H13 A02 d          16.599   4.282   2.006  0.00  0.00     0.033 H 
ATOM     16  H14 A02 d          15.194   4.766   3.016  0.00  0.00     0.033 H 
BRANCH  14  17
ATOM     17  CAU A02 d          17.054   5.727   3.544  0.00  0.00    -0.063 C 
ATOM     18  H15 A02 d          16.550   5.731   4.522  0.00  0.00     0.033 H 
ATOM     19  H16 A02 d          17.289   6.760   3.249  0.00  0.00     0.033 H 
BRANCH  17  20
ATOM     20  CAW A02 d          18.364   4.945   3.673  0.00  0.00    -0.050 C 
ATOM     21  H17 A02 d          19.183   5.503   3.196  0.00  0.00     0.035 H 
ATOM     22  H18 A02 d          18.263   3.960   3.192  0.00  0.00     0.035 H 
BRANCH  20  23
ATOM     23  CBD A02 d          18.651   4.769   5.166  0.00  0.00    -0.005 C 
ATOM     24  H19 A02 d          18.203   5.613   5.712  0.00  0.00     0.064 H 
ATOM     25  H20 A02 d          19.740   4.772   5.317  0.00  0.00     0.064 H 
BRANCH  23  26
ATOM     26  NBR A02 d          18.103   3.513   5.706  0.00  0.00    -0.359 N 
ATOM     27  CCC A02 d          17.646   3.363   6.950  0.00  0.00     0.249 C 
ATOM     28  OAL A02 d          17.689   4.241   7.823  0.00  0.00    -0.271 OA
ATOM     29  H21 A02 d          18.072   2.719   5.099  0.00  0.00     0.162 HD
BRANCH  27  30
ATOM     30  CCM A02 d          17.029   1.993   7.291  0.00  0.00     0.144 C 
ATOM     31  OBV A02 d          16.391   2.007   8.612  0.00  0.00    -0.346 OA
ATOM     32  CCN A02 d          14.945   2.070   8.442  0.00  0.00     0.140 C 
ATOM     33  CCL A02 d          14.729   2.379   6.947  0.00  0.00     0.105 C 
ATOM     34  H10 A02 d          14.502   1.092   8.680  0.00  0.00     0.123 H 
ATOM     35  CCK A02 d          15.910   1.679   6.298  0.00  0.00     0.098 C 
ATOM     36  H8  A02 d          14.732   3.461   6.749  0.00  0.00     0.093 H 
ATOM     37  H7  A02 d          16.120   2.059   5.288  0.00  0.00     0.091 H 
ATOM     38  H9  A02 d          17.810   1.219   7.252  0.00  0.00     0.102 H 
BRANCH  32  39
ATOM     39  N9  A02 d          14.316   3.111   9.361  0.00  0.00    -0.294 N 
ATOM     40  C4  A02 d          13.062   3.548   9.305  0.00  0.00     0.167 A 
ATOM     41  N3  A02 d          12.027   3.263   8.499  0.00  0.00    -0.222 NA
ATOM     42  C5  A02 d          12.909   4.494  10.310  0.00  0.00     0.149 A 
ATOM     43  C2  A02 d          10.857   3.866   8.668  0.00  0.00     0.091 A 
ATOM     44  N1  A02 d          10.678   4.775   9.635  0.00  0.00    -0.222 NA
ATOM     45  H1  A02 d          10.031   3.618   8.010  0.00  0.00     0.146 H 
ATOM     46  C6  A02 d          11.679   5.113  10.463  0.00  0.00     0.155 A 
ATOM     47  N7  A02 d          14.065   4.605  10.960  0.00  0.00    -0.236 NA
ATOM     48  C8  A02 d          14.914   3.748  10.381  0.00  0.00     0.071 A 
ATOM     49  H4  A02 d          15.945   3.590  10.692  0.00  0.00     0.144 H 
BRANCH  46  50
ATOM     50  N6  A02 d          11.506   6.024  11.415  0.00  0.00    -0.382 N 
ATOM     51  H2  A02 d          12.307   6.579  11.749  0.00  0.00     0.157 HD
ATOM     52  H3  A02 d          10.571   6.175  11.819  0.00  0.00     0.157 HD
ENDBRANCH  46  50
ENDBRANCH  32  39
BRANCH  33  53
ATOM     53  OAO A02 d          13.518   1.796   6.491  0.00  0.00    -0.388 OA
ATOM     54  H6  A02 d          12.944   2.477   6.161  0.00  0.00     0.210 HD
ENDBRANCH  33  53
BRANCH  35  55
ATOM     55  OAN A02 d          15.681   0.257   6.276  0.00  0.00    -0.390 OA
ATOM     56  H5  A02 d          16.178  -0.132   5.566  0.00  0.00     0.210 HD
ENDBRANCH  35  55
ENDBRANCH  27  30
ENDBRANCH  23  26
ENDBRANCH  20  23
ENDBRANCH  17  20
ENDBRANCH  14  17
ENDBRANCH  11  14
ENDBRANCH   8  11
ENDBRANCH   5   7
BRANCH   5  57
ATOM     57  CBJ A02 d          11.808   7.839  -0.732  0.00  0.00    -0.038 C 
ATOM     58  H24 A02 d          12.645   7.669  -1.425  0.00  0.00     0.036 H 
ATOM     59  H25 A02 d          11.304   8.782  -0.990  0.00  0.00     0.036 H 
BRANCH  57  60
ATOM     60  CAZ A02 d          10.802   6.698  -0.914  0.00  0.00    -0.061 C 
ATOM     61  H26 A02 d          11.135   5.824  -0.336  0.00  0.00     0.033 H 
ATOM     62  H27 A02 d          10.743   6.433  -1.980  0.00  0.00     0.033 H 
BRANCH  60  63
ATOM     63  CAS A02 d           9.406   7.135  -0.420  0.00  0.00    -0.043 C 
ATOM     64  H28 A02 d           9.073   8.004  -1.007  0.00  0.00     0.035 H 
ATOM     65  H29 A02 d           9.473   7.413   0.642  0.00  0.00     0.035 H 
BRANCH  63  66
ATOM     66  CAR A02 d           8.382   6.001  -0.578  0.00  0.00     0.080 C 
ATOM     67  H30 A02 d           8.694   5.341  -1.402  0.00  0.00     0.075 H 
ATOM     68  H31 A02 d           7.395   6.430  -0.805  0.00  0.00     0.075 H 
BRANCH  66  69
ATOM     69  NAC A02 d           8.299   5.219   0.669  0.00  0.00    -0.079 N 
ATOM     70  H32 A02 d           8.962   5.581   1.337  0.00  0.00     0.274 HD
ATOM     71  H33 A02 d           8.511   4.253   0.474  0.00  0.00     0.274 HD
ATOM     72  H34 A02 d           7.367   5.289   1.047  0.00  0.00     0.274 HD
ENDBRANCH  66  69
ENDBRANCH  63  66
ENDBRANCH  60  63
ENDBRANCH  57  60
ENDBRANCH   5  57
ENDBRANCH   1   5
BRANCH   3  73
ATOM     73  CBC A02 d          11.104  11.594   1.062  0.00  0.00    -0.005 C 
ATOM     74  H43 A02 d          11.995  12.000   1.564  0.00  0.00     0.064 H 
ATOM     75  H44 A02 d          10.868  12.208   0.180  0.00  0.00     0.064 H 
BRANCH  73  76
ATOM     76  CAV A02 d           9.918  11.630   2.033  0.00  0.00    -0.050 C 
ATOM     77  H41 A02 d           8.988  11.776   1.463  0.00  0.00     0.035 H 
ATOM     78  H42 A02 d           9.868  10.676   2.578  0.00  0.00     0.035 H 
BRANCH  76  79
ATOM     79  CAT A02 d          10.080  12.778   3.037  0.00  0.00    -0.063 C 
ATOM     80  H39 A02 d          11.074  13.229   2.903  0.00  0.00     0.033 H 
ATOM     81  H40 A02 d           9.305  13.534   2.842  0.00  0.00     0.033 H 
BRANCH  79  82
ATOM     82  CAY A02 d           9.947  12.293   4.484  0.00  0.00    -0.057 C 
ATOM     83  H37 A02 d           9.790  13.163   5.138  0.00  0.00     0.033 H 
ATOM     84  H38 A02 d           9.080  11.619   4.555  0.00  0.00     0.033 H 
BRANCH  82  85
ATOM     85  CBH A02 d          11.204  11.539   4.950  0.00  0.00     0.009 C 
ATOM     86  H35 A02 d          10.911  10.784   5.694  0.00  0.00     0.047 H 
ATOM     87  H36 A02 d          11.663  11.041   4.083  0.00  0.00     0.047 H 
BRANCH  85  88
ATOM     88  CCA A02 d          12.234  12.489   5.584  0.00  0.00     0.218 C 
ATOM     89  OAJ A02 d          12.155  12.805   6.775  0.00  0.00    -0.274 OA
ATOM     90  NBT A02 d          13.194  12.913   4.753  0.00  0.00    -0.348 N 
ATOM     91  H46 A02 d          13.182  12.593   3.806  0.00  0.00     0.163 HD
BRANCH  90  92
ATOM     92  CCJ A02 d          14.277  13.838   5.171  0.00  0.00     0.089 C 
ATOM     93  H47 A02 d          14.372  13.776   6.265  0.00  0.00     0.087 H 
BRANCH  92  94
ATOM     94  CBK A02 d          13.939  15.308   4.806  0.00  0.00    -0.036 C 
ATOM     95  H48 A02 d          14.878  15.830   4.574  0.00  0.00     0.036 H 
ATOM     96  H49 A02 d          13.464  15.778   5.679  0.00  0.00     0.036 H 
BRANCH  94  97
ATOM     97  CBB A02 d          12.993  15.463   3.602  0.00  0.00    -0.048 C 
ATOM     98  H50 A02 d          12.872  14.482   3.119  0.00  0.00     0.035 H 
ATOM     99  H51 A02 d          13.442  16.170   2.889  0.00  0.00     0.035 H 
BRANCH  97 100
ATOM    100  CBF A02 d          11.607  15.986   4.013  0.00  0.00     0.009 C 
ATOM    101  H52 A02 d          11.711  16.699   4.844  0.00  0.00     0.064 H 
ATOM    102  H53 A02 d          10.971  15.146   4.328  0.00  0.00     0.064 H 
BRANCH 100 103
ATOM    103  NBP A02 d          11.004  16.662   2.849  0.00  0.00    -0.227 N 
ATOM    104  CBX A02 d          10.896  17.991   2.724  0.00  0.00     0.665 C 
ATOM    105  NAB A02 d          11.347  18.834   3.653  0.00  0.00    -0.235 N 
ATOM    106  NAE A02 d          10.326  18.481   1.627  0.00  0.00    -0.235 N 
ATOM    107  H55 A02 d          11.245  19.850   3.519  0.00  0.00     0.174 HD
ATOM    108  H56 A02 d          11.798  18.469   4.504  0.00  0.00     0.174 HD
ATOM    109  H57 A02 d           9.973  17.842   0.901  0.00  0.00     0.174 HD
ATOM    110  H58 A02 d          10.238  19.500   1.504  0.00  0.00     0.174 HD
ATOM    111  H54 A02 d          10.643  16.074   2.084  0.00  0.00     0.177 HD
ENDBRANCH 100 103
ENDBRANCH  97 100
ENDBRANCH  94  97
ENDBRANCH  92  94
BRANCH  92 112
ATOM    112  CCD A02 d          15.628  13.405   4.551  0.00  0.00     0.241 C 
ATOM    113  OAM A02 d          16.047  13.927   3.518  0.00  0.00    -0.271 OA
ATOM    114  N   A02 d          16.278  12.443   5.210  0.00  0.00    -0.346 N 
ATOM    115  H59 A02 d          15.862  12.075   6.042  0.00  0.00     0.163 HD
BRANCH 114 116
ATOM    116  CA  A02 d          17.581  11.893   4.774  0.00  0.00     0.089 C 
ATOM    117  H60 A02 d          17.681  12.050   3.690  0.00  0.00     0.087 H 
BRANCH 116 118
ATOM    118  CB  A02 d          17.629  10.387   5.062  0.00  0.00    -0.036 C 
ATOM    119  H61 A02 d          18.577  10.149   5.566  0.00  0.00     0.036 H 
ATOM    120  H62 A02 d          17.572   9.839   4.110  0.00  0.00     0.036 H 
BRANCH 118 121
ATOM    121  CG  A02 d          16.467   9.952   5.957  0.00  0.00    -0.048 C 
ATOM    122  H63 A02 d          15.531  10.372   5.560  0.00  0.00     0.035 H 
ATOM    123  H64 A02 d          16.636  10.332   6.976  0.00  0.00     0.035 H 
BRANCH 121 124
ATOM    124  CD  A02 d          16.346   8.432   6.008  0.00  0.00     0.009 C 
ATOM    125  H65 A02 d          17.174   7.971   5.450  0.00  0.00     0.064 H 
ATOM    126  H66 A02 d          15.387   8.117   5.571  0.00  0.00     0.064 H 
BRANCH 124 127
ATOM    127  NE  A02 d          16.410   8.035   7.411  0.00  0.00    -0.227 N 
ATOM    128  CZ  A02 d          15.869   6.929   7.921  0.00  0.00     0.665 C 
ATOM    129  NH1 A02 d          15.230   6.025   7.178  0.00  0.00    -0.235 N 
ATOM    130  NH2 A02 d          16.009   6.739   9.226  0.00  0.00    -0.235 N 
ATOM    131  H68 A02 d          14.829   5.186   7.621  0.00  0.00     0.174 HD
ATOM    132  H69 A02 d          15.137   6.167   6.162  0.00  0.00     0.174 HD
ATOM    133  H70 A02 d          16.503   7.438   9.798  0.00  0.00     0.174 HD
ATOM    134  H71 A02 d          15.624   5.891   9.667  0.00  0.00     0.174 HD
ATOM    135  H67 A02 d          16.912   8.658   8.059  0.00  0.00     0.177 HD
ENDBRANCH 124 127
ENDBRANCH 121 124
ENDBRANCH 118 121
ENDBRANCH 116 118
BRANCH 116 136
ATOM    136  C   A02 d          18.760  12.601   5.481  0.00  0.00     0.238 C 
ATOM    137  O   A02 d          18.588  13.322   6.466  0.00  0.00    -0.271 OA
ATOM    138  NAF A02 d          19.957  12.349   4.956  0.00  0.00    -0.368 N 
ATOM    139  H72 A02 d          20.775  12.767   5.352  0.00  0.00     0.159 HD
ATOM    140  H73 A02 d          20.039  11.742   4.165  0.00  0.00     0.159 HD
ENDBRANCH 116 136
ENDBRANCH 114 116
ENDBRANCH  92 112
ENDBRANCH  90  92
ENDBRANCH  85  88
ENDBRANCH  82  85
ENDBRANCH  79  82
ENDBRANCH  76  79
ENDBRANCH  73  76
ENDBRANCH   3  73
TORSDOF 36
ENDMDL
MODEL 7
REMARK VINA RESULT:      -4.4      3.155      7.979
REMARK WARNING: 32 MAX_TORS EXCEEDED!!!
REMARK  36 active torsions:
REMARK  status: ('A' for Active; 'I' for Inactive)
REMARK    1  A    between atoms: C6_6  and  N6_7 
REMARK    2  A    between atoms: CCN_19  and  N9_10 
REMARK    3  A    between atoms: CCK_16  and  OAN_12 
REMARK    4  A    between atoms: CCL_17  and  OAO_13 
REMARK    5  A    between atoms: CCC_15  and  CCM_18 
REMARK       I    between atoms: NBR_27  and  CCC_15 
REMARK    6  A    between atoms: CBZ_20  and  CBG_22 
REMARK       I    between atoms: NBS_28  and  CBZ_20 
REMARK    7  A    between atoms: CBG_22  and  CAX_23 
REMARK    8  A    between atoms: CAX_23  and  CAU_24 
REMARK    9  A    between atoms: CAU_24  and  CAW_25 
REMARK   10  A    between atoms: CAW_25  and  CBD_26 
REMARK   11  A    between atoms: CBD_26  and  NBR_27 
REMARK   12  A    between atoms: CCI_29  and  NBS_28 
REMARK   13  A    between atoms: CCB_30  and  CCI_29 
REMARK   14  A    between atoms: CCI_29  and  CBJ_32 
REMARK       I    between atoms: NBQ_44  and  CCB_30 
REMARK   15  A    between atoms: CBJ_32  and  CAZ_33 
REMARK   16  A    between atoms: CAZ_33  and  CAS_34 
REMARK   17  A    between atoms: CAS_34  and  CAR_35 
REMARK   18  A    between atoms: CAR_35  and  NAC_36 
REMARK   19  A    between atoms: CBH_39  and  CCA_37 
REMARK       I    between atoms: CCA_37  and  NBT_45 
REMARK   20  A    between atoms: CAY_40  and  CBH_39 
REMARK   21  A    between atoms: CAT_41  and  CAY_40 
REMARK   22  A    between atoms: CAV_42  and  CAT_41 
REMARK   23  A    between atoms: CBC_43  and  CAV_42 
REMARK   24  A    between atoms: CBC_43  and  NBQ_44 
REMARK   25  A    between atoms: NBT_45  and  CCJ_46 
REMARK   26  A    between atoms: CCJ_46  and  CBK_47 
REMARK   27  A    between atoms: CCJ_46  and  CCD_54 
REMARK   28  A    between atoms: CBK_47  and  CBB_48 
REMARK   29  A    between atoms: CBB_48  and  CBF_49 
REMARK   30  A    between atoms: CBF_49  and  NBP_50 
REMARK       I    between atoms: NBP_50  and  CBX_51 
REMARK       I    between atoms: CBX_51  and  NAB_52 
REMARK       I    between atoms: CBX_51  and  NAE_53 
REMARK       I    between atoms: CCD_54  and  N_56 
REMARK   31  A    between atoms: N_56  and  CA_57 
REMARK   32  A    between atoms: CA_57  and  CB_58 
REMARK   33  A    between atoms: CA_57  and  C_65 
REMARK   34  A    between atoms: CB_58  and  CG_59 
REMARK   35  A    between atoms: CG_59  and  CD_60 
REMARK   36  A    between atoms: CD_60  and  NE_61 
REMARK       I    between atoms: NE_61  and  CZ_62 
REMARK       I    between atoms: CZ_62  and  NH1_63 
REMARK       I    between atoms: C_65  and  NAF_67 
ROOT
ATOM      1  CCB A02 d           8.733  12.103   2.472  0.00  0.00     0.240 C 
ATOM      2  OAK A02 d           7.645  12.536   2.112  0.00  0.00    -0.271 OA
ATOM      3  NBQ A02 d           9.883  12.394   1.866  0.00  0.00    -0.359 N 
ATOM      4  H45 A02 d          10.728  11.990   2.217  0.00  0.00     0.162 HD
ENDROOT
BRANCH   1   5
ATOM      5  CCI A02 d           8.834  11.129   3.672  0.00  0.00     0.089 C 
ATOM      6  H23 A02 d           8.358  11.627   4.529  0.00  0.00     0.087 H 
BRANCH   5   7
ATOM      7  NBS A02 d          10.254  10.889   4.034  0.00  0.00    -0.348 N 
ATOM      8  CBZ A02 d          10.729  11.168   5.258  0.00  0.00     0.218 C 
ATOM      9  OAI A02 d          10.061  11.683   6.163  0.00  0.00    -0.274 OA
ATOM     10  H22 A02 d          10.874  10.510   3.347  0.00  0.00     0.163 HD
BRANCH   8  11
ATOM     11  CBG A02 d          12.224  10.851   5.467  0.00  0.00     0.009 C 
ATOM     12  H11 A02 d          12.702  11.705   5.968  0.00  0.00     0.047 H 
ATOM     13  H12 A02 d          12.694  10.692   4.486  0.00  0.00     0.047 H 
BRANCH  11  14
ATOM     14  CAX A02 d          12.428   9.590   6.329  0.00  0.00    -0.057 C 
ATOM     15  H13 A02 d          13.051   8.872   5.772  0.00  0.00     0.033 H 
ATOM     16  H14 A02 d          11.448   9.137   6.541  0.00  0.00     0.033 H 
BRANCH  14  17
ATOM     17  CAU A02 d          13.120   9.928   7.654  0.00  0.00    -0.063 C 
ATOM     18  H15 A02 d          12.861  10.960   7.932  0.00  0.00     0.033 H 
ATOM     19  H16 A02 d          14.208   9.848   7.514  0.00  0.00     0.033 H 
BRANCH  17  20
ATOM     20  CAW A02 d          12.706   8.996   8.797  0.00  0.00    -0.050 C 
ATOM     21  H17 A02 d          11.962   8.269   8.438  0.00  0.00     0.035 H 
ATOM     22  H18 A02 d          12.275   9.582   9.623  0.00  0.00     0.035 H 
BRANCH  20  23
ATOM     23  CBD A02 d          13.963   8.266   9.274  0.00  0.00    -0.005 C 
ATOM     24  H19 A02 d          14.270   8.689  10.242  0.00  0.00     0.064 H 
ATOM     25  H20 A02 d          14.762   8.421   8.536  0.00  0.00     0.064 H 
BRANCH  23  26
ATOM     26  NBR A02 d          13.749   6.817   9.440  0.00  0.00    -0.359 N 
ATOM     27  CCC A02 d          13.784   5.931   8.443  0.00  0.00     0.249 C 
ATOM     28  OAL A02 d          13.932   6.226   7.248  0.00  0.00    -0.271 OA
ATOM     29  H21 A02 d          13.567   6.475  10.361  0.00  0.00     0.162 HD
BRANCH  27  30
ATOM     30  CCM A02 d          13.628   4.451   8.838  0.00  0.00     0.144 C 
ATOM     31  OBV A02 d          13.885   3.562   7.700  0.00  0.00    -0.346 OA
ATOM     32  CCN A02 d          15.203   2.959   7.856  0.00  0.00     0.140 C 
ATOM     33  CCL A02 d          15.867   3.737   9.009  0.00  0.00     0.105 C 
ATOM     34  H10 A02 d          15.095   1.903   8.144  0.00  0.00     0.123 H 
ATOM     35  CCK A02 d          14.680   4.091   9.887  0.00  0.00     0.098 C 
ATOM     36  H8  A02 d          16.394   4.633   8.648  0.00  0.00     0.093 H 
ATOM     37  H7  A02 d          14.897   4.923  10.572  0.00  0.00     0.091 H 
ATOM     38  H9  A02 d          12.614   4.281   9.232  0.00  0.00     0.102 H 
BRANCH  32  39
ATOM     39  N9  A02 d          16.005   3.017   6.560  0.00  0.00    -0.294 N 
ATOM     40  C4  A02 d          16.835   3.990   6.197  0.00  0.00     0.167 A 
ATOM     41  N3  A02 d          17.208   5.141   6.778  0.00  0.00    -0.222 NA
ATOM     42  C5  A02 d          17.345   3.654   4.950  0.00  0.00     0.149 A 
ATOM     43  C2  A02 d          18.072   5.948   6.177  0.00  0.00     0.091 A 
ATOM     44  N1  A02 d          18.588   5.645   4.978  0.00  0.00    -0.222 NA
ATOM     45  H1  A02 d          18.367   6.871   6.664  0.00  0.00     0.146 H 
ATOM     46  C6  A02 d          18.241   4.515   4.340  0.00  0.00     0.155 A 
ATOM     47  N7  A02 d          16.823   2.484   4.586  0.00  0.00    -0.236 NA
ATOM     48  C8  A02 d          16.016   2.099   5.581  0.00  0.00     0.071 A 
ATOM     49  H4  A02 d          15.447   1.170   5.595  0.00  0.00     0.144 H 
BRANCH  46  50
ATOM     50  N6  A02 d          18.742   4.220   3.145  0.00  0.00    -0.382 N 
ATOM     51  H2  A02 d          19.755   4.074   3.034  0.00  0.00     0.157 HD
ATOM     52  H3  A02 d          18.117   4.139   2.331  0.00  0.00     0.157 HD
ENDBRANCH  46  50
ENDBRANCH  32  39
BRANCH  33  53
ATOM     53  OAO A02 d          16.758   2.895   9.727  0.00  0.00    -0.388 OA
ATOM     54  H6  A02 d          17.652   3.174   9.570  0.00  0.00     0.210 HD
ENDBRANCH  33  53
BRANCH  35  55
ATOM     55  OAN A02 d          14.246   2.925  10.613  0.00  0.00    -0.390 OA
ATOM     56  H5  A02 d          14.911   2.684  11.249  0.00  0.00     0.210 HD
ENDBRANCH  35  55
ENDBRANCH  27  30
ENDBRANCH  23  26
ENDBRANCH  20  23
ENDBRANCH  17  20
ENDBRANCH  14  17
ENDBRANCH  11  14
ENDBRANCH   8  11
ENDBRANCH   5   7
BRANCH   5  57
ATOM     57  CBJ A02 d           8.069   9.805   3.443  0.00  0.00    -0.038 C 
ATOM     58  H24 A02 d           7.455   9.920   2.538  0.00  0.00     0.036 H 
ATOM     59  H25 A02 d           7.415   9.637   4.312  0.00  0.00     0.036 H 
BRANCH  57  60
ATOM     60  CAZ A02 d           8.949   8.563   3.266  0.00  0.00    -0.061 C 
ATOM     61  H26 A02 d           8.710   7.833   4.053  0.00  0.00     0.033 H 
ATOM     62  H27 A02 d          10.007   8.854   3.343  0.00  0.00     0.033 H 
BRANCH  60  63
ATOM     63  CAS A02 d           8.696   7.924   1.884  0.00  0.00    -0.043 C 
ATOM     64  H28 A02 d           9.339   8.415   1.138  0.00  0.00     0.035 H 
ATOM     65  H29 A02 d           7.640   8.068   1.610  0.00  0.00     0.035 H 
BRANCH  63  66
ATOM     66  CAR A02 d           9.008   6.420   1.903  0.00  0.00     0.080 C 
ATOM     67  H30 A02 d          10.097   6.273   1.846  0.00  0.00     0.075 H 
ATOM     68  H31 A02 d           8.526   5.937   1.039  0.00  0.00     0.075 H 
BRANCH  66  69
ATOM     69  NAC A02 d           8.497   5.815   3.147  0.00  0.00    -0.079 N 
ATOM     70  H32 A02 d           8.835   4.868   3.222  0.00  0.00     0.274 HD
ATOM     71  H33 A02 d           7.489   5.813   3.130  0.00  0.00     0.274 HD
ATOM     72  H34 A02 d           8.819   6.352   3.937  0.00  0.00     0.274 HD
ENDBRANCH  66  69
ENDBRANCH  63  66
ENDBRANCH  60  63
ENDBRANCH  57  60
ENDBRANCH   5  57
ENDBRANCH   1   5
BRANCH   3  73
ATOM     73  CBC A02 d           9.958  13.295   0.694  0.00  0.00    -0.005 C 
ATOM     74  H43 A02 d          10.289  12.720  -0.184  0.00  0.00     0.064 H 
ATOM     75  H44 A02 d           8.962  13.719   0.499  0.00  0.00     0.064 H 
BRANCH  73  76
ATOM     76  CAV A02 d          10.949  14.435   0.953  0.00  0.00    -0.050 C 
ATOM     77  H41 A02 d          11.489  14.664   0.022  0.00  0.00     0.035 H 
ATOM     78  H42 A02 d          10.396  15.327   1.284  0.00  0.00     0.035 H 
BRANCH  76  79
ATOM     79  CAT A02 d          11.957  14.035   2.037  0.00  0.00    -0.063 C 
ATOM     80  H39 A02 d          11.498  14.189   3.024  0.00  0.00     0.033 H 
ATOM     81  H40 A02 d          12.210  12.971   1.912  0.00  0.00     0.033 H 
BRANCH  79  82
ATOM     82  CAY A02 d          13.244  14.863   1.953  0.00  0.00    -0.057 C 
ATOM     83  H37 A02 d          13.301  15.333   0.960  0.00  0.00     0.033 H 
ATOM     84  H38 A02 d          13.216  15.643   2.728  0.00  0.00     0.033 H 
BRANCH  82  85
ATOM     85  CBH A02 d          14.495  13.994   2.165  0.00  0.00     0.009 C 
ATOM     86  H35 A02 d          14.316  13.000   1.731  0.00  0.00     0.047 H 
ATOM     87  H36 A02 d          15.348  14.468   1.656  0.00  0.00     0.047 H 
BRANCH  85  88
ATOM     88  CCA A02 d          14.830  13.833   3.657  0.00  0.00     0.218 C 
ATOM     89  OAJ A02 d          13.933  13.755   4.502  0.00  0.00    -0.274 OA
ATOM     90  NBT A02 d          16.137  13.777   3.939  0.00  0.00    -0.348 N 
ATOM     91  H46 A02 d          16.790  13.839   3.184  0.00  0.00     0.163 HD
BRANCH  90  92
ATOM     92  CCJ A02 d          16.664  13.629   5.318  0.00  0.00     0.089 C 
ATOM     93  H47 A02 d          15.993  14.175   5.997  0.00  0.00     0.087 H 
BRANCH  92  94
ATOM     94  CBK A02 d          18.081  14.249   5.451  0.00  0.00    -0.036 C 
ATOM     95  H48 A02 d          18.821  13.466   5.230  0.00  0.00     0.036 H 
ATOM     96  H49 A02 d          18.210  14.593   6.487  0.00  0.00     0.036 H 
BRANCH  94  97
ATOM     97  CBB A02 d          18.346  15.440   4.513  0.00  0.00    -0.048 C 
ATOM     98  H50 A02 d          17.534  15.495   3.773  0.00  0.00     0.035 H 
ATOM     99  H51 A02 d          19.303  15.276   3.996  0.00  0.00     0.035 H 
BRANCH  97 100
ATOM    100  CBF A02 d          18.416  16.775   5.271  0.00  0.00     0.009 C 
ATOM    101  H52 A02 d          17.627  17.450   4.908  0.00  0.00     0.064 H 
ATOM    102  H53 A02 d          19.399  17.241   5.113  0.00  0.00     0.064 H 
BRANCH 100 103
ATOM    103  NBP A02 d          18.217  16.503   6.707  0.00  0.00    -0.227 N 
ATOM    104  CBX A02 d          18.566  17.347   7.687  0.00  0.00     0.665 C 
ATOM    105  NAB A02 d          19.120  18.534   7.442  0.00  0.00    -0.235 N 
ATOM    106  NAE A02 d          18.340  16.986   8.947  0.00  0.00    -0.235 N 
ATOM    107  H55 A02 d          19.375  19.155   8.225  0.00  0.00     0.174 HD
ATOM    108  H56 A02 d          19.294  18.831   6.472  0.00  0.00     0.174 HD
ATOM    109  H57 A02 d          17.912  16.071   9.151  0.00  0.00     0.174 HD
ATOM    110  H58 A02 d          18.592  17.620   9.718  0.00  0.00     0.174 HD
ATOM    111  H54 A02 d          17.782  15.608   6.974  0.00  0.00     0.177 HD
ENDBRANCH 100 103
ENDBRANCH  97 100
ENDBRANCH  94  97
ENDBRANCH  92  94
BRANCH  92 112
ATOM    112  CCD A02 d          16.664  12.140   5.741  0.00  0.00     0.241 C 
ATOM    113  OAM A02 d          16.208  11.791   6.830  0.00  0.00    -0.271 OA
ATOM    114  N   A02 d          17.189  11.293   4.853  0.00  0.00    -0.346 N 
ATOM    115  H59 A02 d          17.538  11.665   3.992  0.00  0.00     0.163 HD
BRANCH 114 116
ATOM    116  CA  A02 d          17.282   9.833   5.075  0.00  0.00     0.089 C 
ATOM    117  H60 A02 d          17.034   9.624   6.126  0.00  0.00     0.087 H 
BRANCH 116 118
ATOM    118  CB  A02 d          18.715   9.359   4.800  0.00  0.00    -0.036 C 
ATOM    119  H61 A02 d          18.678   8.409   4.248  0.00  0.00     0.036 H 
ATOM    120  H62 A02 d          19.231   9.205   5.760  0.00  0.00     0.036 H 
BRANCH 118 121
ATOM    121  CG  A02 d          19.495  10.384   3.975  0.00  0.00    -0.048 C 
ATOM    122  H63 A02 d          19.643  11.292   4.578  0.00  0.00     0.035 H 
ATOM    123  H64 A02 d          18.916  10.634   3.073  0.00  0.00     0.035 H 
BRANCH 121 124
ATOM    124  CD  A02 d          20.856   9.838   3.556  0.00  0.00     0.009 C 
ATOM    125  H65 A02 d          20.727   8.916   2.971  0.00  0.00     0.064 H 
ATOM    126  H66 A02 d          21.466   9.625   4.447  0.00  0.00     0.064 H 
BRANCH 124 127
ATOM    127  NE  A02 d          21.505  10.859   2.740  0.00  0.00    -0.227 N 
ATOM    128  CZ  A02 d          21.563  10.855   1.409  0.00  0.00     0.665 C 
ATOM    129  NH1 A02 d          20.985   9.916   0.660  0.00  0.00    -0.235 N 
ATOM    130  NH2 A02 d          22.214  11.857   0.834  0.00  0.00    -0.235 N 
ATOM    131  H68 A02 d          21.059   9.958  -0.366  0.00  0.00     0.174 HD
ATOM    132  H69 A02 d          20.466   9.147   1.108  0.00  0.00     0.174 HD
ATOM    133  H70 A02 d          22.659  12.582   1.413  0.00  0.00     0.174 HD
ATOM    134  H71 A02 d          22.273  11.910  -0.194  0.00  0.00     0.174 HD
ATOM    135  H67 A02 d          21.955  11.645   3.231  0.00  0.00     0.177 HD
ENDBRANCH 124 127
ENDBRANCH 121 124
ENDBRANCH 118 121
ENDBRANCH 116 118
BRANCH 116 136
ATOM    136  C   A02 d          16.291   9.059   4.176  0.00  0.00     0.238 C 
ATOM    137  O   A02 d          15.151   9.474   3.958  0.00  0.00    -0.271 OA
ATOM    138  NAF A02 d          16.777   7.937   3.648  0.00  0.00    -0.368 N 
ATOM    139  H72 A02 d          16.202   7.374   3.054  0.00  0.00     0.159 HD
ATOM    140  H73 A02 d          17.717   7.657   3.846  0.00  0.00     0.159 HD
ENDBRANCH 116 136
ENDBRANCH 114 116
ENDBRANCH  92 112
ENDBRANCH  90  92
ENDBRANCH  85  88
ENDBRANCH  82  85
ENDBRANCH  79  82
ENDBRANCH  76  79
ENDBRANCH  73  76
ENDBRANCH   3  73
TORSDOF 36
ENDMDL
MODEL 8
REMARK VINA RESULT:      -4.3      4.576      7.111
REMARK WARNING: 32 MAX_TORS EXCEEDED!!!
REMARK  36 active torsions:
REMARK  status: ('A' for Active; 'I' for Inactive)
REMARK    1  A    between atoms: C6_6  and  N6_7 
REMARK    2  A    between atoms: CCN_19  and  N9_10 
REMARK    3  A    between atoms: CCK_16  and  OAN_12 
REMARK    4  A    between atoms: CCL_17  and  OAO_13 
REMARK    5  A    between atoms: CCC_15  and  CCM_18 
REMARK       I    between atoms: NBR_27  and  CCC_15 
REMARK    6  A    between atoms: CBZ_20  and  CBG_22 
REMARK       I    between atoms: NBS_28  and  CBZ_20 
REMARK    7  A    between atoms: CBG_22  and  CAX_23 
REMARK    8  A    between atoms: CAX_23  and  CAU_24 
REMARK    9  A    between atoms: CAU_24  and  CAW_25 
REMARK   10  A    between atoms: CAW_25  and  CBD_26 
REMARK   11  A    between atoms: CBD_26  and  NBR_27 
REMARK   12  A    between atoms: CCI_29  and  NBS_28 
REMARK   13  A    between atoms: CCB_30  and  CCI_29 
REMARK   14  A    between atoms: CCI_29  and  CBJ_32 
REMARK       I    between atoms: NBQ_44  and  CCB_30 
REMARK   15  A    between atoms: CBJ_32  and  CAZ_33 
REMARK   16  A    between atoms: CAZ_33  and  CAS_34 
REMARK   17  A    between atoms: CAS_34  and  CAR_35 
REMARK   18  A    between atoms: CAR_35  and  NAC_36 
REMARK   19  A    between atoms: CBH_39  and  CCA_37 
REMARK       I    between atoms: CCA_37  and  NBT_45 
REMARK   20  A    between atoms: CAY_40  and  CBH_39 
REMARK   21  A    between atoms: CAT_41  and  CAY_40 
REMARK   22  A    between atoms: CAV_42  and  CAT_41 
REMARK   23  A    between atoms: CBC_43  and  CAV_42 
REMARK   24  A    between atoms: CBC_43  and  NBQ_44 
REMARK   25  A    between atoms: NBT_45  and  CCJ_46 
REMARK   26  A    between atoms: CCJ_46  and  CBK_47 
REMARK   27  A    between atoms: CCJ_46  and  CCD_54 
REMARK   28  A    between atoms: CBK_47  and  CBB_48 
REMARK   29  A    between atoms: CBB_48  and  CBF_49 
REMARK   30  A    between atoms: CBF_49  and  NBP_50 
REMARK       I    between atoms: NBP_50  and  CBX_51 
REMARK       I    between atoms: CBX_51  and  NAB_52 
REMARK       I    between atoms: CBX_51  and  NAE_53 
REMARK       I    between atoms: CCD_54  and  N_56 
REMARK   31  A    between atoms: N_56  and  CA_57 
REMARK   32  A    between atoms: CA_57  and  CB_58 
REMARK   33  A    between atoms: CA_57  and  C_65 
REMARK   34  A    between atoms: CB_58  and  CG_59 
REMARK   35  A    between atoms: CG_59  and  CD_60 
REMARK   36  A    between atoms: CD_60  and  NE_61 
REMARK       I    between atoms: NE_61  and  CZ_62 
REMARK       I    between atoms: CZ_62  and  NH1_63 
REMARK       I    between atoms: C_65  and  NAF_67 
ROOT
ATOM      1  CCB A02 d          17.631   4.437   6.842  0.00  0.00     0.240 C 
ATOM      2  OAK A02 d          18.283   3.835   5.998  0.00  0.00    -0.271 OA
ATOM      3  NBQ A02 d          18.170   5.225   7.771  0.00  0.00    -0.359 N 
ATOM      4  H45 A02 d          17.567   5.674   8.431  0.00  0.00     0.162 HD
ENDROOT
BRANCH   1   5
ATOM      5  CCI A02 d          16.091   4.285   6.902  0.00  0.00     0.089 C 
ATOM      6  H23 A02 d          15.837   3.373   6.342  0.00  0.00     0.087 H 
BRANCH   5   7
ATOM      7  NBS A02 d          15.425   5.422   6.216  0.00  0.00    -0.348 N 
ATOM      8  CBZ A02 d          15.412   6.657   6.743  0.00  0.00     0.218 C 
ATOM      9  OAI A02 d          15.896   6.949   7.843  0.00  0.00    -0.274 OA
ATOM     10  H22 A02 d          14.975   5.264   5.337  0.00  0.00     0.163 HD
BRANCH   8  11
ATOM     11  CBG A02 d          14.684   7.721   5.896  0.00  0.00     0.009 C 
ATOM     12  H11 A02 d          15.149   7.762   4.901  0.00  0.00     0.047 H 
ATOM     13  H12 A02 d          14.786   8.699   6.390  0.00  0.00     0.047 H 
BRANCH  11  14
ATOM     14  CAX A02 d          13.185   7.399   5.733  0.00  0.00    -0.057 C 
ATOM     15  H13 A02 d          12.661   7.651   6.668  0.00  0.00     0.033 H 
ATOM     16  H14 A02 d          13.070   6.324   5.526  0.00  0.00     0.033 H 
BRANCH  14  17
ATOM     17  CAU A02 d          12.567   8.199   4.582  0.00  0.00    -0.063 C 
ATOM     18  H15 A02 d          13.377   8.683   4.015  0.00  0.00     0.033 H 
ATOM     19  H16 A02 d          11.905   8.970   5.005  0.00  0.00     0.033 H 
BRANCH  17  20
ATOM     20  CAW A02 d          11.751   7.329   3.622  0.00  0.00    -0.050 C 
ATOM     21  H17 A02 d          12.187   6.320   3.568  0.00  0.00     0.035 H 
ATOM     22  H18 A02 d          11.746   7.780   2.618  0.00  0.00     0.035 H 
BRANCH  20  23
ATOM     23  CBD A02 d          10.324   7.253   4.169  0.00  0.00    -0.005 C 
ATOM     24  H19 A02 d          10.180   6.270   4.641  0.00  0.00     0.064 H 
ATOM     25  H20 A02 d           9.620   7.363   3.331  0.00  0.00     0.064 H 
BRANCH  23  26
ATOM     26  NBR A02 d          10.041   8.301   5.165  0.00  0.00    -0.359 N 
ATOM     27  CCC A02 d           8.966   8.321   5.953  0.00  0.00     0.249 C 
ATOM     28  OAL A02 d           8.041   7.498   5.898  0.00  0.00    -0.271 OA
ATOM     29  H21 A02 d          10.699   9.048   5.255  0.00  0.00     0.162 HD
BRANCH  27  30
ATOM     30  CCM A02 d           8.901   9.456   6.993  0.00  0.00     0.144 C 
ATOM     31  OBV A02 d           8.397   8.973   8.283  0.00  0.00    -0.346 OA
ATOM     32  CCN A02 d           9.513   8.845   9.212  0.00  0.00     0.140 C 
ATOM     33  CCL A02 d          10.778   9.006   8.346  0.00  0.00     0.105 C 
ATOM     34  H10 A02 d           9.473   9.657   9.953  0.00  0.00     0.123 H 
ATOM     35  CCK A02 d          10.313   9.971   7.270  0.00  0.00     0.098 C 
ATOM     36  H8  A02 d          11.108   8.046   7.922  0.00  0.00     0.093 H 
ATOM     37  H7  A02 d          10.956   9.948   6.378  0.00  0.00     0.091 H 
ATOM     38  H9  A02 d           8.260  10.266   6.613  0.00  0.00     0.102 H 
BRANCH  32  39
ATOM     39  N9  A02 d           9.471   7.518   9.963  0.00  0.00    -0.294 N 
ATOM     40  C4  A02 d          10.083   7.250  11.112  0.00  0.00     0.167 A 
ATOM     41  N3  A02 d          10.874   7.973  11.920  0.00  0.00    -0.222 NA
ATOM     42  C5  A02 d           9.793   5.931  11.436  0.00  0.00     0.149 A 
ATOM     43  C2  A02 d          11.364   7.442  13.033  0.00  0.00     0.091 A 
ATOM     44  N1  A02 d          11.093   6.175  13.376  0.00  0.00    -0.222 NA
ATOM     45  H1  A02 d          11.996   8.044  13.676  0.00  0.00     0.146 H 
ATOM     46  C6  A02 d          10.320   5.398  12.600  0.00  0.00     0.155 A 
ATOM     47  N7  A02 d           9.007   5.430  10.485  0.00  0.00    -0.236 NA
ATOM     48  C8  A02 d           8.807   6.410   9.597  0.00  0.00     0.071 A 
ATOM     49  H4  A02 d           8.192   6.321   8.703  0.00  0.00     0.144 H 
BRANCH  46  50
ATOM     50  N6  A02 d          10.061   4.138  12.933  0.00  0.00    -0.382 N 
ATOM     51  H2  A02 d           9.495   3.932  13.768  0.00  0.00     0.157 HD
ATOM     52  H3  A02 d          10.427   3.367  12.356  0.00  0.00     0.157 HD
ENDBRANCH  46  50
ENDBRANCH  32  39
BRANCH  33  53
ATOM     53  OAO A02 d          11.824   9.599   9.101  0.00  0.00    -0.388 OA
ATOM     54  H6  A02 d          12.026  10.455   8.742  0.00  0.00     0.210 HD
ENDBRANCH  33  53
BRANCH  35  55
ATOM     55  OAN A02 d          10.233  11.303   7.813  0.00  0.00    -0.390 OA
ATOM     56  H5  A02 d           9.899  11.262   8.702  0.00  0.00     0.210 HD
ENDBRANCH  35  55
ENDBRANCH  27  30
ENDBRANCH  23  26
ENDBRANCH  20  23
ENDBRANCH  17  20
ENDBRANCH  14  17
ENDBRANCH  11  14
ENDBRANCH   8  11
ENDBRANCH   5   7
BRANCH   5  57
ATOM     57  CBJ A02 d          15.557   4.090   8.339  0.00  0.00    -0.038 C 
ATOM     58  H24 A02 d          14.780   4.849   8.518  0.00  0.00     0.036 H 
ATOM     59  H25 A02 d          16.392   4.249   9.036  0.00  0.00     0.036 H 
BRANCH  57  60
ATOM     60  CAZ A02 d          14.951   2.714   8.632  0.00  0.00    -0.061 C 
ATOM     61  H26 A02 d          13.969   2.637   8.141  0.00  0.00     0.033 H 
ATOM     62  H27 A02 d          14.828   2.595   9.718  0.00  0.00     0.033 H 
BRANCH  60  63
ATOM     63  CAS A02 d          15.875   1.600   8.098  0.00  0.00    -0.043 C 
ATOM     64  H28 A02 d          16.134   0.921   8.924  0.00  0.00     0.035 H 
ATOM     65  H29 A02 d          16.792   2.056   7.696  0.00  0.00     0.035 H 
BRANCH  63  66
ATOM     66  CAR A02 d          15.188   0.794   6.985  0.00  0.00     0.080 C 
ATOM     67  H30 A02 d          14.148   1.138   6.875  0.00  0.00     0.075 H 
ATOM     68  H31 A02 d          15.196  -0.274   7.250  0.00  0.00     0.075 H 
BRANCH  66  69
ATOM     69  NAC A02 d          15.902   0.985   5.710  0.00  0.00    -0.079 N 
ATOM     70  H32 A02 d          16.151   0.086   5.326  0.00  0.00     0.274 HD
ATOM     71  H33 A02 d          16.739   1.524   5.871  0.00  0.00     0.274 HD
ATOM     72  H34 A02 d          15.307   1.475   5.061  0.00  0.00     0.274 HD
ENDBRANCH  66  69
ENDBRANCH  63  66
ENDBRANCH  60  63
ENDBRANCH  57  60
ENDBRANCH   5  57
ENDBRANCH   1   5
BRANCH   3  73
ATOM     73  CBC A02 d          19.629   5.463   7.863  0.00  0.00    -0.005 C 
ATOM     74  H43 A02 d          19.965   5.255   8.889  0.00  0.00     0.064 H 
ATOM     75  H44 A02 d          20.149   4.792   7.164  0.00  0.00     0.064 H 
BRANCH  73  76
ATOM     76  CAV A02 d          19.961   6.917   7.507  0.00  0.00    -0.050 C 
ATOM     77  H41 A02 d          19.063   7.538   7.649  0.00  0.00     0.035 H 
ATOM     78  H42 A02 d          20.763   7.276   8.169  0.00  0.00     0.035 H 
BRANCH  76  79
ATOM     79  CAT A02 d          20.423   7.022   6.049  0.00  0.00    -0.063 C 
ATOM     80  H39 A02 d          21.031   7.930   5.934  0.00  0.00     0.033 H 
ATOM     81  H40 A02 d          21.032   6.139   5.804  0.00  0.00     0.033 H 
BRANCH  79  82
ATOM     82  CAY A02 d          19.239   7.091   5.079  0.00  0.00    -0.057 C 
ATOM     83  H37 A02 d          19.609   6.936   4.054  0.00  0.00     0.033 H 
ATOM     84  H38 A02 d          18.523   6.297   5.335  0.00  0.00     0.033 H 
BRANCH  82  85
ATOM     85  CBH A02 d          18.524   8.450   5.150  0.00  0.00     0.009 C 
ATOM     86  H35 A02 d          17.813   8.435   5.989  0.00  0.00     0.047 H 
ATOM     87  H36 A02 d          19.272   9.239   5.318  0.00  0.00     0.047 H 
BRANCH  85  88
ATOM     88  CCA A02 d          17.756   8.758   3.853  0.00  0.00     0.218 C 
ATOM     89  OAJ A02 d          17.419   9.913   3.576  0.00  0.00    -0.274 OA
ATOM     90  NBT A02 d          17.509   7.694   3.079  0.00  0.00    -0.348 N 
ATOM     91  H46 A02 d          17.832   6.798   3.382  0.00  0.00     0.163 HD
BRANCH  90  92
ATOM     92  CCJ A02 d          16.778   7.782   1.790  0.00  0.00     0.089 C 
ATOM     93  H47 A02 d          17.091   8.707   1.285  0.00  0.00     0.087 H 
BRANCH  92  94
ATOM     94  CBK A02 d          15.245   7.860   2.014  0.00  0.00    -0.036 C 
ATOM     95  H48 A02 d          15.064   8.126   3.066  0.00  0.00     0.036 H 
ATOM     96  H49 A02 d          14.816   6.868   1.808  0.00  0.00     0.036 H 
BRANCH  94  97
ATOM     97  CBB A02 d          14.523   8.889   1.128  0.00  0.00    -0.048 C 
ATOM     98  H50 A02 d          15.186   9.165   0.295  0.00  0.00     0.035 H 
ATOM     99  H51 A02 d          14.300   9.781   1.731  0.00  0.00     0.035 H 
BRANCH  97 100
ATOM    100  CBF A02 d          13.207   8.341   0.552  0.00  0.00     0.009 C 
ATOM    101  H52 A02 d          12.722   9.112  -0.065  0.00  0.00     0.064 H 
ATOM    102  H53 A02 d          12.534   8.051   1.372  0.00  0.00     0.064 H 
BRANCH 100 103
ATOM    103  NBP A02 d          13.520   7.163  -0.278  0.00  0.00    -0.227 N 
ATOM    104  CBX A02 d          12.661   6.163  -0.518  0.00  0.00     0.665 C 
ATOM    105  NAB A02 d          11.421   6.155  -0.030  0.00  0.00    -0.235 N 
ATOM    106  NAE A02 d          13.063   5.150  -1.280  0.00  0.00    -0.235 N 
ATOM    107  H55 A02 d          10.791   5.367  -0.237  0.00  0.00     0.174 HD
ATOM    108  H56 A02 d          11.093   6.937   0.555  0.00  0.00     0.174 HD
ATOM    109  H57 A02 d          14.019   5.142  -1.664  0.00  0.00     0.174 HD
ATOM    110  H58 A02 d          12.419   4.373  -1.486  0.00  0.00     0.174 HD
ATOM    111  H54 A02 d          14.458   7.105  -0.700  0.00  0.00     0.177 HD
ENDBRANCH 100 103
ENDBRANCH  97 100
ENDBRANCH  94  97
ENDBRANCH  92  94
BRANCH  92 112
ATOM    112  CCD A02 d          17.149   6.590   0.875  0.00  0.00     0.241 C 
ATOM    113  OAM A02 d          17.633   5.559   1.343  0.00  0.00    -0.271 OA
ATOM    114  N   A02 d          16.912   6.772  -0.426  0.00  0.00    -0.346 N 
ATOM    115  H59 A02 d          16.517   7.644  -0.718  0.00  0.00     0.163 HD
BRANCH 114 116
ATOM    116  CA  A02 d          17.202   5.752  -1.458  0.00  0.00     0.089 C 
ATOM    117  H60 A02 d          17.033   4.756  -1.022  0.00  0.00     0.087 H 
BRANCH 116 118
ATOM    118  CB  A02 d          18.669   5.859  -1.893  0.00  0.00    -0.036 C 
ATOM    119  H61 A02 d          19.291   6.054  -1.007  0.00  0.00     0.036 H 
ATOM    120  H62 A02 d          18.772   6.693  -2.603  0.00  0.00     0.036 H 
BRANCH 118 121
ATOM    121  CG  A02 d          19.149   4.571  -2.564  0.00  0.00    -0.048 C 
ATOM    122  H63 A02 d          20.128   4.755  -3.032  0.00  0.00     0.035 H 
ATOM    123  H64 A02 d          18.424   4.277  -3.337  0.00  0.00     0.035 H 
BRANCH 121 124
ATOM    124  CD  A02 d          19.287   3.437  -1.554  0.00  0.00     0.009 C 
ATOM    125  H65 A02 d          19.136   2.469  -2.053  0.00  0.00     0.064 H 
ATOM    126  H66 A02 d          18.543   3.557  -0.752  0.00  0.00     0.064 H 
BRANCH 124 127
ATOM    127  NE  A02 d          20.635   3.507  -0.998  0.00  0.00    -0.227 N 
ATOM    128  CZ  A02 d          20.928   3.791   0.270  0.00  0.00     0.665 C 
ATOM    129  NH1 A02 d          19.997   4.009   1.199  0.00  0.00    -0.235 N 
ATOM    130  NH2 A02 d          22.213   3.831   0.594  0.00  0.00    -0.235 N 
ATOM    131  H68 A02 d          20.276   4.226   2.166  0.00  0.00     0.174 HD
ATOM    132  H69 A02 d          18.999   3.962   0.949  0.00  0.00     0.174 HD
ATOM    133  H70 A02 d          22.931   3.662  -0.125  0.00  0.00     0.174 HD
ATOM    134  H71 A02 d          22.494   4.030   1.565  0.00  0.00     0.174 HD
ATOM    135  H67 A02 d          21.422   3.322  -1.636  0.00  0.00     0.177 HD
ENDBRANCH 124 127
ENDBRANCH 121 124
ENDBRANCH 118 121
ENDBRANCH 116 118
BRANCH 116 136
ATOM    136  C   A02 d          16.277   5.911  -2.687  0.00  0.00     0.238 C 
ATOM    137  O   A02 d          15.559   4.990  -3.082  0.00  0.00    -0.271 OA
ATOM    138  NAF A02 d          16.308   7.114  -3.256  0.00  0.00    -0.368 N 
ATOM    139  H72 A02 d          15.740   7.303  -4.057  0.00  0.00     0.159 HD
ATOM    140  H73 A02 d          16.899   7.829  -2.882  0.00  0.00     0.159 HD
ENDBRANCH 116 136
ENDBRANCH 114 116
ENDBRANCH  92 112
ENDBRANCH  90  92
ENDBRANCH  85  88
ENDBRANCH  82  85
ENDBRANCH  79  82
ENDBRANCH  76  79
ENDBRANCH  73  76
ENDBRANCH   3  73
TORSDOF 36
ENDMDL
MODEL 9
REMARK VINA RESULT:      -3.9      2.951      9.457
REMARK WARNING: 32 MAX_TORS EXCEEDED!!!
REMARK  36 active torsions:
REMARK  status: ('A' for Active; 'I' for Inactive)
REMARK    1  A    between atoms: C6_6  and  N6_7 
REMARK    2  A    between atoms: CCN_19  and  N9_10 
REMARK    3  A    between atoms: CCK_16  and  OAN_12 
REMARK    4  A    between atoms: CCL_17  and  OAO_13 
REMARK    5  A    between atoms: CCC_15  and  CCM_18 
REMARK       I    between atoms: NBR_27  and  CCC_15 
REMARK    6  A    between atoms: CBZ_20  and  CBG_22 
REMARK       I    between atoms: NBS_28  and  CBZ_20 
REMARK    7  A    between atoms: CBG_22  and  CAX_23 
REMARK    8  A    between atoms: CAX_23  and  CAU_24 
REMARK    9  A    between atoms: CAU_24  and  CAW_25 
REMARK   10  A    between atoms: CAW_25  and  CBD_26 
REMARK   11  A    between atoms: CBD_26  and  NBR_27 
REMARK   12  A    between atoms: CCI_29  and  NBS_28 
REMARK   13  A    between atoms: CCB_30  and  CCI_29 
REMARK   14  A    between atoms: CCI_29  and  CBJ_32 
REMARK       I    between atoms: NBQ_44  and  CCB_30 
REMARK   15  A    between atoms: CBJ_32  and  CAZ_33 
REMARK   16  A    between atoms: CAZ_33  and  CAS_34 
REMARK   17  A    between atoms: CAS_34  and  CAR_35 
REMARK   18  A    between atoms: CAR_35  and  NAC_36 
REMARK   19  A    between atoms: CBH_39  and  CCA_37 
REMARK       I    between atoms: CCA_37  and  NBT_45 
REMARK   20  A    between atoms: CAY_40  and  CBH_39 
REMARK   21  A    between atoms: CAT_41  and  CAY_40 
REMARK   22  A    between atoms: CAV_42  and  CAT_41 
REMARK   23  A    between atoms: CBC_43  and  CAV_42 
REMARK   24  A    between atoms: CBC_43  and  NBQ_44 
REMARK   25  A    between atoms: NBT_45  and  CCJ_46 
REMARK   26  A    between atoms: CCJ_46  and  CBK_47 
REMARK   27  A    between atoms: CCJ_46  and  CCD_54 
REMARK   28  A    between atoms: CBK_47  and  CBB_48 
REMARK   29  A    between atoms: CBB_48  and  CBF_49 
REMARK   30  A    between atoms: CBF_49  and  NBP_50 
REMARK       I    between atoms: NBP_50  and  CBX_51 
REMARK       I    between atoms: CBX_51  and  NAB_52 
REMARK       I    between atoms: CBX_51  and  NAE_53 
REMARK       I    between atoms: CCD_54  and  N_56 
REMARK   31  A    between atoms: N_56  and  CA_57 
REMARK   32  A    between atoms: CA_57  and  CB_58 
REMARK   33  A    between atoms: CA_57  and  C_65 
REMARK   34  A    between atoms: CB_58  and  CG_59 
REMARK   35  A    between atoms: CG_59  and  CD_60 
REMARK   36  A    between atoms: CD_60  and  NE_61 
REMARK       I    between atoms: NE_61  and  CZ_62 
REMARK       I    between atoms: CZ_62  and  NH1_63 
REMARK       I    between atoms: C_65  and  NAF_67 
ROOT
ATOM      1  CCB A02 d          16.715   7.934   8.766  0.00  0.00     0.240 C 
ATOM      2  OAK A02 d          16.954   8.883   9.503  0.00  0.00    -0.271 OA
ATOM      3  NBQ A02 d          17.657   7.184   8.197  0.00  0.00    -0.359 N 
ATOM      4  H45 A02 d          17.378   6.433   7.599  0.00  0.00     0.162 HD
ENDROOT
BRANCH   1   5
ATOM      5  CCI A02 d          15.255   7.561   8.414  0.00  0.00     0.089 C 
ATOM      6  H23 A02 d          15.299   6.694   7.739  0.00  0.00     0.087 H 
BRANCH   5   7
ATOM      7  NBS A02 d          14.597   8.665   7.669  0.00  0.00    -0.348 N 
ATOM      8  CBZ A02 d          13.880   9.612   8.295  0.00  0.00     0.218 C 
ATOM      9  OAI A02 d          13.664   9.631   9.513  0.00  0.00    -0.274 OA
ATOM     10  H22 A02 d          14.690   8.704   6.675  0.00  0.00     0.163 HD
BRANCH   8  11
ATOM     11  CBG A02 d          13.273  10.689   7.373  0.00  0.00     0.009 C 
ATOM     12  H11 A02 d          13.346  11.667   7.870  0.00  0.00     0.047 H 
ATOM     13  H12 A02 d          12.215  10.447   7.193  0.00  0.00     0.047 H 
BRANCH  11  14
ATOM     14  CAX A02 d          14.004  10.763   6.018  0.00  0.00    -0.057 C 
ATOM     15  H13 A02 d          13.692   9.911   5.395  0.00  0.00     0.033 H 
ATOM     16  H14 A02 d          15.089  10.712   6.192  0.00  0.00     0.033 H 
BRANCH  14  17
ATOM     17  CAU A02 d          13.678  12.067   5.281  0.00  0.00    -0.063 C 
ATOM     18  H15 A02 d          13.353  11.821   4.259  0.00  0.00     0.033 H 
ATOM     19  H16 A02 d          14.588  12.683   5.238  0.00  0.00     0.033 H 
BRANCH  17  20
ATOM     20  CAW A02 d          12.571  12.876   5.963  0.00  0.00    -0.050 C 
ATOM     21  H17 A02 d          12.161  12.310   6.812  0.00  0.00     0.035 H 
ATOM     22  H18 A02 d          11.767  13.093   5.244  0.00  0.00     0.035 H 
BRANCH  20  23
ATOM     23  CBD A02 d          13.195  14.182   6.459  0.00  0.00    -0.005 C 
ATOM     24  H19 A02 d          13.880  13.953   7.288  0.00  0.00     0.064 H 
ATOM     25  H20 A02 d          12.391  14.841   6.819  0.00  0.00     0.064 H 
BRANCH  23  26
ATOM     26  NBR A02 d          13.947  14.888   5.407  0.00  0.00    -0.359 N 
ATOM     27  CCC A02 d          13.386  15.563   4.403  0.00  0.00     0.249 C 
ATOM     28  OAL A02 d          12.166  15.624   4.194  0.00  0.00    -0.271 OA
ATOM     29  H21 A02 d          14.946  14.858   5.448  0.00  0.00     0.162 HD
BRANCH  27  30
ATOM     30  CCM A02 d          14.348  16.308   3.458  0.00  0.00     0.144 C 
ATOM     31  OBV A02 d          15.749  16.070   3.822  0.00  0.00    -0.346 OA
ATOM     32  CCN A02 d          16.332  15.125   2.878  0.00  0.00     0.140 C 
ATOM     33  CCL A02 d          15.139  14.572   2.074  0.00  0.00     0.105 C 
ATOM     34  H10 A02 d          17.016  15.655   2.199  0.00  0.00     0.123 H 
ATOM     35  CCK A02 d          14.194  15.760   2.040  0.00  0.00     0.098 C 
ATOM     36  H8  A02 d          14.685  13.698   2.564  0.00  0.00     0.093 H 
ATOM     37  H7  A02 d          13.159  15.467   1.809  0.00  0.00     0.091 H 
ATOM     38  H9  A02 d          14.126  17.386   3.484  0.00  0.00     0.102 H 
BRANCH  32  39
ATOM     39  N9  A02 d          17.125  14.034   3.591  0.00  0.00    -0.294 N 
ATOM     40  C4  A02 d          18.449  13.921   3.617  0.00  0.00     0.167 A 
ATOM     41  N3  A02 d          19.442  14.643   3.076  0.00  0.00    -0.222 NA
ATOM     42  C5  A02 d          18.751  12.790   4.364  0.00  0.00     0.149 A 
ATOM     43  C2  A02 d          20.708  14.293   3.264  0.00  0.00     0.091 A 
ATOM     44  N1  A02 d          21.030  13.212   3.987  0.00  0.00    -0.222 NA
ATOM     45  H1  A02 d          21.497  14.893   2.824  0.00  0.00     0.146 H 
ATOM     46  C6  A02 d          20.080  12.442   4.542  0.00  0.00     0.155 A 
ATOM     47  N7  A02 d          17.610  12.246   4.781  0.00  0.00    -0.236 NA
ATOM     48  C8  A02 d          16.624  13.020   4.314  0.00  0.00     0.071 A 
ATOM     49  H4  A02 d          15.563  12.851   4.494  0.00  0.00     0.144 H 
BRANCH  46  50
ATOM     50  N6  A02 d          20.398  11.362   5.249  0.00  0.00    -0.382 N 
ATOM     51  H2  A02 d          20.670  11.456   6.237  0.00  0.00     0.157 HD
ATOM     52  H3  A02 d          20.372  10.432   4.808  0.00  0.00     0.157 HD
ENDBRANCH  46  50
ENDBRANCH  32  39
BRANCH  33  53
ATOM     53  OAO A02 d          15.542  14.244   0.753  0.00  0.00    -0.388 OA
ATOM     54  H6  A02 d          15.560  15.033   0.223  0.00  0.00     0.210 HD
ENDBRANCH  33  53
BRANCH  35  55
ATOM     55  OAN A02 d          14.675  16.739   1.098  0.00  0.00    -0.390 OA
ATOM     56  H5  A02 d          15.034  16.295   0.338  0.00  0.00     0.210 HD
ENDBRANCH  35  55
ENDBRANCH  27  30
ENDBRANCH  23  26
ENDBRANCH  20  23
ENDBRANCH  17  20
ENDBRANCH  14  17
ENDBRANCH  11  14
ENDBRANCH   8  11
ENDBRANCH   5   7
BRANCH   5  57
ATOM     57  CBJ A02 d          14.426   7.126   9.644  0.00  0.00    -0.038 C 
ATOM     58  H24 A02 d          13.372   7.059   9.338  0.00  0.00     0.036 H 
ATOM     59  H25 A02 d          14.534   7.901  10.417  0.00  0.00     0.036 H 
BRANCH  57  60
ATOM     60  CAZ A02 d          14.827   5.783  10.262  0.00  0.00    -0.061 C 
ATOM     61  H26 A02 d          14.266   5.631  11.196  0.00  0.00     0.033 H 
ATOM     62  H27 A02 d          15.905   5.790  10.479  0.00  0.00     0.033 H 
BRANCH  60  63
ATOM     63  CAS A02 d          14.511   4.631   9.285  0.00  0.00    -0.043 C 
ATOM     64  H28 A02 d          15.257   4.632   8.476  0.00  0.00     0.035 H 
ATOM     65  H29 A02 d          13.508   4.786   8.860  0.00  0.00     0.035 H 
BRANCH  63  66
ATOM     66  CAR A02 d          14.547   3.271   9.999  0.00  0.00     0.080 C 
ATOM     67  H30 A02 d          15.566   3.081  10.368  0.00  0.00     0.075 H 
ATOM     68  H31 A02 d          14.260   2.480   9.291  0.00  0.00     0.075 H 
BRANCH  66  69
ATOM     69  NAC A02 d          13.608   3.274  11.135  0.00  0.00    -0.079 N 
ATOM     70  H32 A02 d          12.677   3.468  10.801  0.00  0.00     0.274 HD
ATOM     71  H33 A02 d          13.883   3.984  11.797  0.00  0.00     0.274 HD
ATOM     72  H34 A02 d          13.623   2.372  11.586  0.00  0.00     0.274 HD
ENDBRANCH  66  69
ENDBRANCH  63  66
ENDBRANCH  60  63
ENDBRANCH  57  60
ENDBRANCH   5  57
ENDBRANCH   1   5
BRANCH   3  73
ATOM     73  CBC A02 d          19.102   7.421   8.417  0.00  0.00    -0.005 C 
ATOM     74  H43 A02 d          19.254   8.461   8.742  0.00  0.00     0.064 H 
ATOM     75  H44 A02 d          19.467   6.736   9.197  0.00  0.00     0.064 H 
BRANCH  73  76
ATOM     76  CAV A02 d          19.890   7.177   7.125  0.00  0.00    -0.050 C 
ATOM     77  H41 A02 d          19.901   8.101   6.528  0.00  0.00     0.035 H 
ATOM     78  H42 A02 d          20.922   6.892   7.379  0.00  0.00     0.035 H 
BRANCH  76  79
ATOM     79  CAT A02 d          19.244   6.054   6.305  0.00  0.00    -0.063 C 
ATOM     80  H39 A02 d          19.970   5.237   6.186  0.00  0.00     0.033 H 
ATOM     81  H40 A02 d          18.359   5.683   6.844  0.00  0.00     0.033 H 
BRANCH  79  82
ATOM     82  CAY A02 d          18.811   6.537   4.917  0.00  0.00    -0.057 C 
ATOM     83  H37 A02 d          18.652   7.626   4.953  0.00  0.00     0.033 H 
ATOM     84  H38 A02 d          19.607   6.306   4.195  0.00  0.00     0.033 H 
BRANCH  82  85
ATOM     85  CBH A02 d          17.509   5.859   4.458  0.00  0.00     0.009 C 
ATOM     86  H35 A02 d          17.625   5.537   3.413  0.00  0.00     0.047 H 
ATOM     87  H36 A02 d          17.322   4.980   5.093  0.00  0.00     0.047 H 
BRANCH  85  88
ATOM     88  CCA A02 d          16.306   6.811   4.556  0.00  0.00     0.218 C 
ATOM     89  OAJ A02 d          16.346   7.809   5.283  0.00  0.00    -0.274 OA
ATOM     90  NBT A02 d          15.255   6.473   3.799  0.00  0.00    -0.348 N 
ATOM     91  H46 A02 d          15.321   5.651   3.233  0.00  0.00     0.163 HD
BRANCH  90  92
ATOM     92  CCJ A02 d          13.998   7.260   3.758  0.00  0.00     0.089 C 
ATOM     93  H47 A02 d          14.264   8.326   3.785  0.00  0.00     0.087 H 
BRANCH  92  94
ATOM     94  CBK A02 d          13.105   6.962   4.992  0.00  0.00    -0.036 C 
ATOM     95  H48 A02 d          13.739   6.988   5.890  0.00  0.00     0.036 H 
ATOM     96  H49 A02 d          12.678   5.956   4.873  0.00  0.00     0.036 H 
BRANCH  94  97
ATOM     97  CBB A02 d          11.947   7.955   5.194  0.00  0.00    -0.048 C 
ATOM     98  H50 A02 d          11.726   8.441   4.232  0.00  0.00     0.035 H 
ATOM     99  H51 A02 d          12.256   8.715   5.927  0.00  0.00     0.035 H 
BRANCH  97 100
ATOM    100  CBF A02 d          10.671   7.266   5.704  0.00  0.00     0.009 C 
ATOM    101  H52 A02 d          10.563   6.281   5.226  0.00  0.00     0.064 H 
ATOM    102  H53 A02 d           9.794   7.886   5.468  0.00  0.00     0.064 H 
BRANCH 100 103
ATOM    103  NBP A02 d          10.787   7.101   7.166  0.00  0.00    -0.227 N 
ATOM    104  CBX A02 d          10.950   5.921   7.778  0.00  0.00     0.665 C 
ATOM    105  NAB A02 d          11.037   4.774   7.105  0.00  0.00    -0.235 N 
ATOM    106  NAE A02 d          11.036   5.901   9.105  0.00  0.00    -0.235 N 
ATOM    107  H55 A02 d          11.162   3.887   7.613  0.00  0.00     0.174 HD
ATOM    108  H56 A02 d          10.980   4.775   6.077  0.00  0.00     0.174 HD
ATOM    109  H57 A02 d          10.970   6.780   9.638  0.00  0.00     0.174 HD
ATOM    110  H58 A02 d          11.169   5.007   9.599  0.00  0.00     0.174 HD
ATOM    111  H54 A02 d          10.740   7.947   7.752  0.00  0.00     0.177 HD
ENDBRANCH 100 103
ENDBRANCH  97 100
ENDBRANCH  94  97
ENDBRANCH  92  94
BRANCH  92 112
ATOM    112  CCD A02 d          13.234   6.992   2.438  0.00  0.00     0.241 C 
ATOM    113  OAM A02 d          12.866   5.856   2.138  0.00  0.00    -0.271 OA
ATOM    114  N   A02 d          13.020   8.065   1.674  0.00  0.00    -0.346 N 
ATOM    115  H59 A02 d          13.355   8.951   1.996  0.00  0.00     0.163 HD
BRANCH 114 116
ATOM    116  CA  A02 d          12.311   8.013   0.376  0.00  0.00     0.089 C 
ATOM    117  H60 A02 d          12.438   7.008  -0.051  0.00  0.00     0.087 H 
BRANCH 116 118
ATOM    118  CB  A02 d          12.922   9.040  -0.587  0.00  0.00    -0.036 C 
ATOM    119  H61 A02 d          12.113   9.639  -1.030  0.00  0.00     0.036 H 
ATOM    120  H62 A02 d          13.461   8.506  -1.384  0.00  0.00     0.036 H 
BRANCH 118 121
ATOM    121  CG  A02 d          13.896   9.973   0.134  0.00  0.00    -0.048 C 
ATOM    122  H63 A02 d          14.920   9.751  -0.202  0.00  0.00     0.035 H 
ATOM    123  H64 A02 d          13.821   9.803   1.218  0.00  0.00     0.035 H 
BRANCH 121 124
ATOM    124  CD  A02 d          13.582  11.436  -0.162  0.00  0.00     0.009 C 
ATOM    125  H65 A02 d          12.856  11.506  -0.984  0.00  0.00     0.064 H 
ATOM    126  H66 A02 d          14.504  11.969  -0.440  0.00  0.00     0.064 H 
BRANCH 124 127
ATOM    127  NE  A02 d          13.018  12.017   1.053  0.00  0.00    -0.227 N 
ATOM    128  CZ  A02 d          11.947  12.808   1.099  0.00  0.00     0.665 C 
ATOM    129  NH1 A02 d          11.235  13.130   0.019  0.00  0.00    -0.235 N 
ATOM    130  NH2 A02 d          11.587  13.262   2.292  0.00  0.00    -0.235 N 
ATOM    131  H68 A02 d          10.414  13.746   0.108  0.00  0.00     0.174 HD
ATOM    132  H69 A02 d          11.507  12.763  -0.905  0.00  0.00     0.174 HD
ATOM    133  H70 A02 d          12.138  13.012   3.125  0.00  0.00     0.174 HD
ATOM    134  H71 A02 d          10.756  13.864   2.385  0.00  0.00     0.174 HD
ATOM    135  H67 A02 d          13.484  11.798   1.945  0.00  0.00     0.177 HD
ENDBRANCH 124 127
ENDBRANCH 121 124
ENDBRANCH 118 121
ENDBRANCH 116 118
BRANCH 116 136
ATOM    136  C   A02 d          10.799   8.286   0.544  0.00  0.00     0.238 C 
ATOM    137  O   A02 d           9.989   7.371   0.709  0.00  0.00    -0.271 OA
ATOM    138  NAF A02 d          10.458   9.573   0.519  0.00  0.00    -0.368 N 
ATOM    139  H72 A02 d           9.499   9.838   0.621  0.00  0.00     0.159 HD
ATOM    140  H73 A02 d          11.161  10.274   0.398  0.00  0.00     0.159 HD
ENDBRANCH 116 136
ENDBRANCH 114 116
ENDBRANCH  92 112
ENDBRANCH  90  92
ENDBRANCH  85  88
ENDBRANCH  82  85
ENDBRANCH  79  82
ENDBRANCH  76  79
ENDBRANCH  73  76
ENDBRANCH   3  73
TORSDOF 36
ENDMDL
MODEL 10
REMARK VINA RESULT:      -3.9      4.736     11.515
REMARK WARNING: 32 MAX_TORS EXCEEDED!!!
REMARK  36 active torsions:
REMARK  status: ('A' for Active; 'I' for Inactive)
REMARK    1  A    between atoms: C6_6  and  N6_7 
REMARK    2  A    between atoms: CCN_19  and  N9_10 
REMARK    3  A    between atoms: CCK_16  and  OAN_12 
REMARK    4  A    between atoms: CCL_17  and  OAO_13 
REMARK    5  A    between atoms: CCC_15  and  CCM_18 
REMARK       I    between atoms: NBR_27  and  CCC_15 
REMARK    6  A    between atoms: CBZ_20  and  CBG_22 
REMARK       I    between atoms: NBS_28  and  CBZ_20 
REMARK    7  A    between atoms: CBG_22  and  CAX_23 
REMARK    8  A    between atoms: CAX_23  and  CAU_24 
REMARK    9  A    between atoms: CAU_24  and  CAW_25 
REMARK   10  A    between atoms: CAW_25  and  CBD_26 
REMARK   11  A    between atoms: CBD_26  and  NBR_27 
REMARK   12  A    between atoms: CCI_29  and  NBS_28 
REMARK   13  A    between atoms: CCB_30  and  CCI_29 
REMARK   14  A    between atoms: CCI_29  and  CBJ_32 
REMARK       I    between atoms: NBQ_44  and  CCB_30 
REMARK   15  A    between atoms: CBJ_32  and  CAZ_33 
REMARK   16  A    between atoms: CAZ_33  and  CAS_34 
REMARK   17  A    between atoms: CAS_34  and  CAR_35 
REMARK   18  A    between atoms: CAR_35  and  NAC_36 
REMARK   19  A    between atoms: CBH_39  and  CCA_37 
REMARK       I    between atoms: CCA_37  and  NBT_45 
REMARK   20  A    between atoms: CAY_40  and  CBH_39 
REMARK   21  A    between atoms: CAT_41  and  CAY_40 
REMARK   22  A    between atoms: CAV_42  and  CAT_41 
REMARK   23  A    between atoms: CBC_43  and  CAV_42 
REMARK   24  A    between atoms: CBC_43  and  NBQ_44 
REMARK   25  A    between atoms: NBT_45  and  CCJ_46 
REMARK   26  A    between atoms: CCJ_46  and  CBK_47 
REMARK   27  A    between atoms: CCJ_46  and  CCD_54 
REMARK   28  A    between atoms: CBK_47  and  CBB_48 
REMARK   29  A    between atoms: CBB_48  and  CBF_49 
REMARK   30  A    between atoms: CBF_49  and  NBP_50 
REMARK       I    between atoms: NBP_50  and  CBX_51 
REMARK       I    between atoms: CBX_51  and  NAB_52 
REMARK       I    between atoms: CBX_51  and  NAE_53 
REMARK       I    between atoms: CCD_54  and  N_56 
REMARK   31  A    between atoms: N_56  and  CA_57 
REMARK   32  A    between atoms: CA_57  and  CB_58 
REMARK   33  A    between atoms: CA_57  and  C_65 
REMARK   34  A    between atoms: CB_58  and  CG_59 
REMARK   35  A    between atoms: CG_59  and  CD_60 
REMARK   36  A    between atoms: CD_60  and  NE_61 
REMARK       I    between atoms: NE_61  and  CZ_62 
REMARK       I    between atoms: CZ_62  and  NH1_63 
REMARK       I    between atoms: C_65  and  NAF_67 
ROOT
ATOM      1  CCB A02 d           8.783  10.911   0.945  0.00  0.00     0.240 C 
ATOM      2  OAK A02 d           7.727  10.449   0.531  0.00  0.00    -0.271 OA
ATOM      3  NBQ A02 d           9.966  10.325   0.770  0.00  0.00    -0.359 N 
ATOM      4  H45 A02 d          10.782  10.763   1.150  0.00  0.00     0.162 HD
ENDROOT
BRANCH   1   5
ATOM      5  CCI A02 d           8.800  12.231   1.753  0.00  0.00     0.089 C 
ATOM      6  H23 A02 d           7.803  12.685   1.648  0.00  0.00     0.087 H 
BRANCH   5   7
ATOM      7  NBS A02 d           9.781  13.186   1.177  0.00  0.00    -0.348 N 
ATOM      8  CBZ A02 d           9.617  14.515   1.275  0.00  0.00     0.218 C 
ATOM      9  OAI A02 d           8.636  15.058   1.796  0.00  0.00    -0.274 OA
ATOM     10  H22 A02 d          10.586  12.829   0.703  0.00  0.00     0.163 HD
BRANCH   8  11
ATOM     11  CBG A02 d          10.734  15.360   0.628  0.00  0.00     0.009 C 
ATOM     12  H11 A02 d          10.807  16.320   1.160  0.00  0.00     0.047 H 
ATOM     13  H12 A02 d          10.477  15.543  -0.426  0.00  0.00     0.047 H 
BRANCH  11  14
ATOM     14  CAX A02 d          12.101  14.651   0.691  0.00  0.00    -0.057 C 
ATOM     15  H13 A02 d          12.804  15.167   0.020  0.00  0.00     0.033 H 
ATOM     16  H14 A02 d          11.979  13.607   0.363  0.00  0.00     0.033 H 
BRANCH  14  17
ATOM     17  CAU A02 d          12.669  14.664   2.115  0.00  0.00    -0.063 C 
ATOM     18  H15 A02 d          13.711  14.314   2.081  0.00  0.00     0.033 H 
ATOM     19  H16 A02 d          12.073  13.979   2.737  0.00  0.00     0.033 H 
BRANCH  17  20
ATOM     20  CAW A02 d          12.640  16.055   2.755  0.00  0.00    -0.050 C 
ATOM     21  H17 A02 d          11.603  16.343   2.981  0.00  0.00     0.035 H 
ATOM     22  H18 A02 d          13.084  16.792   2.070  0.00  0.00     0.035 H 
BRANCH  20  23
ATOM     23  CBD A02 d          13.456  15.984   4.048  0.00  0.00    -0.005 C 
ATOM     24  H19 A02 d          12.772  15.786   4.886  0.00  0.00     0.064 H 
ATOM     25  H20 A02 d          13.955  16.951   4.202  0.00  0.00     0.064 H 
BRANCH  23  26
ATOM     26  NBR A02 d          14.481  14.925   4.015  0.00  0.00    -0.359 N 
ATOM     27  CCC A02 d          14.580  13.945   4.914  0.00  0.00     0.249 C 
ATOM     28  OAL A02 d          13.868  13.844   5.923  0.00  0.00    -0.271 OA
ATOM     29  H21 A02 d          15.145  14.943   3.269  0.00  0.00     0.162 HD
BRANCH  27  30
ATOM     30  CCM A02 d          15.665  12.883   4.650  0.00  0.00     0.144 C 
ATOM     31  OBV A02 d          16.656  13.358   3.679  0.00  0.00    -0.346 OA
ATOM     32  CCN A02 d          17.877  13.725   4.385  0.00  0.00     0.140 C 
ATOM     33  CCL A02 d          17.495  13.718   5.878  0.00  0.00     0.105 C 
ATOM     34  H10 A02 d          18.652  12.966   4.203  0.00  0.00     0.123 H 
ATOM     35  CCK A02 d          16.445  12.623   5.939  0.00  0.00     0.098 C 
ATOM     36  H8  A02 d          17.096  14.690   6.203  0.00  0.00     0.093 H 
ATOM     37  H7  A02 d          15.815  12.694   6.837  0.00  0.00     0.091 H 
ATOM     38  H9  A02 d          15.192  11.957   4.290  0.00  0.00     0.102 H 
BRANCH  32  39
ATOM     39  N9  A02 d          18.415  15.072   3.915  0.00  0.00    -0.294 N 
ATOM     40  C4  A02 d          19.190  15.278   2.855  0.00  0.00     0.167 A 
ATOM     41  N3  A02 d          19.719  14.459   1.933  0.00  0.00    -0.222 NA
ATOM     42  C5  A02 d          19.456  16.640   2.796  0.00  0.00     0.149 A 
ATOM     43  C2  A02 d          20.479  14.943   0.959  0.00  0.00     0.091 A 
ATOM     44  N1  A02 d          20.744  16.254   0.872  0.00  0.00    -0.222 NA
ATOM     45  H1  A02 d          20.893  14.266   0.220  0.00  0.00     0.146 H 
ATOM     46  C6  A02 d          20.255  17.121   1.773  0.00  0.00     0.155 A 
ATOM     47  N7  A02 d          18.833  17.232   3.813  0.00  0.00    -0.236 NA
ATOM     48  C8  A02 d          18.191  16.269   4.483  0.00  0.00     0.071 A 
ATOM     49  H4  A02 d          17.574  16.431   5.365  0.00  0.00     0.144 H 
BRANCH  46  50
ATOM     50  N6  A02 d          20.529  18.419   1.695  0.00  0.00    -0.382 N 
ATOM     51  H2  A02 d          20.237  19.053   2.452  0.00  0.00     0.157 HD
ATOM     52  H3  A02 d          21.032  18.791   0.877  0.00  0.00     0.157 HD
ENDBRANCH  46  50
ENDBRANCH  32  39
BRANCH  33  53
ATOM     53  OAO A02 d          18.613  13.352   6.673  0.00  0.00    -0.388 OA
ATOM     54  H6  A02 d          18.907  12.483   6.424  0.00  0.00     0.210 HD
ENDBRANCH  33  53
BRANCH  35  55
ATOM     55  OAN A02 d          17.081  11.333   5.856  0.00  0.00    -0.390 OA
ATOM     56  H5  A02 d          16.516  10.733   5.382  0.00  0.00     0.210 HD
ENDBRANCH  35  55
ENDBRANCH  27  30
ENDBRANCH  23  26
ENDBRANCH  20  23
ENDBRANCH  17  20
ENDBRANCH  14  17
ENDBRANCH  11  14
ENDBRANCH   8  11
ENDBRANCH   5   7
BRANCH   5  57
ATOM     57  CBJ A02 d           9.033  12.013   3.266  0.00  0.00    -0.038 C 
ATOM     58  H24 A02 d           8.638  11.021   3.530  0.00  0.00     0.036 H 
ATOM     59  H25 A02 d           8.473  12.787   3.811  0.00  0.00     0.036 H 
BRANCH  57  60
ATOM     60  CAZ A02 d          10.495  12.078   3.719  0.00  0.00    -0.061 C 
ATOM     61  H26 A02 d          11.086  12.617   2.964  0.00  0.00     0.033 H 
ATOM     62  H27 A02 d          10.886  11.056   3.830  0.00  0.00     0.033 H 
BRANCH  60  63
ATOM     63  CAS A02 d          10.602  12.814   5.071  0.00  0.00    -0.043 C 
ATOM     64  H28 A02 d          11.639  12.751   5.433  0.00  0.00     0.035 H 
ATOM     65  H29 A02 d           9.929  12.331   5.796  0.00  0.00     0.035 H 
BRANCH  63  66
ATOM     66  CAR A02 d          10.209  14.292   4.931  0.00  0.00     0.080 C 
ATOM     67  H30 A02 d           9.816  14.470   3.918  0.00  0.00     0.075 H 
ATOM     68  H31 A02 d          11.096  14.922   5.096  0.00  0.00     0.075 H 
BRANCH  66  69
ATOM     69  NAC A02 d           9.175  14.636   5.924  0.00  0.00    -0.079 N 
ATOM     70  H32 A02 d           9.574  15.232   6.632  0.00  0.00     0.274 HD
ATOM     71  H33 A02 d           8.827  13.792   6.352  0.00  0.00     0.274 HD
ATOM     72  H34 A02 d           8.416  15.117   5.466  0.00  0.00     0.274 HD
ENDBRANCH  66  69
ENDBRANCH  63  66
ENDBRANCH  60  63
ENDBRANCH  57  60
ENDBRANCH   5  57
ENDBRANCH   1   5
BRANCH   3  73
ATOM     73  CBC A02 d          10.121   9.049   0.035  0.00  0.00    -0.005 C 
ATOM     74  H43 A02 d           9.228   8.426   0.199  0.00  0.00     0.064 H 
ATOM     75  H44 A02 d          10.227   9.260  -1.039  0.00  0.00     0.064 H 
BRANCH  73  76
ATOM     76  CAV A02 d          11.360   8.292   0.525  0.00  0.00    -0.050 C 
ATOM     77  H41 A02 d          11.054   7.535   1.262  0.00  0.00     0.035 H 
ATOM     78  H42 A02 d          11.843   7.797  -0.330  0.00  0.00     0.035 H 
BRANCH  76  79
ATOM     79  CAT A02 d          12.357   9.258   1.177  0.00  0.00    -0.063 C 
ATOM     80  H39 A02 d          13.171   9.461   0.468  0.00  0.00     0.033 H 
ATOM     81  H40 A02 d          11.836  10.197   1.418  0.00  0.00     0.033 H 
BRANCH  79  82
ATOM     82  CAY A02 d          12.953   8.679   2.464  0.00  0.00    -0.057 C 
ATOM     83  H37 A02 d          12.590   9.265   3.321  0.00  0.00     0.033 H 
ATOM     84  H38 A02 d          12.626   7.634   2.569  0.00  0.00     0.033 H 
BRANCH  82  85
ATOM     85  CBH A02 d          14.491   8.721   2.448  0.00  0.00     0.009 C 
ATOM     86  H35 A02 d          14.821   9.351   1.610  0.00  0.00     0.047 H 
ATOM     87  H36 A02 d          14.845   9.155   3.395  0.00  0.00     0.047 H 
BRANCH  85  88
ATOM     88  CCA A02 d          15.096   7.317   2.285  0.00  0.00     0.218 C 
ATOM     89  OAJ A02 d          14.786   6.601   1.328  0.00  0.00    -0.274 OA
ATOM     90  NBT A02 d          15.967   6.964   3.238  0.00  0.00    -0.348 N 
ATOM     91  H46 A02 d          16.164   7.617   3.970  0.00  0.00     0.163 HD
BRANCH  90  92
ATOM     92  CCJ A02 d          16.655   5.649   3.262  0.00  0.00     0.089 C 
ATOM     93  H47 A02 d          16.002   4.916   2.768  0.00  0.00     0.087 H 
BRANCH  92  94
ATOM     94  CBK A02 d          16.897   5.164   4.717  0.00  0.00    -0.036 C 
ATOM     95  H48 A02 d          17.586   4.307   4.683  0.00  0.00     0.036 H 
ATOM     96  H49 A02 d          15.933   4.844   5.138  0.00  0.00     0.036 H 
BRANCH  94  97
ATOM     97  CBB A02 d          17.500   6.228   5.651  0.00  0.00    -0.048 C 
ATOM     98  H50 A02 d          16.755   7.022   5.809  0.00  0.00     0.035 H 
ATOM     99  H51 A02 d          18.394   6.654   5.172  0.00  0.00     0.035 H 
BRANCH  97 100
ATOM    100  CBF A02 d          17.899   5.646   7.016  0.00  0.00     0.009 C 
ATOM    101  H52 A02 d          18.995   5.639   7.110  0.00  0.00     0.064 H 
ATOM    102  H53 A02 d          17.517   4.619   7.109  0.00  0.00     0.064 H 
BRANCH 100 103
ATOM    103  NBP A02 d          17.313   6.494   8.071  0.00  0.00    -0.227 N 
ATOM    104  CBX A02 d          17.999   7.417   8.760  0.00  0.00     0.665 C 
ATOM    105  NAB A02 d          19.289   7.661   8.537  0.00  0.00    -0.235 N 
ATOM    106  NAE A02 d          17.359   8.117   9.692  0.00  0.00    -0.235 N 
ATOM    107  H55 A02 d          19.780   8.379   9.089  0.00  0.00     0.174 HD
ATOM    108  H56 A02 d          19.795   7.132   7.813  0.00  0.00     0.174 HD
ATOM    109  H57 A02 d          16.360   7.939   9.876  0.00  0.00     0.174 HD
ATOM    110  H58 A02 d          17.861   8.837  10.231  0.00  0.00     0.174 HD
ATOM    111  H54 A02 d          16.315   6.370   8.291  0.00  0.00     0.177 HD
ENDBRANCH 100 103
ENDBRANCH  97 100
ENDBRANCH  94  97
ENDBRANCH  92  94
BRANCH  92 112
ATOM    112  CCD A02 d          17.982   5.718   2.468  0.00  0.00     0.241 C 
ATOM    113  OAM A02 d          18.355   4.772   1.774  0.00  0.00    -0.271 OA
ATOM    114  N   A02 d          18.670   6.854   2.602  0.00  0.00    -0.346 N 
ATOM    115  H59 A02 d          18.293   7.571   3.189  0.00  0.00     0.163 HD
BRANCH 114 116
ATOM    116  CA  A02 d          19.962   7.109   1.926  0.00  0.00     0.089 C 
ATOM    117  H60 A02 d          20.470   6.146   1.770  0.00  0.00     0.087 H 
BRANCH 116 118
ATOM    118  CB  A02 d          20.844   7.996   2.814  0.00  0.00    -0.036 C 
ATOM    119  H61 A02 d          20.224   8.794   3.250  0.00  0.00     0.036 H 
ATOM    120  H62 A02 d          21.637   8.444   2.197  0.00  0.00     0.036 H 
BRANCH 118 121
ATOM    121  CG  A02 d          21.487   7.192   3.945  0.00  0.00    -0.048 C 
ATOM    122  H63 A02 d          22.563   7.421   3.980  0.00  0.00     0.035 H 
ATOM    123  H64 A02 d          21.348   6.119   3.747  0.00  0.00     0.035 H 
BRANCH 121 124
ATOM    124  CD  A02 d          20.863   7.534   5.294  0.00  0.00     0.009 C 
ATOM    125  H65 A02 d          21.641   7.570   6.070  0.00  0.00     0.064 H 
ATOM    126  H66 A02 d          20.111   6.776   5.562  0.00  0.00     0.064 H 
BRANCH 124 127
ATOM    127  NE  A02 d          20.228   8.842   5.163  0.00  0.00    -0.227 N 
ATOM    128  CZ  A02 d          20.661   9.966   5.732  0.00  0.00     0.665 C 
ATOM    129  NH1 A02 d          21.771  10.025   6.468  0.00  0.00    -0.235 N 
ATOM    130  NH2 A02 d          19.944  11.061   5.519  0.00  0.00    -0.235 N 
ATOM    131  H68 A02 d          22.063  10.919   6.887  0.00  0.00     0.174 HD
ATOM    132  H69 A02 d          22.335   9.176   6.618  0.00  0.00     0.174 HD
ATOM    133  H70 A02 d          19.087  11.013   4.950  0.00  0.00     0.174 HD
ATOM    134  H71 A02 d          20.245  11.959   5.923  0.00  0.00     0.174 HD
ATOM    135  H67 A02 d          19.377   8.901   4.585  0.00  0.00     0.177 HD
ENDBRANCH 124 127
ENDBRANCH 121 124
ENDBRANCH 118 121
ENDBRANCH 116 118
BRANCH 116 136
ATOM    136  C   A02 d          19.758   7.782   0.549  0.00  0.00     0.238 C 
ATOM    137  O   A02 d          19.245   8.897   0.441  0.00  0.00    -0.271 OA
ATOM    138  NAF A02 d          20.199   7.073  -0.488  0.00  0.00    -0.368 N 
ATOM    139  H72 A02 d          20.106   7.435  -1.416  0.00  0.00     0.159 HD
ATOM    140  H73 A02 d          20.623   6.179  -0.340  0.00  0.00     0.159 HD
ENDBRANCH 116 136
ENDBRANCH 114 116
ENDBRANCH  92 112
ENDBRANCH  90  92
ENDBRANCH  85  88
ENDBRANCH  82  85
ENDBRANCH  79  82
ENDBRANCH  76  79
ENDBRANCH  73  76
ENDBRANCH   3  73
TORSDOF 36
ENDMDL
