MODEL 1
REMARK VINA RESULT:      -4.9      0.000      0.000
REMARK  7 active torsions:
REMARK  status: ('A' for Active; 'I' for Inactive)
REMARK    1  A    between atoms: C1_1  and  O2_2 
REMARK    2  A    between atoms: O2_2  and  C12_16 
REMARK    3  A    between atoms: C4_7  and  C7_10 
REMARK    4  A    between atoms: C7_10  and  C8_12 
REMARK    5  A    between atoms: C8_12  and  C9_13 
REMARK    6  A    between atoms: C9_13  and  C10_14 
REMARK    7  A    between atoms: C12_16  and  C13_17 
ROOT
ATOM      1  C1  EAA d           7.888   3.626  26.103  0.00  0.00     0.092 A 
ATOM      2  C2  EAA d           8.183   2.666  27.091  0.00  0.00     0.090 A 
ATOM      3 CL1  EAA d           9.824   2.181  27.271  0.00  0.00    -0.080 Cl
ATOM      4  C3  EAA d           7.208   2.170  27.893  0.00  0.00     0.072 A 
ATOM      5 CL2  EAA d           7.610   0.969  29.087  0.00  0.00    -0.081 Cl
ATOM      6  C4  EAA d           5.875   2.564  27.754  0.00  0.00     0.038 A 
ATOM      7  C5  EAA d           5.589   3.506  26.761  0.00  0.00    -0.065 A 
ATOM      8  C6  EAA d           6.568   4.015  25.952  0.00  0.00    -0.048 A 
ATOM      9  H1  EAA d           4.567   3.842  26.630  0.00  0.00     0.085 H 
ATOM     10  H2  EAA d           6.307   4.733  25.183  0.00  0.00     0.087 H 
ENDROOT
BRANCH   6  11
ATOM     11  C7  EAA d           4.810   2.132  28.715  0.00  0.00     0.189 C 
ATOM     12  O1  EAA d           4.089   1.203  28.448  0.00  0.00    -0.287 OA
BRANCH  11  13
ATOM     13  C8  EAA d           4.649   2.820  30.022  0.00  0.00    -0.017 C 
ATOM     14  C11 EAA d           4.243   4.058  30.038  0.00  0.00    -0.112 C 
ATOM     15  H8  EAA d           4.073   4.587  29.102  0.00  0.00     0.067 H 
ATOM     16  H9  EAA d           4.073   4.563  30.988  0.00  0.00     0.067 H 
BRANCH  13  17
ATOM     17  C9  EAA d           4.915   1.998  31.229  0.00  0.00    -0.041 C 
ATOM     18  H3  EAA d           5.469   1.107  30.899  0.00  0.00     0.039 H 
ATOM     19  H4  EAA d           3.939   1.694  31.635  0.00  0.00     0.039 H 
BRANCH  17  20
ATOM     20  C10 EAA d           5.668   2.590  32.325  0.00  0.00    -0.073 C 
ATOM     21  H5  EAA d           5.776   1.855  33.135  0.00  0.00     0.028 H 
ATOM     22  H6  EAA d           5.133   3.475  32.701  0.00  0.00     0.028 H 
ATOM     23  H7  EAA d           6.664   2.888  31.966  0.00  0.00     0.028 H 
ENDBRANCH  17  20
ENDBRANCH  13  17
ENDBRANCH  11  13
ENDBRANCH   6  11
BRANCH   1  24
ATOM     24  O2  EAA d           8.931   4.066  25.353  0.00  0.00    -0.339 OA
BRANCH  24  25
ATOM     25  C12 EAA d           8.683   5.077  24.402  0.00  0.00     0.106 C 
ATOM     26  H10 EAA d           8.356   5.991  24.918  0.00  0.00     0.091 H 
ATOM     27  H11 EAA d           7.894   4.743  23.712  0.00  0.00     0.091 H 
BRANCH  25  28
ATOM     28  C13 EAA d           9.920   5.360  23.634  0.00  0.00     0.198 C 
ATOM     29  O   EAA d           9.878   6.392  22.906  0.00  0.00    -0.646 OA
ATOM     30  OXT EAA d          10.942   4.626  23.742  0.00  0.00    -0.646 OA
ENDBRANCH  25  28
ENDBRANCH  24  25
ENDBRANCH   1  24
TORSDOF 7
ENDMDL
