MODEL 1
REMARK VINA RESULT:      -6.0      0.000      0.000
REMARK  7 active torsions:
REMARK  status: ('A' for Active; 'I' for Inactive)
REMARK    1  A    between atoms: C1_1  and  O2_2 
REMARK    2  A    between atoms: O2_2  and  C12_16 
REMARK    3  A    between atoms: C4_7  and  C7_10 
REMARK    4  A    between atoms: C7_10  and  C8_12 
REMARK    5  A    between atoms: C8_12  and  C9_13 
REMARK    6  A    between atoms: C9_13  and  C10_14 
REMARK    7  A    between atoms: C12_16  and  C13_17 
ROOT
ATOM      1  C1  EAA d           8.956   2.214  27.470  0.00  0.00     0.092 A 
ATOM      2  C2  EAA d           8.203   3.357  27.799  0.00  0.00     0.090 A 
ATOM      3 CL1  EAA d           8.593   4.830  26.999  0.00  0.00    -0.080 Cl
ATOM      4  C3  EAA d           7.184   3.287  28.691  0.00  0.00     0.072 A 
ATOM      5 CL2  EAA d           6.291   4.728  29.087  0.00  0.00    -0.081 Cl
ATOM      6  C4  EAA d           6.860   2.093  29.340  0.00  0.00     0.038 A 
ATOM      7  C5  EAA d           7.622   0.966  29.018  0.00  0.00    -0.065 A 
ATOM      8  C6  EAA d           8.648   1.028  28.115  0.00  0.00    -0.048 A 
ATOM      9  H1  EAA d           7.394   0.020  29.495  0.00  0.00     0.085 H 
ATOM     10  H2  EAA d           9.227   0.137  27.902  0.00  0.00     0.087 H 
ENDROOT
BRANCH   6  11
ATOM     11  C7  EAA d           5.656   1.964  30.222  0.00  0.00     0.189 C 
ATOM     12  O1  EAA d           4.568   1.765  29.742  0.00  0.00    -0.287 OA
BRANCH  11  13
ATOM     13  C8  EAA d           5.791   2.048  31.699  0.00  0.00    -0.017 C 
ATOM     14  C11 EAA d           6.062   0.966  32.371  0.00  0.00    -0.112 C 
ATOM     15  H8  EAA d           6.139   0.010  31.856  0.00  0.00     0.067 H 
ATOM     16  H9  EAA d           6.212   1.018  33.449  0.00  0.00     0.067 H 
BRANCH  13  17
ATOM     17  C9  EAA d           5.661   3.404  32.290  0.00  0.00    -0.041 C 
ATOM     18  H3  EAA d           6.418   4.041  31.809  0.00  0.00     0.039 H 
ATOM     19  H4  EAA d           5.886   3.313  33.363  0.00  0.00     0.039 H 
BRANCH  17  20
ATOM     20  C10 EAA d           4.385   4.095  32.178  0.00  0.00    -0.073 C 
ATOM     21  H5  EAA d           4.180   4.639  33.111  0.00  0.00     0.028 H 
ATOM     22  H6  EAA d           3.585   3.362  31.997  0.00  0.00     0.028 H 
ATOM     23  H7  EAA d           4.426   4.807  31.340  0.00  0.00     0.028 H 
ENDBRANCH  17  20
ENDBRANCH  13  17
ENDBRANCH  11  13
ENDBRANCH   6  11
BRANCH   1  24
ATOM     24  O2  EAA d           9.953   2.383  26.563  0.00  0.00    -0.339 OA
BRANCH  24  25
ATOM     25  C12 EAA d          10.165   1.362  25.614  0.00  0.00     0.106 C 
ATOM     26  H10 EAA d           9.384   0.595  25.722  0.00  0.00     0.091 H 
ATOM     27  H11 EAA d          11.152   0.907  25.782  0.00  0.00     0.091 H 
BRANCH  25  28
ATOM     28  C13 EAA d          10.111   1.929  24.244  0.00  0.00     0.198 C 
ATOM     29  O   EAA d          10.129   1.080  23.309  0.00  0.00    -0.646 OA
ATOM     30  OXT EAA d          10.020   3.174  24.052  0.00  0.00    -0.646 OA
ENDBRANCH  25  28
ENDBRANCH  24  25
ENDBRANCH   1  24
TORSDOF 7
ENDMDL
MODEL 2
REMARK VINA RESULT:      -5.4      1.822      2.259
REMARK  7 active torsions:
REMARK  status: ('A' for Active; 'I' for Inactive)
REMARK    1  A    between atoms: C1_1  and  O2_2 
REMARK    2  A    between atoms: O2_2  and  C12_16 
REMARK    3  A    between atoms: C4_7  and  C7_10 
REMARK    4  A    between atoms: C7_10  and  C8_12 
REMARK    5  A    between atoms: C8_12  and  C9_13 
REMARK    6  A    between atoms: C9_13  and  C10_14 
REMARK    7  A    between atoms: C12_16  and  C13_17 
ROOT
ATOM      1  C1  EAA d           8.221   2.780  26.659  0.00  0.00     0.092 A 
ATOM      2  C2  EAA d           6.919   3.295  26.814  0.00  0.00     0.090 A 
ATOM      3 CL1  EAA d           6.354   4.410  25.632  0.00  0.00    -0.080 Cl
ATOM      4  C3  EAA d           6.131   2.897  27.844  0.00  0.00     0.072 A 
ATOM      5 CL2  EAA d           4.537   3.575  28.013  0.00  0.00    -0.081 Cl
ATOM      6  C4  EAA d           6.584   1.989  28.804  0.00  0.00     0.038 A 
ATOM      7  C5  EAA d           7.882   1.493  28.650  0.00  0.00    -0.065 A 
ATOM      8  C6  EAA d           8.681   1.886  27.611  0.00  0.00    -0.048 A 
ATOM      9  H1  EAA d           8.264   0.780  29.371  0.00  0.00     0.085 H 
ATOM     10  H2  EAA d           9.687   1.492  27.532  0.00  0.00     0.087 H 
ENDROOT
BRANCH   6  11
ATOM     11  C7  EAA d           5.684   1.435  29.867  0.00  0.00     0.189 C 
ATOM     12  O1  EAA d           4.802   0.665  29.577  0.00  0.00    -0.287 OA
BRANCH  11  13
ATOM     13  C8  EAA d           5.887   1.801  31.292  0.00  0.00    -0.017 C 
ATOM     14  C11 EAA d           6.191   0.867  32.147  0.00  0.00    -0.112 C 
ATOM     15  H8  EAA d           6.247  -0.171  31.822  0.00  0.00     0.067 H 
ATOM     16  H9  EAA d           6.391   1.124  33.186  0.00  0.00     0.067 H 
BRANCH  13  17
ATOM     17  C9  EAA d           5.781   3.246  31.616  0.00  0.00    -0.041 C 
ATOM     18  H3  EAA d           5.024   3.674  30.942  0.00  0.00     0.039 H 
ATOM     19  H4  EAA d           6.761   3.699  31.402  0.00  0.00     0.039 H 
BRANCH  17  20
ATOM     20  C10 EAA d           5.417   3.633  32.971  0.00  0.00    -0.073 C 
ATOM     21  H5  EAA d           4.418   3.239  33.209  0.00  0.00     0.028 H 
ATOM     22  H6  EAA d           5.406   4.730  33.048  0.00  0.00     0.028 H 
ATOM     23  H7  EAA d           6.151   3.223  33.679  0.00  0.00     0.028 H 
ENDBRANCH  17  20
ENDBRANCH  13  17
ENDBRANCH  11  13
ENDBRANCH   6  11
BRANCH   1  24
ATOM     24  O2  EAA d           8.932   3.235  25.596  0.00  0.00    -0.339 OA
BRANCH  24  25
ATOM     25  C12 EAA d          10.155   3.890  25.847  0.00  0.00     0.106 C 
ATOM     26  H10 EAA d          10.758   3.902  24.928  0.00  0.00     0.091 H 
ATOM     27  H11 EAA d          10.700   3.353  26.637  0.00  0.00     0.091 H 
BRANCH  25  28
ATOM     28  C13 EAA d           9.899   5.284  26.286  0.00  0.00     0.198 C 
ATOM     29  O   EAA d           9.329   6.021  25.434  0.00  0.00    -0.646 OA
ATOM     30  OXT EAA d          10.207   5.673  27.448  0.00  0.00    -0.646 OA
ENDBRANCH  25  28
ENDBRANCH  24  25
ENDBRANCH   1  24
TORSDOF 7
ENDMDL
MODEL 3
REMARK VINA RESULT:      -5.3      2.057      6.673
REMARK  7 active torsions:
REMARK  status: ('A' for Active; 'I' for Inactive)
REMARK    1  A    between atoms: C1_1  and  O2_2 
REMARK    2  A    between atoms: O2_2  and  C12_16 
REMARK    3  A    between atoms: C4_7  and  C7_10 
REMARK    4  A    between atoms: C7_10  and  C8_12 
REMARK    5  A    between atoms: C8_12  and  C9_13 
REMARK    6  A    between atoms: C9_13  and  C10_14 
REMARK    7  A    between atoms: C12_16  and  C13_17 
ROOT
ATOM      1  C1  EAA d           6.940   1.769  28.408  0.00  0.00     0.092 A 
ATOM      2  C2  EAA d           6.388   2.648  27.456  0.00  0.00     0.090 A 
ATOM      3 CL1  EAA d           4.680   2.857  27.456  0.00  0.00    -0.080 Cl
ATOM      4  C3  EAA d           7.183   3.329  26.594  0.00  0.00     0.072 A 
ATOM      5 CL2  EAA d           6.459   4.389  25.417  0.00  0.00    -0.081 Cl
ATOM      6  C4  EAA d           8.570   3.167  26.593  0.00  0.00     0.038 A 
ATOM      7  C5  EAA d           9.109   2.282  27.533  0.00  0.00    -0.065 A 
ATOM      8  C6  EAA d           8.314   1.596  28.409  0.00  0.00    -0.048 A 
ATOM      9  H1  EAA d          10.182   2.137  27.568  0.00  0.00     0.085 H 
ATOM     10  H2  EAA d           8.765   0.906  29.113  0.00  0.00     0.087 H 
ENDROOT
BRANCH   6  11
ATOM     11  C7  EAA d           9.473   4.010  25.745  0.00  0.00     0.189 C 
ATOM     12  O1  EAA d           9.839   5.091  26.133  0.00  0.00    -0.287 OA
BRANCH  11  13
ATOM     13  C8  EAA d           9.953   3.512  24.430  0.00  0.00    -0.017 C 
ATOM     14  C11 EAA d          10.206   4.370  23.484  0.00  0.00    -0.112 C 
ATOM     15  H8  EAA d          10.019   5.431  23.646  0.00  0.00     0.067 H 
ATOM     16  H9  EAA d          10.605   4.028  22.530  0.00  0.00     0.067 H 
BRANCH  13  17
ATOM     17  C9  EAA d          10.166   2.046  24.326  0.00  0.00    -0.041 C 
ATOM     18  H3  EAA d           9.350   1.560  24.880  0.00  0.00     0.039 H 
ATOM     19  H4  EAA d          11.126   1.823  24.814  0.00  0.00     0.039 H 
BRANCH  17  20
ATOM     20  C10 EAA d          10.207   1.439  23.004  0.00  0.00    -0.073 C 
ATOM     21  H5  EAA d          10.234   0.345  23.104  0.00  0.00     0.028 H 
ATOM     22  H6  EAA d          11.107   1.781  22.471  0.00  0.00     0.028 H 
ATOM     23  H7  EAA d           9.312   1.734  22.437  0.00  0.00     0.028 H 
ENDBRANCH  17  20
ENDBRANCH  13  17
ENDBRANCH  11  13
ENDBRANCH   6  11
BRANCH   1  24
ATOM     24  O2  EAA d           6.064   1.136  29.231  0.00  0.00    -0.339 OA
BRANCH  24  25
ATOM     25  C12 EAA d           6.343   1.125  30.613  0.00  0.00     0.106 C 
ATOM     26  H10 EAA d           7.431   1.104  30.766  0.00  0.00     0.091 H 
ATOM     27  H11 EAA d           5.891   0.232  31.069  0.00  0.00     0.091 H 
BRANCH  25  28
ATOM     28  C13 EAA d           5.780   2.341  31.250  0.00  0.00     0.198 C 
ATOM     29  O   EAA d           4.862   2.132  32.092  0.00  0.00    -0.646 OA
ATOM     30  OXT EAA d           6.227   3.491  30.979  0.00  0.00    -0.646 OA
ENDBRANCH  25  28
ENDBRANCH  24  25
ENDBRANCH   1  24
TORSDOF 7
ENDMDL
MODEL 4
REMARK VINA RESULT:      -5.2      2.073      2.637
REMARK  7 active torsions:
REMARK  status: ('A' for Active; 'I' for Inactive)
REMARK    1  A    between atoms: C1_1  and  O2_2 
REMARK    2  A    between atoms: O2_2  and  C12_16 
REMARK    3  A    between atoms: C4_7  and  C7_10 
REMARK    4  A    between atoms: C7_10  and  C8_12 
REMARK    5  A    between atoms: C8_12  and  C9_13 
REMARK    6  A    between atoms: C9_13  and  C10_14 
REMARK    7  A    between atoms: C12_16  and  C13_17 
ROOT
ATOM      1  C1  EAA d           8.296   4.495  27.607  0.00  0.00     0.092 A 
ATOM      2  C2  EAA d           8.426   3.102  27.773  0.00  0.00     0.090 A 
ATOM      3 CL1  EAA d           9.778   2.331  27.040  0.00  0.00    -0.080 Cl
ATOM      4  C3  EAA d           7.530   2.403  28.514  0.00  0.00     0.072 A 
ATOM      5 CL2  EAA d           7.712   0.679  28.675  0.00  0.00    -0.081 Cl
ATOM      6  C4  EAA d           6.433   3.025  29.115  0.00  0.00     0.038 A 
ATOM      7  C5  EAA d           6.305   4.405  28.934  0.00  0.00    -0.065 A 
ATOM      8  C6  EAA d           7.207   5.118  28.192  0.00  0.00    -0.048 A 
ATOM      9  H1  EAA d           5.471   4.924  29.392  0.00  0.00     0.085 H 
ATOM     10  H2  EAA d           7.068   6.184  28.061  0.00  0.00     0.087 H 
ENDROOT
BRANCH   6  11
ATOM     11  C7  EAA d           5.513   2.296  30.046  0.00  0.00     0.189 C 
ATOM     12  O1  EAA d           4.505   1.783  29.629  0.00  0.00    -0.287 OA
BRANCH  11  13
ATOM     13  C8  EAA d           5.846   2.168  31.488  0.00  0.00    -0.017 C 
ATOM     14  C11 EAA d           6.343   1.046  31.924  0.00  0.00    -0.112 C 
ATOM     15  H8  EAA d           6.462   0.203  31.245  0.00  0.00     0.067 H 
ATOM     16  H9  EAA d           6.638   0.950  32.968  0.00  0.00     0.067 H 
BRANCH  13  17
ATOM     17  C9  EAA d           5.636   3.382  32.317  0.00  0.00    -0.041 C 
ATOM     18  H3  EAA d           6.459   4.076  32.089  0.00  0.00     0.039 H 
ATOM     19  H4  EAA d           5.699   3.070  33.370  0.00  0.00     0.039 H 
BRANCH  17  20
ATOM     20  C10 EAA d           4.394   4.125  32.164  0.00  0.00    -0.073 C 
ATOM     21  H5  EAA d           4.368   4.949  32.892  0.00  0.00     0.028 H 
ATOM     22  H6  EAA d           3.541   3.453  32.340  0.00  0.00     0.028 H 
ATOM     23  H7  EAA d           4.335   4.534  31.145  0.00  0.00     0.028 H 
ENDBRANCH  17  20
ENDBRANCH  13  17
ENDBRANCH  11  13
ENDBRANCH   6  11
BRANCH   1  24
ATOM     24  O2  EAA d           9.245   5.107  26.852  0.00  0.00    -0.339 OA
BRANCH  24  25
ATOM     25  C12 EAA d           8.818   5.884  25.755  0.00  0.00     0.106 C 
ATOM     26  H10 EAA d           9.542   6.692  25.577  0.00  0.00     0.091 H 
ATOM     27  H11 EAA d           7.831   6.317  25.976  0.00  0.00     0.091 H 
BRANCH  25  28
ATOM     28  C13 EAA d           8.721   5.034  24.543  0.00  0.00     0.198 C 
ATOM     29  O   EAA d           7.546   4.748  24.178  0.00  0.00    -0.646 OA
ATOM     30  OXT EAA d           9.754   4.662  23.918  0.00  0.00    -0.646 OA
ENDBRANCH  25  28
ENDBRANCH  24  25
ENDBRANCH   1  24
TORSDOF 7
ENDMDL
MODEL 5
REMARK VINA RESULT:      -5.1      2.097      6.529
REMARK  7 active torsions:
REMARK  status: ('A' for Active; 'I' for Inactive)
REMARK    1  A    between atoms: C1_1  and  O2_2 
REMARK    2  A    between atoms: O2_2  and  C12_16 
REMARK    3  A    between atoms: C4_7  and  C7_10 
REMARK    4  A    between atoms: C7_10  and  C8_12 
REMARK    5  A    between atoms: C8_12  and  C9_13 
REMARK    6  A    between atoms: C9_13  and  C10_14 
REMARK    7  A    between atoms: C12_16  and  C13_17 
ROOT
ATOM      1  C1  EAA d           5.917   3.044  29.451  0.00  0.00     0.092 A 
ATOM      2  C2  EAA d           6.588   4.266  29.251  0.00  0.00     0.090 A 
ATOM      3 CL1  EAA d           6.174   5.583  30.278  0.00  0.00    -0.080 Cl
ATOM      4  C3  EAA d           7.550   4.385  28.303  0.00  0.00     0.072 A 
ATOM      5 CL2  EAA d           8.340   5.920  28.072  0.00  0.00    -0.081 Cl
ATOM      6  C4  EAA d           7.892   3.318  27.469  0.00  0.00     0.038 A 
ATOM      7  C5  EAA d           7.211   2.113  27.665  0.00  0.00    -0.065 A 
ATOM      8  C6  EAA d           6.244   1.983  28.624  0.00  0.00    -0.048 A 
ATOM      9  H1  EAA d           7.456   1.260  27.043  0.00  0.00     0.085 H 
ATOM     10  H2  EAA d           5.726   1.038  28.737  0.00  0.00     0.087 H 
ENDROOT
BRANCH   6  11
ATOM     11  C7  EAA d           9.042   3.389  26.512  0.00  0.00     0.189 C 
ATOM     12  O1  EAA d          10.168   3.192  26.896  0.00  0.00    -0.287 OA
BRANCH  11  13
ATOM     13  C8  EAA d           8.809   3.672  25.072  0.00  0.00    -0.017 C 
ATOM     14  C11 EAA d           9.630   3.179  24.190  0.00  0.00    -0.112 C 
ATOM     15  H8  EAA d          10.500   2.610  24.515  0.00  0.00     0.067 H 
ATOM     16  H9  EAA d           9.447   3.335  23.128  0.00  0.00     0.067 H 
BRANCH  13  17
ATOM     17  C9  EAA d           7.593   4.462  24.751  0.00  0.00    -0.041 C 
ATOM     18  H3  EAA d           6.925   4.397  25.623  0.00  0.00     0.039 H 
ATOM     19  H4  EAA d           7.114   3.982  23.885  0.00  0.00     0.039 H 
BRANCH  17  20
ATOM     20  C10 EAA d           7.742   5.873  24.430  0.00  0.00    -0.073 C 
ATOM     21  H5  EAA d           8.584   6.004  23.735  0.00  0.00     0.028 H 
ATOM     22  H6  EAA d           7.937   6.441  25.353  0.00  0.00     0.028 H 
ATOM     23  H7  EAA d           6.819   6.242  23.961  0.00  0.00     0.028 H 
ENDBRANCH  17  20
ENDBRANCH  13  17
ENDBRANCH  11  13
ENDBRANCH   6  11
BRANCH   1  24
ATOM     24  O2  EAA d           4.973   3.022  30.427  0.00  0.00    -0.339 OA
BRANCH  24  25
ATOM     25  C12 EAA d           4.865   1.859  31.218  0.00  0.00     0.106 C 
ATOM     26  H10 EAA d           5.249   0.997  30.653  0.00  0.00     0.091 H 
ATOM     27  H11 EAA d           3.809   1.689  31.474  0.00  0.00     0.091 H 
BRANCH  25  28
ATOM     28  C13 EAA d           5.653   2.021  32.464  0.00  0.00     0.198 C 
ATOM     29  O   EAA d           5.643   3.183  32.959  0.00  0.00    -0.646 OA
ATOM     30  OXT EAA d           6.255   1.045  32.992  0.00  0.00    -0.646 OA
ENDBRANCH  25  28
ENDBRANCH  24  25
ENDBRANCH   1  24
TORSDOF 7
ENDMDL
MODEL 6
REMARK VINA RESULT:      -4.9      2.854      6.778
REMARK  7 active torsions:
REMARK  status: ('A' for Active; 'I' for Inactive)
REMARK    1  A    between atoms: C1_1  and  O2_2 
REMARK    2  A    between atoms: O2_2  and  C12_16 
REMARK    3  A    between atoms: C4_7  and  C7_10 
REMARK    4  A    between atoms: C7_10  and  C8_12 
REMARK    5  A    between atoms: C8_12  and  C9_13 
REMARK    6  A    between atoms: C9_13  and  C10_14 
REMARK    7  A    between atoms: C12_16  and  C13_17 
ROOT
ATOM      1  C1  EAA d           6.764   2.860  29.241  0.00  0.00     0.092 A 
ATOM      2  C2  EAA d           7.753   2.348  28.378  0.00  0.00     0.090 A 
ATOM      3 CL1  EAA d           8.099   0.665  28.467  0.00  0.00    -0.080 Cl
ATOM      4  C3  EAA d           8.384   3.153  27.487  0.00  0.00     0.072 A 
ATOM      5 CL2  EAA d           9.617   2.486  26.455  0.00  0.00    -0.081 Cl
ATOM      6  C4  EAA d           8.104   4.519  27.408  0.00  0.00     0.038 A 
ATOM      7  C5  EAA d           7.131   5.021  28.278  0.00  0.00    -0.065 A 
ATOM      8  C6  EAA d           6.486   4.215  29.175  0.00  0.00    -0.048 A 
ATOM      9  H1  EAA d           6.881   6.075  28.239  0.00  0.00     0.085 H 
ATOM     10  H2  EAA d           5.748   4.642  29.844  0.00  0.00     0.087 H 
ENDROOT
BRANCH   6  11
ATOM     11  C7  EAA d           8.689   5.394  26.342  0.00  0.00     0.189 C 
ATOM     12  O1  EAA d           9.663   6.067  26.572  0.00  0.00    -0.287 OA
BRANCH  11  13
ATOM     13  C8  EAA d           8.097   5.421  24.980  0.00  0.00    -0.017 C 
ATOM     14  C11 EAA d           8.878   5.611  23.955  0.00  0.00    -0.112 C 
ATOM     15  H8  EAA d           9.941   5.796  24.107  0.00  0.00     0.067 H 
ATOM     16  H9  EAA d           8.469   5.586  22.946  0.00  0.00     0.067 H 
BRANCH  13  17
ATOM     17  C9  EAA d           6.638   5.161  24.897  0.00  0.00    -0.041 C 
ATOM     18  H3  EAA d           6.178   5.612  25.788  0.00  0.00     0.039 H 
ATOM     19  H4  EAA d           6.501   4.070  24.926  0.00  0.00     0.039 H 
BRANCH  17  20
ATOM     20  C10 EAA d           5.905   5.654  23.740  0.00  0.00    -0.073 C 
ATOM     21  H5  EAA d           6.478   5.442  22.826  0.00  0.00     0.028 H 
ATOM     22  H6  EAA d           5.756   6.740  23.836  0.00  0.00     0.028 H 
ATOM     23  H7  EAA d           4.928   5.154  23.685  0.00  0.00     0.028 H 
ENDBRANCH  17  20
ENDBRANCH  13  17
ENDBRANCH  11  13
ENDBRANCH   6  11
BRANCH   1  24
ATOM     24  O2  EAA d           6.186   1.976  30.094  0.00  0.00    -0.339 OA
BRANCH  24  25
ATOM     25  C12 EAA d           5.192   2.456  30.972  0.00  0.00     0.106 C 
ATOM     26  H10 EAA d           4.271   1.872  30.835  0.00  0.00     0.091 H 
ATOM     27  H11 EAA d           4.991   3.515  30.752  0.00  0.00     0.091 H 
BRANCH  25  28
ATOM     28  C13 EAA d           5.654   2.325  32.376  0.00  0.00     0.198 C 
ATOM     29  O   EAA d           5.567   3.376  33.071  0.00  0.00    -0.646 OA
ATOM     30  OXT EAA d           6.069   1.222  32.830  0.00  0.00    -0.646 OA
ENDBRANCH  25  28
ENDBRANCH  24  25
ENDBRANCH   1  24
TORSDOF 7
ENDMDL
MODEL 7
REMARK VINA RESULT:      -4.9      2.542      3.416
REMARK  7 active torsions:
REMARK  status: ('A' for Active; 'I' for Inactive)
REMARK    1  A    between atoms: C1_1  and  O2_2 
REMARK    2  A    between atoms: O2_2  and  C12_16 
REMARK    3  A    between atoms: C4_7  and  C7_10 
REMARK    4  A    between atoms: C7_10  and  C8_12 
REMARK    5  A    between atoms: C8_12  and  C9_13 
REMARK    6  A    between atoms: C9_13  and  C10_14 
REMARK    7  A    between atoms: C12_16  and  C13_17 
ROOT
ATOM      1  C1  EAA d           9.102   3.458  27.123  0.00  0.00     0.092 A 
ATOM      2  C2  EAA d           8.194   2.726  27.913  0.00  0.00     0.090 A 
ATOM      3 CL1  EAA d           8.389   1.018  27.982  0.00  0.00    -0.080 Cl
ATOM      4  C3  EAA d           7.223   3.355  28.619  0.00  0.00     0.072 A 
ATOM      5 CL2  EAA d           6.106   2.413  29.566  0.00  0.00    -0.081 Cl
ATOM      6  C4  EAA d           7.063   4.742  28.570  0.00  0.00     0.038 A 
ATOM      7  C5  EAA d           7.960   5.459  27.773  0.00  0.00    -0.065 A 
ATOM      8  C6  EAA d           8.946   4.832  27.061  0.00  0.00    -0.048 A 
ATOM      9  H1  EAA d           7.872   6.538  27.717  0.00  0.00     0.085 H 
ATOM     10  H2  EAA d           9.614   5.418  26.441  0.00  0.00     0.087 H 
ENDROOT
BRANCH   6  11
ATOM     11  C7  EAA d           6.087   5.465  29.447  0.00  0.00     0.189 C 
ATOM     12  O1  EAA d           6.456   5.985  30.471  0.00  0.00    -0.287 OA
BRANCH  11  13
ATOM     13  C8  EAA d           4.659   5.580  29.052  0.00  0.00    -0.017 C 
ATOM     14  C11 EAA d           3.782   5.930  29.948  0.00  0.00    -0.112 C 
ATOM     15  H8  EAA d           4.090   6.086  30.980  0.00  0.00     0.067 H 
ATOM     16  H9  EAA d           2.739   6.066  29.665  0.00  0.00     0.067 H 
BRANCH  13  17
ATOM     17  C9  EAA d           4.358   5.339  27.618  0.00  0.00    -0.041 C 
ATOM     18  H3  EAA d           5.319   5.170  27.109  0.00  0.00     0.039 H 
ATOM     19  H4  EAA d           3.892   6.255  27.226  0.00  0.00     0.039 H 
BRANCH  17  20
ATOM     20  C10 EAA d           3.485   4.230  27.265  0.00  0.00    -0.073 C 
ATOM     21  H5  EAA d           2.943   3.891  28.160  0.00  0.00     0.028 H 
ATOM     22  H6  EAA d           4.088   3.401  26.865  0.00  0.00     0.028 H 
ATOM     23  H7  EAA d           2.763   4.559  26.503  0.00  0.00     0.028 H 
ENDBRANCH  17  20
ENDBRANCH  13  17
ENDBRANCH  11  13
ENDBRANCH   6  11
BRANCH   1  24
ATOM     24  O2  EAA d          10.042   2.739  26.456  0.00  0.00    -0.339 OA
BRANCH  24  25
ATOM     25  C12 EAA d          10.207   2.983  25.076  0.00  0.00     0.106 C 
ATOM     26  H10 EAA d          11.177   3.472  24.905  0.00  0.00     0.091 H 
ATOM     27  H11 EAA d           9.398   3.638  24.723  0.00  0.00     0.091 H 
BRANCH  25  28
ATOM     28  C13 EAA d          10.164   1.702  24.330  0.00  0.00     0.198 C 
ATOM     29  O   EAA d          10.051   0.666  25.044  0.00  0.00    -0.646 OA
ATOM     30  OXT EAA d          10.206   1.675  23.068  0.00  0.00    -0.646 OA
ENDBRANCH  25  28
ENDBRANCH  24  25
ENDBRANCH   1  24
TORSDOF 7
ENDMDL
MODEL 8
REMARK VINA RESULT:      -4.6      2.292      3.104
REMARK  7 active torsions:
REMARK  status: ('A' for Active; 'I' for Inactive)
REMARK    1  A    between atoms: C1_1  and  O2_2 
REMARK    2  A    between atoms: O2_2  and  C12_16 
REMARK    3  A    between atoms: C4_7  and  C7_10 
REMARK    4  A    between atoms: C7_10  and  C8_12 
REMARK    5  A    between atoms: C8_12  and  C9_13 
REMARK    6  A    between atoms: C9_13  and  C10_14 
REMARK    7  A    between atoms: C12_16  and  C13_17 
ROOT
ATOM      1  C1  EAA d           8.154   4.909  26.296  0.00  0.00     0.092 A 
ATOM      2  C2  EAA d           6.750   4.826  26.366  0.00  0.00     0.090 A 
ATOM      3 CL1  EAA d           5.899   4.418  24.927  0.00  0.00    -0.080 Cl
ATOM      4  C3  EAA d           6.098   5.029  27.538  0.00  0.00     0.072 A 
ATOM      5 CL2  EAA d           4.360   4.940  27.578  0.00  0.00    -0.081 Cl
ATOM      6  C4  EAA d           6.784   5.356  28.710  0.00  0.00     0.038 A 
ATOM      7  C5  EAA d           8.177   5.450  28.628  0.00  0.00    -0.065 A 
ATOM      8  C6  EAA d           8.841   5.241  27.451  0.00  0.00    -0.048 A 
ATOM      9  H1  EAA d           8.744   5.693  29.519  0.00  0.00     0.085 H 
ATOM     10  H2  EAA d           9.920   5.337  27.422  0.00  0.00     0.087 H 
ENDROOT
BRANCH   6  11
ATOM     11  C7  EAA d           6.097   5.449  30.039  0.00  0.00     0.189 C 
ATOM     12  O1  EAA d           5.808   6.524  30.501  0.00  0.00    -0.287 OA
BRANCH  11  13
ATOM     13  C8  EAA d           5.734   4.218  30.787  0.00  0.00    -0.017 C 
ATOM     14  C11 EAA d           4.789   4.278  31.681  0.00  0.00    -0.112 C 
ATOM     15  H8  EAA d           4.311   5.231  31.905  0.00  0.00     0.067 H 
ATOM     16  H9  EAA d           4.477   3.376  32.205  0.00  0.00     0.067 H 
BRANCH  13  17
ATOM     17  C9  EAA d           6.457   2.981  30.399  0.00  0.00    -0.041 C 
ATOM     18  H3  EAA d           7.533   3.190  30.497  0.00  0.00     0.039 H 
ATOM     19  H4  EAA d           6.217   2.783  29.344  0.00  0.00     0.039 H 
BRANCH  17  20
ATOM     20  C10 EAA d           6.190   1.755  31.137  0.00  0.00    -0.073 C 
ATOM     21  H5  EAA d           6.603   1.842  32.152  0.00  0.00     0.028 H 
ATOM     22  H6  EAA d           6.661   0.906  30.620  0.00  0.00     0.028 H 
ATOM     23  H7  EAA d           5.104   1.592  31.195  0.00  0.00     0.028 H 
ENDBRANCH  17  20
ENDBRANCH  13  17
ENDBRANCH  11  13
ENDBRANCH   6  11
BRANCH   1  24
ATOM     24  O2  EAA d           8.716   4.685  25.080  0.00  0.00    -0.339 OA
BRANCH  24  25
ATOM     25  C12 EAA d          10.018   4.144  25.041  0.00  0.00     0.106 C 
ATOM     26  H10 EAA d          10.458   4.179  26.048  0.00  0.00     0.091 H 
ATOM     27  H11 EAA d          10.637   4.733  24.349  0.00  0.00     0.091 H 
BRANCH  25  28
ATOM     28  C13 EAA d           9.964   2.737  24.576  0.00  0.00     0.198 C 
ATOM     29  O   EAA d           9.969   1.866  25.491  0.00  0.00    -0.646 OA
ATOM     30  OXT EAA d           9.885   2.454  23.347  0.00  0.00    -0.646 OA
ENDBRANCH  25  28
ENDBRANCH  24  25
ENDBRANCH   1  24
TORSDOF 7
ENDMDL
MODEL 9
REMARK VINA RESULT:      -4.3      2.375      3.082
REMARK  7 active torsions:
REMARK  status: ('A' for Active; 'I' for Inactive)
REMARK    1  A    between atoms: C1_1  and  O2_2 
REMARK    2  A    between atoms: O2_2  and  C12_16 
REMARK    3  A    between atoms: C4_7  and  C7_10 
REMARK    4  A    between atoms: C7_10  and  C8_12 
REMARK    5  A    between atoms: C8_12  and  C9_13 
REMARK    6  A    between atoms: C9_13  and  C10_14 
REMARK    7  A    between atoms: C12_16  and  C13_17 
ROOT
ATOM      1  C1  EAA d           8.352   4.001  27.354  0.00  0.00     0.092 A 
ATOM      2  C2  EAA d           8.361   2.685  27.857  0.00  0.00     0.090 A 
ATOM      3 CL1  EAA d           9.528   1.593  27.220  0.00  0.00    -0.080 Cl
ATOM      4  C3  EAA d           7.499   2.307  28.834  0.00  0.00     0.072 A 
ATOM      5 CL2  EAA d           7.527   0.665  29.412  0.00  0.00    -0.081 Cl
ATOM      6  C4  EAA d           6.552   3.191  29.357  0.00  0.00     0.038 A 
ATOM      7  C5  EAA d           6.542   4.491  28.843  0.00  0.00    -0.065 A 
ATOM      8  C6  EAA d           7.411   4.881  27.861  0.00  0.00    -0.048 A 
ATOM      9  H1  EAA d           5.827   5.207  29.231  0.00  0.00     0.085 H 
ATOM     10  H2  EAA d           7.363   5.893  27.476  0.00  0.00     0.087 H 
ENDROOT
BRANCH   6  11
ATOM     11  C7  EAA d           5.687   2.834  30.527  0.00  0.00     0.189 C 
ATOM     12  O1  EAA d           5.934   3.272  31.623  0.00  0.00    -0.287 OA
BRANCH  11  13
ATOM     13  C8  EAA d           4.497   1.963  30.347  0.00  0.00    -0.017 C 
ATOM     14  C11 EAA d           4.220   1.075  31.259  0.00  0.00    -0.112 C 
ATOM     15  H8  EAA d           4.884   0.947  32.113  0.00  0.00     0.067 H 
ATOM     16  H9  EAA d           3.326   0.461  31.167  0.00  0.00     0.067 H 
BRANCH  13  17
ATOM     17  C9  EAA d           3.671   2.228  29.142  0.00  0.00    -0.041 C 
ATOM     18  H3  EAA d           4.228   2.943  28.519  0.00  0.00     0.039 H 
ATOM     19  H4  EAA d           2.735   2.692  29.486  0.00  0.00     0.039 H 
BRANCH  17  20
ATOM     20  C10 EAA d           3.305   1.109  28.287  0.00  0.00    -0.073 C 
ATOM     21  H5  EAA d           3.634   1.311  27.257  0.00  0.00     0.028 H 
ATOM     22  H6  EAA d           2.213   0.976  28.305  0.00  0.00     0.028 H 
ATOM     23  H7  EAA d           3.791   0.193  28.654  0.00  0.00     0.028 H 
ENDBRANCH  17  20
ENDBRANCH  13  17
ENDBRANCH  11  13
ENDBRANCH   6  11
BRANCH   1  24
ATOM     24  O2  EAA d           9.255   4.285  26.381  0.00  0.00    -0.339 OA
BRANCH  24  25
ATOM     25  C12 EAA d           8.955   3.887  25.061  0.00  0.00     0.106 C 
ATOM     26  H10 EAA d           8.062   3.245  25.068  0.00  0.00     0.091 H 
ATOM     27  H11 EAA d           9.806   3.327  24.647  0.00  0.00     0.091 H 
BRANCH  25  28
ATOM     28  C13 EAA d           8.696   5.081  24.221  0.00  0.00     0.198 C 
ATOM     29  O   EAA d           7.479   5.391  24.087  0.00  0.00    -0.646 OA
ATOM     30  OXT EAA d           9.643   5.746  23.715  0.00  0.00    -0.646 OA
ENDBRANCH  25  28
ENDBRANCH  24  25
ENDBRANCH   1  24
TORSDOF 7
ENDMDL
MODEL 10
REMARK VINA RESULT:      -4.2      2.612      6.792
REMARK  7 active torsions:
REMARK  status: ('A' for Active; 'I' for Inactive)
REMARK    1  A    between atoms: C1_1  and  O2_2 
REMARK    2  A    between atoms: O2_2  and  C12_16 
REMARK    3  A    between atoms: C4_7  and  C7_10 
REMARK    4  A    between atoms: C7_10  and  C8_12 
REMARK    5  A    between atoms: C8_12  and  C9_13 
REMARK    6  A    between atoms: C9_13  and  C10_14 
REMARK    7  A    between atoms: C12_16  and  C13_17 
ROOT
ATOM      1  C1  EAA d           6.570   4.705  29.628  0.00  0.00     0.092 A 
ATOM      2  C2  EAA d           6.841   3.350  29.357  0.00  0.00     0.090 A 
ATOM      3 CL1  EAA d           6.172   2.172  30.417  0.00  0.00    -0.080 Cl
ATOM      4  C3  EAA d           7.577   2.990  28.276  0.00  0.00     0.072 A 
ATOM      5 CL2  EAA d           7.909   1.306  27.988  0.00  0.00    -0.081 Cl
ATOM      6  C4  EAA d           8.119   3.942  27.409  0.00  0.00     0.038 A 
ATOM      7  C5  EAA d           7.856   5.286  27.694  0.00  0.00    -0.065 A 
ATOM      8  C6  EAA d           7.110   5.656  28.780  0.00  0.00    -0.048 A 
ATOM      9  H1  EAA d           8.253   6.053  27.039  0.00  0.00     0.085 H 
ATOM     10  H2  EAA d           6.940   6.708  28.978  0.00  0.00     0.087 H 
ENDROOT
BRANCH   6  11
ATOM     11  C7  EAA d           8.817   3.561  26.139  0.00  0.00     0.189 C 
ATOM     12  O1  EAA d           9.738   2.783  26.160  0.00  0.00    -0.287 OA
BRANCH  11  13
ATOM     13  C8  EAA d           8.363   4.111  24.836  0.00  0.00    -0.017 C 
ATOM     14  C11 EAA d           9.117   3.953  23.786  0.00  0.00    -0.112 C 
ATOM     15  H8  EAA d          10.087   3.466  23.882  0.00  0.00     0.067 H 
ATOM     16  H9  EAA d           8.779   4.307  22.814  0.00  0.00     0.067 H 
BRANCH  13  17
ATOM     17  C9  EAA d           7.026   4.757  24.830  0.00  0.00    -0.041 C 
ATOM     18  H3  EAA d           6.990   5.433  25.697  0.00  0.00     0.039 H 
ATOM     19  H4  EAA d           6.280   3.959  24.955  0.00  0.00     0.039 H 
BRANCH  17  20
ATOM     20  C10 EAA d           6.631   5.534  23.665  0.00  0.00    -0.073 C 
ATOM     21  H5  EAA d           5.820   5.013  23.135  0.00  0.00     0.028 H 
ATOM     22  H6  EAA d           7.494   5.649  22.991  0.00  0.00     0.028 H 
ATOM     23  H7  EAA d           6.282   6.526  23.986  0.00  0.00     0.028 H 
ENDBRANCH  17  20
ENDBRANCH  13  17
ENDBRANCH  11  13
ENDBRANCH   6  11
BRANCH   1  24
ATOM     24  O2  EAA d           5.821   4.966  30.731  0.00  0.00    -0.339 OA
BRANCH  24  25
ATOM     25  C12 EAA d           4.554   5.557  30.546  0.00  0.00     0.106 C 
ATOM     26  H10 EAA d           4.554   6.136  29.611  0.00  0.00     0.091 H 
ATOM     27  H11 EAA d           4.337   6.226  31.391  0.00  0.00     0.091 H 
BRANCH  25  28
ATOM     28  C13 EAA d           3.512   4.504  30.472  0.00  0.00     0.198 C 
ATOM     29  O   EAA d           3.084   4.250  29.311  0.00  0.00    -0.646 OA
ATOM     30  OXT EAA d           3.120   3.895  31.507  0.00  0.00    -0.646 OA
ENDBRANCH  25  28
ENDBRANCH  24  25
ENDBRANCH   1  24
TORSDOF 7
ENDMDL
