MODEL 1
REMARK VINA RESULT:      -9.9      0.000      0.000
REMARK  11 active torsions:
REMARK  status: ('A' for Active; 'I' for Inactive)
REMARK    1  A    between atoms: N10_10  and  C1_1 
REMARK    2  A    between atoms: C2_2  and  O3_3 
REMARK    3  A    between atoms: C4_4  and  O5_5 
REMARK    4  A    between atoms: C6_6  and  C14_14 
REMARK    5  A    between atoms: C35_35  and  C7_7 
REMARK    6  A    between atoms: C15_15  and  C16_16 
REMARK    7  A    between atoms: C16_16  and  N17_17 
REMARK       I    between atoms: N17_17  and  C18_18 
REMARK    8  A    between atoms: C18_18  and  C20_20 
REMARK    9  A    between atoms: C22_22  and  C24_24 
REMARK   10  A    between atoms: C31_31  and  O32_32 
REMARK   11  A    between atoms: C33_33  and  O34_34 
ROOT
ATOM      1  C14 MOL d          -2.501  18.800  14.043  0.00  0.00    -0.075 C 
ATOM      2  C15 MOL d          -1.413  18.101  14.242  0.00  0.00    -0.087 C 
ATOM      3  H11 MOL d          -3.373  18.351  13.570  0.00  0.00     0.080 H 
ATOM      4  H12 MOL d          -0.569  18.562  14.753  0.00  0.00     0.079 H 
ENDROOT
BRANCH   2   5
ATOM      5  C16 MOL d          -1.308  16.697  13.788  0.00  0.00     0.010 C 
ATOM      6  H13 MOL d          -0.554  16.143  14.367  0.00  0.00     0.070 H 
ATOM      7  H14 MOL d          -1.063  16.638  12.717  0.00  0.00     0.070 H 
BRANCH   5   8
ATOM      8  N17 MOL d          -2.657  16.201  14.055  0.00  0.00    -0.353 N 
ATOM      9  C18 MOL d          -2.713  14.855  14.282  0.00  0.00     0.254 C 
ATOM     10  O19 MOL d          -1.701  14.156  14.173  0.00  0.00    -0.268 OA
ATOM     11  H15 MOL d          -3.464  16.791  14.069  0.00  0.00     0.163 HD
BRANCH   9  12
ATOM     12  C20 MOL d          -4.040  14.264  14.468  0.00  0.00     0.068 A 
ATOM     13  C21 MOL d          -4.551  13.485  13.412  0.00  0.00    -0.054 A 
ATOM     14  C22 MOL d          -5.791  12.857  13.526  0.00  0.00    -0.022 A 
ATOM     15  H16 MOL d          -3.975  13.372  12.501  0.00  0.00     0.086 H 
ATOM     16  C23 MOL d          -6.584  12.988  14.683  0.00  0.00    -0.037 A 
ATOM     17  C33 MOL d          -6.051  13.770  15.715  0.00  0.00     0.100 A 
ATOM     18  H17 MOL d          -7.553  12.509  14.771  0.00  0.00     0.089 H 
ATOM     19  C31 MOL d          -4.787  14.354  15.640  0.00  0.00     0.114 A 
BRANCH  14  20
ATOM     20  C24 MOL d          -6.273  12.056  12.359  0.00  0.00    -0.026 A 
ATOM     21  C25 MOL d          -7.424  12.465  11.718  0.00  0.00    -0.069 A 
ATOM     22  C26 MOL d          -7.860  11.686  10.649  0.00  0.00    -0.045 A 
ATOM     23  H18 MOL d          -7.964  13.351  12.031  0.00  0.00     0.085 H 
ATOM     24  C29 MOL d          -7.083  10.579  10.312  0.00  0.00     0.116 A 
ATOM     25  H19 MOL d          -8.763  11.930  10.104  0.00  0.00     0.088 H 
ATOM     26  C28 MOL d          -5.957  10.138  10.959  0.00  0.00    -0.045 A 
ATOM     27  F30 MOL d          -7.456   9.726   9.270  0.00  0.00    -0.206 F 
ATOM     28  C27 MOL d          -5.524  10.952  12.015  0.00  0.00    -0.069 A 
ATOM     29  H21 MOL d          -5.440   9.229  10.675  0.00  0.00     0.088 H 
ATOM     30  H20 MOL d          -4.614  10.716  12.552  0.00  0.00     0.085 H 
ENDBRANCH  14  20
BRANCH  17  31
ATOM     31  O34 MOL d          -6.821  13.913  16.874  0.00  0.00    -0.358 OA
ATOM     32  H23 MOL d          -7.566  14.473  16.691  0.00  0.00     0.217 HD
ENDBRANCH  17  31
BRANCH  19  33
ATOM     33  O32 MOL d          -4.396  15.106  16.703  0.00  0.00    -0.357 OA
ATOM     34  H22 MOL d          -5.105  15.687  16.955  0.00  0.00     0.217 HD
ENDBRANCH  19  33
ENDBRANCH   9  12
ENDBRANCH   5   8
ENDBRANCH   2   5
BRANCH   1  35
ATOM     35  C6  MOL d          -2.519  20.237  14.481  0.00  0.00     0.084 C 
ATOM     36  C4  MOL d          -3.322  20.302  15.771  0.00  0.00     0.092 C 
ATOM     37  C2  MOL d          -4.721  20.431  15.166  0.00  0.00     0.105 C 
ATOM     38  H4  MOL d          -3.216  19.415  16.413  0.00  0.00     0.091 H 
ATOM     39  C1  MOL d          -4.472  21.384  13.987  0.00  0.00     0.140 C 
ATOM     40  H2  MOL d          -5.098  19.454  14.833  0.00  0.00     0.093 H 
ATOM     41  O13 MOL d          -3.177  21.069  13.467  0.00  0.00    -0.352 OA
ATOM     42  H1  MOL d          -4.496  22.426  14.343  0.00  0.00     0.123 H 
ATOM     43  H6  MOL d          -1.493  20.597  14.649  0.00  0.00     0.093 H 
BRANCH  36  44
ATOM     44  O5  MOL d          -2.896  21.490  16.455  0.00  0.00    -0.390 OA
ATOM     45  H5  MOL d          -3.501  22.197  16.265  0.00  0.00     0.210 HD
ENDBRANCH  36  44
BRANCH  37  46
ATOM     46  O3  MOL d          -5.671  21.038  16.056  0.00  0.00    -0.388 OA
ATOM     47  H3  MOL d          -5.971  20.393  16.685  0.00  0.00     0.210 HD
ENDBRANCH  37  46
BRANCH  39  48
ATOM     48  N10 MOL d          -5.473  21.214  12.917  0.00  0.00    -0.294 N 
ATOM     49  C9  MOL d          -6.092  19.999  12.530  0.00  0.00     0.070 A 
ATOM     50  N8  MOL d          -6.848  20.161  11.493  0.00  0.00    -0.238 NA
ATOM     51  H10 MOL d          -5.948  19.047  13.041  0.00  0.00     0.144 H 
ATOM     52  C12 MOL d          -6.733  21.461  11.135  0.00  0.00     0.128 A 
ATOM     53  C11 MOL d          -5.913  22.155  12.006  0.00  0.00     0.165 A 
ATOM     54  C35 MOL d          -7.354  22.198  10.110  0.00  0.00     0.064 A 
ATOM     55  N40 MOL d          -5.586  23.457  11.911  0.00  0.00    -0.222 NA
ATOM     56  C39 MOL d          -6.193  24.101  10.915  0.00  0.00     0.089 A 
ATOM     57  N38 MOL d          -7.052  23.502  10.027  0.00  0.00    -0.244 NA
ATOM     58  H24 MOL d          -5.998  25.161  10.799  0.00  0.00     0.146 H 
BRANCH  54  59
ATOM     59  C7  MOL d          -8.357  21.608   9.140  0.00  0.00    -0.033 C 
ATOM     60  H7  MOL d          -7.834  21.268   8.234  0.00  0.00     0.035 H 
ATOM     61  H8  MOL d          -9.100  22.372   8.870  0.00  0.00     0.035 H 
ATOM     62  H9  MOL d          -8.864  20.753   9.612  0.00  0.00     0.035 H 
ENDBRANCH  54  59
ENDBRANCH  39  48
ENDBRANCH   1  35
TORSDOF 11
ENDMDL
MODEL 2
REMARK VINA RESULT:      -8.7      4.184      9.393
REMARK  11 active torsions:
REMARK  status: ('A' for Active; 'I' for Inactive)
REMARK    1  A    between atoms: N10_10  and  C1_1 
REMARK    2  A    between atoms: C2_2  and  O3_3 
REMARK    3  A    between atoms: C4_4  and  O5_5 
REMARK    4  A    between atoms: C6_6  and  C14_14 
REMARK    5  A    between atoms: C35_35  and  C7_7 
REMARK    6  A    between atoms: C15_15  and  C16_16 
REMARK    7  A    between atoms: C16_16  and  N17_17 
REMARK       I    between atoms: N17_17  and  C18_18 
REMARK    8  A    between atoms: C18_18  and  C20_20 
REMARK    9  A    between atoms: C22_22  and  C24_24 
REMARK   10  A    between atoms: C31_31  and  O32_32 
REMARK   11  A    between atoms: C33_33  and  O34_34 
ROOT
ATOM      1  C14 MOL d          -6.247  16.193  17.621  0.00  0.00    -0.075 C 
ATOM      2  C15 MOL d          -7.086  17.003  18.213  0.00  0.00    -0.087 C 
ATOM      3  H11 MOL d          -5.223  16.501  17.418  0.00  0.00     0.080 H 
ATOM      4  H12 MOL d          -8.093  16.657  18.442  0.00  0.00     0.079 H 
ENDROOT
BRANCH   2   5
ATOM      5  C16 MOL d          -6.693  18.382  18.580  0.00  0.00     0.010 C 
ATOM      6  H13 MOL d          -6.168  18.406  19.546  0.00  0.00     0.070 H 
ATOM      7  H14 MOL d          -7.565  19.052  18.620  0.00  0.00     0.070 H 
BRANCH   5   8
ATOM      8  N17 MOL d          -5.800  18.735  17.477  0.00  0.00    -0.353 N 
ATOM      9  C18 MOL d          -6.075  19.949  16.914  0.00  0.00     0.254 C 
ATOM     10  O19 MOL d          -7.053  20.606  17.283  0.00  0.00    -0.268 OA
ATOM     11  H15 MOL d          -5.057  18.143  17.165  0.00  0.00     0.163 HD
BRANCH   9  12
ATOM     12  C20 MOL d          -5.283  20.337  15.745  0.00  0.00     0.068 A 
ATOM     13  C21 MOL d          -5.988  20.670  14.572  0.00  0.00    -0.054 A 
ATOM     14  C22 MOL d          -5.309  21.086  13.427  0.00  0.00    -0.022 A 
ATOM     15  H16 MOL d          -7.070  20.602  14.559  0.00  0.00     0.086 H 
ATOM     16  C23 MOL d          -3.903  21.173  13.390  0.00  0.00    -0.037 A 
ATOM     17  C33 MOL d          -3.230  20.834  14.570  0.00  0.00     0.100 A 
ATOM     18  H17 MOL d          -3.372  21.486  12.499  0.00  0.00     0.089 H 
ATOM     19  C31 MOL d          -3.897  20.475  15.741  0.00  0.00     0.114 A 
BRANCH  14  20
ATOM     20  C24 MOL d          -6.124  21.412  12.217  0.00  0.00    -0.026 A 
ATOM     21  C25 MOL d          -6.129  22.716  11.766  0.00  0.00    -0.069 A 
ATOM     22  C26 MOL d          -6.915  22.993  10.651  0.00  0.00    -0.045 A 
ATOM     23  H18 MOL d          -5.548  23.488  12.256  0.00  0.00     0.085 H 
ATOM     24  C29 MOL d          -7.607  21.926  10.081  0.00  0.00     0.116 A 
ATOM     25  H19 MOL d          -6.986  23.995  10.244  0.00  0.00     0.088 H 
ATOM     26  C28 MOL d          -7.642  20.633  10.535  0.00  0.00    -0.045 A 
ATOM     27  F30 MOL d          -8.439  22.115   8.975  0.00  0.00    -0.206 F 
ATOM     28  C27 MOL d          -6.824  20.373  11.643  0.00  0.00    -0.069 A 
ATOM     29  H21 MOL d          -8.256  19.869  10.073  0.00  0.00     0.088 H 
ATOM     30  H20 MOL d          -6.742  19.369  12.042  0.00  0.00     0.085 H 
ENDBRANCH  14  20
BRANCH  17  31
ATOM     31  O34 MOL d          -1.833  20.914  14.556  0.00  0.00    -0.358 OA
ATOM     32  H23 MOL d          -1.569  21.750  14.190  0.00  0.00     0.217 HD
ENDBRANCH  17  31
BRANCH  19  33
ATOM     33  O32 MOL d          -3.124  20.149  16.810  0.00  0.00    -0.357 OA
ATOM     34  H22 MOL d          -3.220  19.222  16.997  0.00  0.00     0.217 HD
ENDBRANCH  19  33
ENDBRANCH   9  12
ENDBRANCH   5   8
ENDBRANCH   2   5
BRANCH   1  35
ATOM     35  C6  MOL d          -6.730  14.825  17.228  0.00  0.00     0.084 C 
ATOM     36  C4  MOL d          -6.426  13.891  18.390  0.00  0.00     0.092 C 
ATOM     37  C2  MOL d          -4.986  13.528  18.023  0.00  0.00     0.105 C 
ATOM     38  H4  MOL d          -6.507  14.363  19.380  0.00  0.00     0.091 H 
ATOM     39  C1  MOL d          -5.074  13.377  16.497  0.00  0.00     0.140 C 
ATOM     40  H2  MOL d          -4.290  14.326  18.319  0.00  0.00     0.093 H 
ATOM     41  O13 MOL d          -6.011  14.356  16.038  0.00  0.00    -0.352 OA
ATOM     42  H1  MOL d          -5.426  12.366  16.245  0.00  0.00     0.123 H 
ATOM     43  H6  MOL d          -7.811  14.847  17.027  0.00  0.00     0.093 H 
BRANCH  36  44
ATOM     44  O5  MOL d          -7.331  12.784  18.268  0.00  0.00    -0.390 OA
ATOM     45  H5  MOL d          -6.933  12.008  18.643  0.00  0.00     0.210 HD
ENDBRANCH  36  44
BRANCH  37  46
ATOM     46  O3  MOL d          -4.555  12.279  18.585  0.00  0.00    -0.388 OA
ATOM     47  H3  MOL d          -3.963  11.848  17.979  0.00  0.00     0.210 HD
ENDBRANCH  37  46
BRANCH  39  48
ATOM     48  N10 MOL d          -3.774  13.615  15.842  0.00  0.00    -0.294 N 
ATOM     49  C9  MOL d          -3.486  14.620  14.884  0.00  0.00     0.070 A 
ATOM     50  N8  MOL d          -2.282  14.504  14.424  0.00  0.00    -0.238 NA
ATOM     51  H10 MOL d          -4.189  15.392  14.574  0.00  0.00     0.144 H 
ATOM     52  C12 MOL d          -1.747  13.414  15.020  0.00  0.00     0.128 A 
ATOM     53  C11 MOL d          -2.627  12.849  15.925  0.00  0.00     0.165 A 
ATOM     54  C35 MOL d          -0.465  12.842  14.925  0.00  0.00     0.064 A 
ATOM     55  N40 MOL d          -2.398  11.747  16.663  0.00  0.00    -0.222 NA
ATOM     56  C39 MOL d          -1.173  11.241  16.523  0.00  0.00     0.089 A 
ATOM     57  N38 MOL d          -0.223  11.759  15.677  0.00  0.00    -0.244 NA
ATOM     58  H24 MOL d          -0.910  10.370  17.111  0.00  0.00     0.146 H 
BRANCH  54  59
ATOM     59  C7  MOL d           0.644  13.404  14.058  0.00  0.00    -0.033 C 
ATOM     60  H7  MOL d           0.258  13.590  13.045  0.00  0.00     0.035 H 
ATOM     61  H8  MOL d           1.472  12.681  14.008  0.00  0.00     0.035 H 
ATOM     62  H9  MOL d           1.005  14.348  14.492  0.00  0.00     0.035 H 
ENDBRANCH  54  59
ENDBRANCH  39  48
ENDBRANCH   1  35
TORSDOF 11
ENDMDL
MODEL 3
REMARK VINA RESULT:      -8.4      3.779      8.655
REMARK  11 active torsions:
REMARK  status: ('A' for Active; 'I' for Inactive)
REMARK    1  A    between atoms: N10_10  and  C1_1 
REMARK    2  A    between atoms: C2_2  and  O3_3 
REMARK    3  A    between atoms: C4_4  and  O5_5 
REMARK    4  A    between atoms: C6_6  and  C14_14 
REMARK    5  A    between atoms: C35_35  and  C7_7 
REMARK    6  A    between atoms: C15_15  and  C16_16 
REMARK    7  A    between atoms: C16_16  and  N17_17 
REMARK       I    between atoms: N17_17  and  C18_18 
REMARK    8  A    between atoms: C18_18  and  C20_20 
REMARK    9  A    between atoms: C22_22  and  C24_24 
REMARK   10  A    between atoms: C31_31  and  O32_32 
REMARK   11  A    between atoms: C33_33  and  O34_34 
ROOT
ATOM      1  C14 MOL d          -3.866  13.603  13.136  0.00  0.00    -0.075 C 
ATOM      2  C15 MOL d          -3.067  13.977  14.102  0.00  0.00    -0.087 C 
ATOM      3  H11 MOL d          -3.998  14.222  12.250  0.00  0.00     0.080 H 
ATOM      4  H12 MOL d          -2.922  13.321  14.959  0.00  0.00     0.079 H 
ENDROOT
BRANCH   2   5
ATOM      5  C16 MOL d          -2.355  15.273  14.051  0.00  0.00     0.010 C 
ATOM      6  H13 MOL d          -1.895  15.441  13.067  0.00  0.00     0.070 H 
ATOM      7  H14 MOL d          -1.583  15.339  14.833  0.00  0.00     0.070 H 
BRANCH   5   8
ATOM      8  N17 MOL d          -3.446  16.216  14.299  0.00  0.00    -0.353 N 
ATOM      9  C18 MOL d          -3.052  17.524  14.298  0.00  0.00     0.254 C 
ATOM     10  O19 MOL d          -1.859  17.822  14.182  0.00  0.00    -0.268 OA
ATOM     11  H15 MOL d          -4.391  15.929  14.455  0.00  0.00     0.163 HD
BRANCH   9  12
ATOM     12  C20 MOL d          -4.067  18.526  14.628  0.00  0.00     0.068 A 
ATOM     13  C21 MOL d          -4.465  19.403  13.600  0.00  0.00    -0.054 A 
ATOM     14  C22 MOL d          -5.454  20.361  13.822  0.00  0.00    -0.022 A 
ATOM     15  H16 MOL d          -3.997  19.332  12.624  0.00  0.00     0.086 H 
ATOM     16  C23 MOL d          -6.079  20.501  15.078  0.00  0.00    -0.037 A 
ATOM     17  C33 MOL d          -5.662  19.618  16.080  0.00  0.00     0.100 A 
ATOM     18  H17 MOL d          -6.841  21.252  15.257  0.00  0.00     0.089 H 
ATOM     19  C31 MOL d          -4.718  18.616  15.856  0.00  0.00     0.114 A 
BRANCH  14  20
ATOM     20  C24 MOL d          -5.815  21.262  12.687  0.00  0.00    -0.026 A 
ATOM     21  C25 MOL d          -6.717  20.802  11.749  0.00  0.00    -0.069 A 
ATOM     22  C26 MOL d          -7.016  21.655  10.691  0.00  0.00    -0.045 A 
ATOM     23  H18 MOL d          -7.171  19.821  11.833  0.00  0.00     0.085 H 
ATOM     24  C29 MOL d          -6.395  22.903  10.686  0.00  0.00     0.116 A 
ATOM     25  H19 MOL d          -7.702  21.362   9.905  0.00  0.00     0.088 H 
ATOM     26  C28 MOL d          -5.471  23.364  11.589  0.00  0.00    -0.045 A 
ATOM     27  F30 MOL d          -6.616  23.815   9.652  0.00  0.00    -0.206 F 
ATOM     28  C27 MOL d          -5.205  22.498  12.658  0.00  0.00    -0.069 A 
ATOM     29  H21 MOL d          -4.983  24.326  11.484  0.00  0.00     0.088 H 
ATOM     30  H20 MOL d          -4.530  22.795  13.451  0.00  0.00     0.085 H 
ENDBRANCH  14  20
BRANCH  17  31
ATOM     31  O34 MOL d          -6.270  19.739  17.335  0.00  0.00    -0.358 OA
ATOM     32  H23 MOL d          -5.608  19.933  17.988  0.00  0.00     0.217 HD
ENDBRANCH  17  31
BRANCH  19  33
ATOM     33  O32 MOL d          -4.386  17.838  16.920  0.00  0.00    -0.357 OA
ATOM     34  H22 MOL d          -4.907  18.094  17.673  0.00  0.00     0.217 HD
ENDBRANCH  19  33
ENDBRANCH   9  12
ENDBRANCH   5   8
ENDBRANCH   2   5
BRANCH   1  35
ATOM     35  C6  MOL d          -4.599  12.298  13.278  0.00  0.00     0.084 C 
ATOM     36  C4  MOL d          -5.697  12.284  12.226  0.00  0.00     0.092 C 
ATOM     37  C2  MOL d          -6.782  13.020  13.014  0.00  0.00     0.105 C 
ATOM     38  H4  MOL d          -5.430  12.796  11.289  0.00  0.00     0.091 H 
ATOM     39  C1  MOL d          -6.611  12.427  14.421  0.00  0.00     0.140 C 
ATOM     40  H2  MOL d          -6.609  14.106  13.001  0.00  0.00     0.093 H 
ATOM     41  O13 MOL d          -5.211  12.202  14.608  0.00  0.00    -0.352 OA
ATOM     42  H1  MOL d          -7.162  11.478  14.491  0.00  0.00     0.123 H 
ATOM     43  H6  MOL d          -3.908  11.456  13.124  0.00  0.00     0.093 H 
BRANCH  36  44
ATOM     44  O5  MOL d          -6.015  10.904  11.991  0.00  0.00    -0.390 OA
ATOM     45  H5  MOL d          -6.787  10.848  11.441  0.00  0.00     0.210 HD
ENDBRANCH  36  44
BRANCH  37  46
ATOM     46  O3  MOL d          -8.111  12.736  12.553  0.00  0.00    -0.388 OA
ATOM     47  H3  MOL d          -8.324  11.830  12.744  0.00  0.00     0.210 HD
ENDBRANCH  37  46
BRANCH  39  48
ATOM     48  N10 MOL d          -7.093  13.346  15.470  0.00  0.00    -0.294 N 
ATOM     49  C9  MOL d          -8.396  13.895  15.574  0.00  0.00     0.070 A 
ATOM     50  N8  MOL d          -8.476  14.744  16.546  0.00  0.00    -0.238 NA
ATOM     51  H10 MOL d          -9.226  13.634  14.918  0.00  0.00     0.144 H 
ATOM     52  C12 MOL d          -7.240  14.820  17.092  0.00  0.00     0.128 A 
ATOM     53  C11 MOL d          -6.360  13.951  16.473  0.00  0.00     0.165 A 
ATOM     54  C35 MOL d          -6.756  15.552  18.192  0.00  0.00     0.064 A 
ATOM     55  N40 MOL d          -5.056  13.804  16.773  0.00  0.00    -0.222 NA
ATOM     56  C39 MOL d          -4.651  14.531  17.815  0.00  0.00     0.089 A 
ATOM     57  N38 MOL d          -5.464  15.390  18.512  0.00  0.00    -0.244 NA
ATOM     58  H24 MOL d          -3.618  14.438  18.130  0.00  0.00     0.146 H 
BRANCH  54  59
ATOM     59  C7  MOL d          -7.619  16.467  19.037  0.00  0.00    -0.033 C 
ATOM     60  H7  MOL d          -8.581  16.633  18.532  0.00  0.00     0.035 H 
ATOM     61  H8  MOL d          -7.106  17.430  19.175  0.00  0.00     0.035 H 
ATOM     62  H9  MOL d          -7.796  16.001  20.018  0.00  0.00     0.035 H 
ENDBRANCH  54  59
ENDBRANCH  39  48
ENDBRANCH   1  35
TORSDOF 11
ENDMDL
MODEL 4
REMARK VINA RESULT:      -8.4      3.564      8.754
REMARK  11 active torsions:
REMARK  status: ('A' for Active; 'I' for Inactive)
REMARK    1  A    between atoms: N10_10  and  C1_1 
REMARK    2  A    between atoms: C2_2  and  O3_3 
REMARK    3  A    between atoms: C4_4  and  O5_5 
REMARK    4  A    between atoms: C6_6  and  C14_14 
REMARK    5  A    between atoms: C35_35  and  C7_7 
REMARK    6  A    between atoms: C15_15  and  C16_16 
REMARK    7  A    between atoms: C16_16  and  N17_17 
REMARK       I    between atoms: N17_17  and  C18_18 
REMARK    8  A    between atoms: C18_18  and  C20_20 
REMARK    9  A    between atoms: C22_22  and  C24_24 
REMARK   10  A    between atoms: C31_31  and  O32_32 
REMARK   11  A    between atoms: C33_33  and  O34_34 
ROOT
ATOM      1  C14 MOL d          -5.848  16.522  18.280  0.00  0.00    -0.075 C 
ATOM      2  C15 MOL d          -6.563  17.279  19.072  0.00  0.00    -0.087 C 
ATOM      3  H11 MOL d          -5.512  16.889  17.312  0.00  0.00     0.080 H 
ATOM      4  H12 MOL d          -6.853  16.902  20.053  0.00  0.00     0.079 H 
ENDROOT
BRANCH   2   5
ATOM      5  C16 MOL d          -6.985  18.637  18.663  0.00  0.00     0.010 C 
ATOM      6  H13 MOL d          -6.867  19.359  19.484  0.00  0.00     0.070 H 
ATOM      7  H14 MOL d          -8.029  18.645  18.314  0.00  0.00     0.070 H 
BRANCH   5   8
ATOM      8  N17 MOL d          -6.056  18.915  17.568  0.00  0.00    -0.353 N 
ATOM      9  C18 MOL d          -6.320  20.080  16.906  0.00  0.00     0.254 C 
ATOM     10  O19 MOL d          -7.316  20.752  17.188  0.00  0.00    -0.268 OA
ATOM     11  H15 MOL d          -5.298  18.308  17.328  0.00  0.00     0.163 HD
BRANCH   9  12
ATOM     12  C20 MOL d          -5.490  20.386  15.739  0.00  0.00     0.068 A 
ATOM     13  C21 MOL d          -6.157  20.735  14.548  0.00  0.00    -0.054 A 
ATOM     14  C22 MOL d          -5.438  21.077  13.403  0.00  0.00    -0.022 A 
ATOM     15  H16 MOL d          -7.240  20.737  14.521  0.00  0.00     0.086 H 
ATOM     16  C23 MOL d          -4.029  21.073  13.385  0.00  0.00    -0.037 A 
ATOM     17  C33 MOL d          -3.394  20.720  14.581  0.00  0.00     0.100 A 
ATOM     18  H17 MOL d          -3.467  21.329  12.493  0.00  0.00     0.089 H 
ATOM     19  C31 MOL d          -4.098  20.434  15.751  0.00  0.00     0.114 A 
BRANCH  14  20
ATOM     20  C24 MOL d          -6.215  21.425  12.175  0.00  0.00    -0.026 A 
ATOM     21  C25 MOL d          -6.189  22.733  11.735  0.00  0.00    -0.069 A 
ATOM     22  C26 MOL d          -6.940  23.031  10.601  0.00  0.00    -0.045 A 
ATOM     23  H18 MOL d          -5.611  23.493  12.248  0.00  0.00     0.085 H 
ATOM     24  C29 MOL d          -7.631  21.979  10.003  0.00  0.00     0.116 A 
ATOM     25  H19 MOL d          -6.985  24.037  10.202  0.00  0.00     0.088 H 
ATOM     26  C28 MOL d          -7.696  20.682  10.445  0.00  0.00    -0.045 A 
ATOM     27  F30 MOL d          -8.430  22.188   8.876  0.00  0.00    -0.206 F 
ATOM     28  C27 MOL d          -6.913  20.401  11.572  0.00  0.00    -0.069 A 
ATOM     29  H21 MOL d          -8.308  19.931   9.959  0.00  0.00     0.088 H 
ATOM     30  H20 MOL d          -6.856  19.393  11.964  0.00  0.00     0.085 H 
ENDBRANCH  14  20
BRANCH  17  31
ATOM     31  O34 MOL d          -1.995  20.710  14.586  0.00  0.00    -0.358 OA
ATOM     32  H23 MOL d          -1.673  21.377  13.992  0.00  0.00     0.217 HD
ENDBRANCH  17  31
BRANCH  19  33
ATOM     33  O32 MOL d          -3.362  20.085  16.839  0.00  0.00    -0.357 OA
ATOM     34  H22 MOL d          -3.901  20.152  17.619  0.00  0.00     0.217 HD
ENDBRANCH  19  33
ENDBRANCH   9  12
ENDBRANCH   5   8
ENDBRANCH   2   5
BRANCH   1  35
ATOM     35  C6  MOL d          -5.501  15.133  18.738  0.00  0.00     0.084 C 
ATOM     36  C4  MOL d          -4.053  14.881  18.348  0.00  0.00     0.092 C 
ATOM     37  C2  MOL d          -4.281  14.391  16.917  0.00  0.00     0.105 C 
ATOM     38  H4  MOL d          -3.412  15.774  18.395  0.00  0.00     0.091 H 
ATOM     39  C1  MOL d          -5.536  13.519  17.075  0.00  0.00     0.140 C 
ATOM     40  H2  MOL d          -4.450  15.235  16.233  0.00  0.00     0.093 H 
ATOM     41  O13 MOL d          -6.356  14.149  18.065  0.00  0.00    -0.352 OA
ATOM     42  H1  MOL d          -5.246  12.510  17.407  0.00  0.00     0.123 H 
ATOM     43  H6  MOL d          -5.625  15.050  19.828  0.00  0.00     0.093 H 
BRANCH  36  44
ATOM     44  O5  MOL d          -3.571  13.850  19.223  0.00  0.00    -0.390 OA
ATOM     45  H5  MOL d          -2.796  14.159  19.677  0.00  0.00     0.210 HD
ENDBRANCH  36  44
BRANCH  37  46
ATOM     46  O3  MOL d          -3.212  13.572  16.419  0.00  0.00    -0.388 OA
ATOM     47  H3  MOL d          -3.568  12.757  16.085  0.00  0.00     0.210 HD
ENDBRANCH  37  46
BRANCH  39  48
ATOM     48  N10 MOL d          -6.299  13.414  15.817  0.00  0.00    -0.294 N 
ATOM     49  C9  MOL d          -7.691  13.632  15.656  0.00  0.00     0.070 A 
ATOM     50  N8  MOL d          -8.077  13.363  14.452  0.00  0.00    -0.238 NA
ATOM     51  H10 MOL d          -8.353  13.982  16.449  0.00  0.00     0.144 H 
ATOM     52  C12 MOL d          -6.981  12.928  13.787  0.00  0.00     0.128 A 
ATOM     53  C11 MOL d          -5.854  12.968  14.587  0.00  0.00     0.165 A 
ATOM     54  C35 MOL d          -6.806  12.535  12.447  0.00  0.00     0.064 A 
ATOM     55  N40 MOL d          -4.617  12.584  14.225  0.00  0.00    -0.222 NA
ATOM     56  C39 MOL d          -4.513  12.210  12.949  0.00  0.00     0.089 A 
ATOM     57  N38 MOL d          -5.571  12.175  12.073  0.00  0.00    -0.244 NA
ATOM     58  H24 MOL d          -3.537  11.916  12.582  0.00  0.00     0.146 H 
BRANCH  54  59
ATOM     59  C7  MOL d          -7.920  12.535  11.419  0.00  0.00    -0.033 C 
ATOM     60  H7  MOL d          -8.846  12.908  11.882  0.00  0.00     0.035 H 
ATOM     61  H8  MOL d          -8.080  11.511  11.051  0.00  0.00     0.035 H 
ATOM     62  H9  MOL d          -7.642  13.188  10.578  0.00  0.00     0.035 H 
ENDBRANCH  54  59
ENDBRANCH  39  48
ENDBRANCH   1  35
TORSDOF 11
ENDMDL
MODEL 5
REMARK VINA RESULT:      -8.2      4.126     10.057
REMARK  11 active torsions:
REMARK  status: ('A' for Active; 'I' for Inactive)
REMARK    1  A    between atoms: N10_10  and  C1_1 
REMARK    2  A    between atoms: C2_2  and  O3_3 
REMARK    3  A    between atoms: C4_4  and  O5_5 
REMARK    4  A    between atoms: C6_6  and  C14_14 
REMARK    5  A    between atoms: C35_35  and  C7_7 
REMARK    6  A    between atoms: C15_15  and  C16_16 
REMARK    7  A    between atoms: C16_16  and  N17_17 
REMARK       I    between atoms: N17_17  and  C18_18 
REMARK    8  A    between atoms: C18_18  and  C20_20 
REMARK    9  A    between atoms: C22_22  and  C24_24 
REMARK   10  A    between atoms: C31_31  and  O32_32 
REMARK   11  A    between atoms: C33_33  and  O34_34 
ROOT
ATOM      1  C14 MOL d          -4.328  13.850  13.615  0.00  0.00    -0.075 C 
ATOM      2  C15 MOL d          -3.185  14.457  13.417  0.00  0.00    -0.087 C 
ATOM      3  H11 MOL d          -4.880  13.990  14.543  0.00  0.00     0.080 H 
ATOM      4  H12 MOL d          -2.673  14.332  12.464  0.00  0.00     0.079 H 
ENDROOT
BRANCH   2   5
ATOM      5  C16 MOL d          -2.577  15.308  14.463  0.00  0.00     0.010 C 
ATOM      6  H13 MOL d          -1.649  15.780  14.107  0.00  0.00     0.070 H 
ATOM      7  H14 MOL d          -2.369  14.734  15.378  0.00  0.00     0.070 H 
BRANCH   5   8
ATOM      8  N17 MOL d          -3.629  16.299  14.683  0.00  0.00    -0.353 N 
ATOM      9  C18 MOL d          -3.223  17.587  14.476  0.00  0.00     0.254 C 
ATOM     10  O19 MOL d          -2.043  17.841  14.216  0.00  0.00    -0.268 OA
ATOM     11  H15 MOL d          -4.559  16.057  14.959  0.00  0.00     0.163 HD
BRANCH   9  12
ATOM     12  C20 MOL d          -4.193  18.647  14.763  0.00  0.00     0.068 A 
ATOM     13  C21 MOL d          -4.564  19.486  13.695  0.00  0.00    -0.054 A 
ATOM     14  C22 MOL d          -5.510  20.495  13.877  0.00  0.00    -0.022 A 
ATOM     15  H16 MOL d          -4.109  19.347  12.721  0.00  0.00     0.086 H 
ATOM     16  C23 MOL d          -6.116  20.724  15.129  0.00  0.00    -0.037 A 
ATOM     17  C33 MOL d          -5.726  19.876  16.171  0.00  0.00     0.100 A 
ATOM     18  H17 MOL d          -6.845  21.513  15.275  0.00  0.00     0.089 H 
ATOM     19  C31 MOL d          -4.827  18.824  15.991  0.00  0.00     0.114 A 
BRANCH  14  20
ATOM     20  C24 MOL d          -5.845  21.352  12.700  0.00  0.00    -0.026 A 
ATOM     21  C25 MOL d          -6.737  20.863  11.768  0.00  0.00    -0.069 A 
ATOM     22  C26 MOL d          -7.012  21.675  10.672  0.00  0.00    -0.045 A 
ATOM     23  H18 MOL d          -7.203  19.891  11.885  0.00  0.00     0.085 H 
ATOM     24  C29 MOL d          -6.378  22.916  10.626  0.00  0.00     0.116 A 
ATOM     25  H19 MOL d          -7.689  21.357   9.888  0.00  0.00     0.088 H 
ATOM     26  C28 MOL d          -5.464  23.404  11.523  0.00  0.00    -0.045 A 
ATOM     27  F30 MOL d          -6.575  23.787   9.552  0.00  0.00    -0.206 F 
ATOM     28  C27 MOL d          -5.223  22.580  12.630  0.00  0.00    -0.069 A 
ATOM     29  H21 MOL d          -4.964  24.356  11.386  0.00  0.00     0.088 H 
ATOM     30  H20 MOL d          -4.556  22.903  13.421  0.00  0.00     0.085 H 
ENDBRANCH  14  20
BRANCH  17  31
ATOM     31  O34 MOL d          -6.316  20.085  17.423  0.00  0.00    -0.358 OA
ATOM     32  H23 MOL d          -7.254  19.953  17.355  0.00  0.00     0.217 HD
ENDBRANCH  17  31
BRANCH  19  33
ATOM     33  O32 MOL d          -4.517  18.088  17.090  0.00  0.00    -0.357 OA
ATOM     34  H22 MOL d          -3.719  18.426  17.481  0.00  0.00     0.217 HD
ENDBRANCH  19  33
ENDBRANCH   9  12
ENDBRANCH   5   8
ENDBRANCH   2   5
BRANCH   1  35
ATOM     35  C6  MOL d          -4.861  12.957  12.530  0.00  0.00     0.084 C 
ATOM     36  C4  MOL d          -6.363  12.845  12.739  0.00  0.00     0.092 C 
ATOM     37  C2  MOL d          -6.371  11.691  13.744  0.00  0.00     0.105 C 
ATOM     38  H4  MOL d          -6.832  13.758  13.137  0.00  0.00     0.091 H 
ATOM     39  C1  MOL d          -5.277  10.772  13.181  0.00  0.00     0.140 C 
ATOM     40  H2  MOL d          -6.130  12.048  14.756  0.00  0.00     0.093 H 
ATOM     41  O13 MOL d          -4.264  11.621  12.634  0.00  0.00    -0.352 OA
ATOM     42  H1  MOL d          -5.701  10.130  12.394  0.00  0.00     0.123 H 
ATOM     43  H6  MOL d          -4.643  13.387  11.542  0.00  0.00     0.093 H 
BRANCH  36  44
ATOM     44  O5  MOL d          -6.924  12.485  11.468  0.00  0.00    -0.390 OA
ATOM     45  H5  MOL d          -7.618  11.850  11.599  0.00  0.00     0.210 HD
ENDBRANCH  36  44
BRANCH  37  46
ATOM     46  O3  MOL d          -7.612  10.969  13.769  0.00  0.00    -0.388 OA
ATOM     47  H3  MOL d          -7.579  10.264  13.133  0.00  0.00     0.210 HD
ENDBRANCH  37  46
BRANCH  39  48
ATOM     48  N10 MOL d          -4.676   9.922  14.227  0.00  0.00    -0.294 N 
ATOM     49  C9  MOL d          -4.885   8.531  14.404  0.00  0.00     0.070 A 
ATOM     50  N8  MOL d          -4.298   8.096  15.472  0.00  0.00    -0.238 NA
ATOM     51  H10 MOL d          -5.466   7.907  13.726  0.00  0.00     0.144 H 
ATOM     52  C12 MOL d          -3.719   9.171  16.056  0.00  0.00     0.128 A 
ATOM     53  C11 MOL d          -3.906  10.317  15.304  0.00  0.00     0.165 A 
ATOM     54  C35 MOL d          -2.926   9.281  17.212  0.00  0.00     0.064 A 
ATOM     55  N40 MOL d          -3.469  11.548  15.625  0.00  0.00    -0.222 NA
ATOM     56  C39 MOL d          -2.734  11.595  16.737  0.00  0.00     0.089 A 
ATOM     57  N38 MOL d          -2.466  10.501  17.523  0.00  0.00    -0.244 NA
ATOM     58  H24 MOL d          -2.324  12.551  17.037  0.00  0.00     0.146 H 
BRANCH  54  59
ATOM     59  C7  MOL d          -2.544   8.102  18.085  0.00  0.00    -0.033 C 
ATOM     60  H7  MOL d          -2.085   7.319  17.463  0.00  0.00     0.035 H 
ATOM     61  H8  MOL d          -3.444   7.702  18.574  0.00  0.00     0.035 H 
ATOM     62  H9  MOL d          -1.825   8.430  18.850  0.00  0.00     0.035 H 
ENDBRANCH  54  59
ENDBRANCH  39  48
ENDBRANCH   1  35
TORSDOF 11
ENDMDL
MODEL 6
REMARK VINA RESULT:      -8.1      4.727      8.174
REMARK  11 active torsions:
REMARK  status: ('A' for Active; 'I' for Inactive)
REMARK    1  A    between atoms: N10_10  and  C1_1 
REMARK    2  A    between atoms: C2_2  and  O3_3 
REMARK    3  A    between atoms: C4_4  and  O5_5 
REMARK    4  A    between atoms: C6_6  and  C14_14 
REMARK    5  A    between atoms: C35_35  and  C7_7 
REMARK    6  A    between atoms: C15_15  and  C16_16 
REMARK    7  A    between atoms: C16_16  and  N17_17 
REMARK       I    between atoms: N17_17  and  C18_18 
REMARK    8  A    between atoms: C18_18  and  C20_20 
REMARK    9  A    between atoms: C22_22  and  C24_24 
REMARK   10  A    between atoms: C31_31  and  O32_32 
REMARK   11  A    between atoms: C33_33  and  O34_34 
ROOT
ATOM      1  C14 MOL d          -2.995  13.233  16.320  0.00  0.00    -0.075 C 
ATOM      2  C15 MOL d          -3.044  12.553  15.203  0.00  0.00    -0.087 C 
ATOM      3  H11 MOL d          -2.345  14.102  16.415  0.00  0.00     0.080 H 
ATOM      4  H12 MOL d          -3.732  11.713  15.119  0.00  0.00     0.079 H 
ENDROOT
BRANCH   2   5
ATOM      5  C16 MOL d          -2.185  12.905  14.051  0.00  0.00     0.010 C 
ATOM      6  H13 MOL d          -2.654  12.618  13.098  0.00  0.00     0.070 H 
ATOM      7  H14 MOL d          -1.194  12.432  14.129  0.00  0.00     0.070 H 
BRANCH   5   8
ATOM      8  N17 MOL d          -2.094  14.358  14.185  0.00  0.00    -0.353 N 
ATOM      9  C18 MOL d          -0.850  14.858  13.922  0.00  0.00     0.254 C 
ATOM     10  O19 MOL d           0.095  14.100  13.684  0.00  0.00    -0.268 OA
ATOM     11  H15 MOL d          -2.870  14.932  14.446  0.00  0.00     0.163 HD
BRANCH   9  12
ATOM     12  C20 MOL d          -0.653  16.295  14.122  0.00  0.00     0.068 A 
ATOM     13  C21 MOL d          -1.807  17.088  14.272  0.00  0.00    -0.054 A 
ATOM     14  C22 MOL d          -1.703  18.460  14.505  0.00  0.00    -0.022 A 
ATOM     15  H16 MOL d          -2.786  16.628  14.207  0.00  0.00     0.086 H 
ATOM     16  C23 MOL d          -0.453  19.105  14.582  0.00  0.00    -0.037 A 
ATOM     17  C33 MOL d           0.676  18.292  14.426  0.00  0.00     0.100 A 
ATOM     18  H17 MOL d          -0.369  20.172  14.752  0.00  0.00     0.089 H 
ATOM     19  C31 MOL d           0.590  16.910  14.254  0.00  0.00     0.114 A 
BRANCH  14  20
ATOM     20  C24 MOL d          -2.972  19.238  14.643  0.00  0.00    -0.026 A 
ATOM     21  C25 MOL d          -3.095  20.100  15.713  0.00  0.00    -0.069 A 
ATOM     22  C26 MOL d          -4.296  20.794  15.827  0.00  0.00    -0.045 A 
ATOM     23  H18 MOL d          -2.294  20.232  16.431  0.00  0.00     0.085 H 
ATOM     24  C29 MOL d          -5.255  20.571  14.840  0.00  0.00     0.116 A 
ATOM     25  H19 MOL d          -4.478  21.478  16.647  0.00  0.00     0.088 H 
ATOM     26  C28 MOL d          -5.164  19.693  13.790  0.00  0.00    -0.045 A 
ATOM     27  F30 MOL d          -6.499  21.204  14.886  0.00  0.00    -0.206 F 
ATOM     28  C27 MOL d          -3.937  19.025  13.683  0.00  0.00    -0.069 A 
ATOM     29  H21 MOL d          -5.980  19.527  13.097  0.00  0.00     0.088 H 
ATOM     30  H20 MOL d          -3.749  18.351  12.855  0.00  0.00     0.085 H 
ENDBRANCH  14  20
BRANCH  17  31
ATOM     31  O34 MOL d           1.928  18.911  14.500  0.00  0.00    -0.358 OA
ATOM     32  H23 MOL d           1.830  19.841  14.328  0.00  0.00     0.217 HD
ENDBRANCH  17  31
BRANCH  19  33
ATOM     33  O32 MOL d           1.761  16.239  14.095  0.00  0.00    -0.357 OA
ATOM     34  H22 MOL d           1.580  15.357  13.791  0.00  0.00     0.217 HD
ENDBRANCH  19  33
ENDBRANCH   9  12
ENDBRANCH   5   8
ENDBRANCH   2   5
BRANCH   1  35
ATOM     35  C6  MOL d          -3.856  12.787  17.468  0.00  0.00     0.084 C 
ATOM     36  C4  MOL d          -5.081  12.111  16.873  0.00  0.00     0.092 C 
ATOM     37  C2  MOL d          -5.949  13.354  16.658  0.00  0.00     0.105 C 
ATOM     38  H4  MOL d          -4.885  11.563  15.940  0.00  0.00     0.091 H 
ATOM     39  C1  MOL d          -5.660  14.167  17.929  0.00  0.00     0.140 C 
ATOM     40  H2  MOL d          -5.647  13.892  15.747  0.00  0.00     0.093 H 
ATOM     41  O13 MOL d          -4.286  13.946  18.259  0.00  0.00    -0.352 OA
ATOM     42  H1  MOL d          -6.309  13.818  18.746  0.00  0.00     0.123 H 
ATOM     43  H6  MOL d          -3.302  12.084  18.107  0.00  0.00     0.093 H 
BRANCH  36  44
ATOM     44  O5  MOL d          -5.596  11.239  17.889  0.00  0.00    -0.390 OA
ATOM     45  H5  MOL d          -4.918  10.628  18.153  0.00  0.00     0.210 HD
ENDBRANCH  36  44
BRANCH  37  46
ATOM     46  O3  MOL d          -7.354  13.064  16.606  0.00  0.00    -0.388 OA
ATOM     47  H3  MOL d          -7.724  13.438  15.815  0.00  0.00     0.210 HD
ENDBRANCH  37  46
BRANCH  39  48
ATOM     48  N10 MOL d          -5.876  15.612  17.721  0.00  0.00    -0.294 N 
ATOM     49  C9  MOL d          -5.015  16.501  17.030  0.00  0.00     0.070 A 
ATOM     50  N8  MOL d          -5.432  17.722  17.109  0.00  0.00    -0.238 NA
ATOM     51  H10 MOL d          -4.115  16.193  16.498  0.00  0.00     0.144 H 
ATOM     52  C12 MOL d          -6.547  17.697  17.875  0.00  0.00     0.128 A 
ATOM     53  C11 MOL d          -6.873  16.408  18.253  0.00  0.00     0.165 A 
ATOM     54  C35 MOL d          -7.430  18.724  18.260  0.00  0.00     0.064 A 
ATOM     55  N40 MOL d          -7.912  16.054  19.031  0.00  0.00    -0.222 NA
ATOM     56  C39 MOL d          -8.706  17.068  19.376  0.00  0.00     0.089 A 
ATOM     57  N38 MOL d          -8.481  18.373  19.013  0.00  0.00    -0.244 NA
ATOM     58  H24 MOL d          -9.580  16.849  19.977  0.00  0.00     0.146 H 
BRANCH  54  59
ATOM     59  C7  MOL d          -7.269  20.171  17.840  0.00  0.00    -0.033 C 
ATOM     60  H7  MOL d          -7.274  20.237  16.742  0.00  0.00     0.035 H 
ATOM     61  H8  MOL d          -6.317  20.562  18.227  0.00  0.00     0.035 H 
ATOM     62  H9  MOL d          -8.102  20.765  18.246  0.00  0.00     0.035 H 
ENDBRANCH  54  59
ENDBRANCH  39  48
ENDBRANCH   1  35
TORSDOF 11
ENDMDL
MODEL 7
REMARK VINA RESULT:      -7.9      3.734      8.965
REMARK  11 active torsions:
REMARK  status: ('A' for Active; 'I' for Inactive)
REMARK    1  A    between atoms: N10_10  and  C1_1 
REMARK    2  A    between atoms: C2_2  and  O3_3 
REMARK    3  A    between atoms: C4_4  and  O5_5 
REMARK    4  A    between atoms: C6_6  and  C14_14 
REMARK    5  A    between atoms: C35_35  and  C7_7 
REMARK    6  A    between atoms: C15_15  and  C16_16 
REMARK    7  A    between atoms: C16_16  and  N17_17 
REMARK       I    between atoms: N17_17  and  C18_18 
REMARK    8  A    between atoms: C18_18  and  C20_20 
REMARK    9  A    between atoms: C22_22  and  C24_24 
REMARK   10  A    between atoms: C31_31  and  O32_32 
REMARK   11  A    between atoms: C33_33  and  O34_34 
ROOT
ATOM      1  C14 MOL d          -8.125  17.281  18.636  0.00  0.00    -0.075 C 
ATOM      2  C15 MOL d          -8.178  18.345  17.876  0.00  0.00    -0.087 C 
ATOM      3  H11 MOL d          -7.653  17.319  19.617  0.00  0.00     0.080 H 
ATOM      4  H12 MOL d          -8.690  18.292  16.917  0.00  0.00     0.079 H 
ENDROOT
BRANCH   2   5
ATOM      5  C16 MOL d          -7.555  19.620  18.297  0.00  0.00     0.010 C 
ATOM      6  H13 MOL d          -6.816  19.462  19.096  0.00  0.00     0.070 H 
ATOM      7  H14 MOL d          -8.312  20.344  18.636  0.00  0.00     0.070 H 
BRANCH   5   8
ATOM      8  N17 MOL d          -6.917  20.058  17.057  0.00  0.00    -0.353 N 
ATOM      9  C18 MOL d          -5.610  19.675  16.946  0.00  0.00     0.254 C 
ATOM     10  O19 MOL d          -5.045  19.091  17.876  0.00  0.00    -0.268 OA
ATOM     11  H15 MOL d          -7.392  20.589  16.355  0.00  0.00     0.163 HD
BRANCH   9  12
ATOM     12  C20 MOL d          -4.872  20.150  15.774  0.00  0.00     0.068 A 
ATOM     13  C21 MOL d          -5.628  20.529  14.648  0.00  0.00    -0.054 A 
ATOM     14  C22 MOL d          -5.003  21.029  13.506  0.00  0.00    -0.022 A 
ATOM     15  H16 MOL d          -6.707  20.431  14.669  0.00  0.00     0.086 H 
ATOM     16  C23 MOL d          -3.602  21.158  13.425  0.00  0.00    -0.037 A 
ATOM     17  C33 MOL d          -2.877  20.772  14.559  0.00  0.00     0.100 A 
ATOM     18  H17 MOL d          -3.113  21.537  12.535  0.00  0.00     0.089 H 
ATOM     19  C31 MOL d          -3.491  20.328  15.730  0.00  0.00     0.114 A 
BRANCH  14  20
ATOM     20  C24 MOL d          -5.870  21.399  12.346  0.00  0.00    -0.026 A 
ATOM     21  C25 MOL d          -5.816  22.697  11.880  0.00  0.00    -0.069 A 
ATOM     22  C26 MOL d          -6.652  23.017  10.813  0.00  0.00    -0.045 A 
ATOM     23  H18 MOL d          -5.155  23.432  12.323  0.00  0.00     0.085 H 
ATOM     24  C29 MOL d          -7.449  21.995  10.302  0.00  0.00     0.116 A 
ATOM     25  H19 MOL d          -6.681  24.018  10.400  0.00  0.00     0.088 H 
ATOM     26  C28 MOL d          -7.541  20.711  10.774  0.00  0.00    -0.045 A 
ATOM     27  F30 MOL d          -8.336  22.231   9.248  0.00  0.00    -0.206 F 
ATOM     28  C27 MOL d          -6.673  20.406  11.830  0.00  0.00    -0.069 A 
ATOM     29  H21 MOL d          -8.234  19.987  10.361  0.00  0.00     0.088 H 
ATOM     30  H20 MOL d          -6.633  19.402  12.236  0.00  0.00     0.085 H 
ENDBRANCH  14  20
BRANCH  17  31
ATOM     31  O34 MOL d          -1.485  20.893  14.501  0.00  0.00    -0.358 OA
ATOM     32  H23 MOL d          -1.194  21.508  15.165  0.00  0.00     0.217 HD
ENDBRANCH  17  31
BRANCH  19  33
ATOM     33  O32 MOL d          -2.672  19.964  16.751  0.00  0.00    -0.357 OA
ATOM     34  H22 MOL d          -1.923  19.494  16.402  0.00  0.00     0.217 HD
ENDBRANCH  19  33
ENDBRANCH   9  12
ENDBRANCH   5   8
ENDBRANCH   2   5
BRANCH   1  35
ATOM     35  C6  MOL d          -8.731  16.005  18.122  0.00  0.00     0.084 C 
ATOM     36  C4  MOL d          -8.548  14.954  19.206  0.00  0.00     0.092 C 
ATOM     37  C2  MOL d          -7.142  14.479  18.833  0.00  0.00     0.105 C 
ATOM     38  H4  MOL d          -8.605  15.349  20.231  0.00  0.00     0.091 H 
ATOM     39  C1  MOL d          -7.208  14.464  17.298  0.00  0.00     0.140 C 
ATOM     40  H2  MOL d          -6.379  15.178  19.205  0.00  0.00     0.093 H 
ATOM     41  O13 MOL d          -8.034  15.565  16.908  0.00  0.00    -0.352 OA
ATOM     42  H1  MOL d          -7.652  13.516  16.957  0.00  0.00     0.123 H 
ATOM     43  H6  MOL d          -9.799  16.152  17.906  0.00  0.00     0.093 H 
BRANCH  36  44
ATOM     44  O5  MOL d          -9.554  13.957  18.978  0.00  0.00    -0.390 OA
ATOM     45  H5  MOL d          -9.960  14.106  18.132  0.00  0.00     0.210 HD
ENDBRANCH  36  44
BRANCH  37  46
ATOM     46  O3  MOL d          -6.849  13.152  19.295  0.00  0.00    -0.388 OA
ATOM     47  H3  MOL d          -7.535  12.866  19.886  0.00  0.00     0.210 HD
ENDBRANCH  37  46
BRANCH  39  48
ATOM     48  N10 MOL d          -5.876  14.623  16.685  0.00  0.00    -0.294 N 
ATOM     49  C9  MOL d          -5.052  15.775  16.751  0.00  0.00     0.070 A 
ATOM     50  N8  MOL d          -3.989  15.639  16.027  0.00  0.00    -0.238 NA
ATOM     51  H10 MOL d          -5.285  16.663  17.337  0.00  0.00     0.144 H 
ATOM     52  C12 MOL d          -4.083  14.427  15.433  0.00  0.00     0.128 A 
ATOM     53  C11 MOL d          -5.222  13.753  15.833  0.00  0.00     0.165 A 
ATOM     54  C35 MOL d          -3.201  13.746  14.573  0.00  0.00     0.064 A 
ATOM     55  N40 MOL d          -5.608  12.537  15.408  0.00  0.00    -0.222 NA
ATOM     56  C39 MOL d          -4.741  11.945  14.587  0.00  0.00     0.089 A 
ATOM     57  N38 MOL d          -3.568  12.522  14.167  0.00  0.00    -0.244 NA
ATOM     58  H24 MOL d          -4.975  10.949  14.229  0.00  0.00     0.146 H 
BRANCH  54  59
ATOM     59  C7  MOL d          -1.865  14.304  14.126  0.00  0.00    -0.033 C 
ATOM     60  H7  MOL d          -1.932  14.615  13.073  0.00  0.00     0.035 H 
ATOM     61  H8  MOL d          -1.090  13.530  14.232  0.00  0.00     0.035 H 
ATOM     62  H9  MOL d          -1.604  15.173  14.748  0.00  0.00     0.035 H 
ENDBRANCH  54  59
ENDBRANCH  39  48
ENDBRANCH   1  35
TORSDOF 11
ENDMDL
MODEL 8
REMARK VINA RESULT:      -7.8      3.849      8.992
REMARK  11 active torsions:
REMARK  status: ('A' for Active; 'I' for Inactive)
REMARK    1  A    between atoms: N10_10  and  C1_1 
REMARK    2  A    between atoms: C2_2  and  O3_3 
REMARK    3  A    between atoms: C4_4  and  O5_5 
REMARK    4  A    between atoms: C6_6  and  C14_14 
REMARK    5  A    between atoms: C35_35  and  C7_7 
REMARK    6  A    between atoms: C15_15  and  C16_16 
REMARK    7  A    between atoms: C16_16  and  N17_17 
REMARK       I    between atoms: N17_17  and  C18_18 
REMARK    8  A    between atoms: C18_18  and  C20_20 
REMARK    9  A    between atoms: C22_22  and  C24_24 
REMARK   10  A    between atoms: C31_31  and  O32_32 
REMARK   11  A    between atoms: C33_33  and  O34_34 
ROOT
ATOM      1  C14 MOL d          -2.510  12.973  15.718  0.00  0.00    -0.075 C 
ATOM      2  C15 MOL d          -3.186  14.084  15.574  0.00  0.00    -0.087 C 
ATOM      3  H11 MOL d          -1.643  12.762  15.093  0.00  0.00     0.080 H 
ATOM      4  H12 MOL d          -4.025  14.288  16.238  0.00  0.00     0.079 H 
ENDROOT
BRANCH   2   5
ATOM      5  C16 MOL d          -2.832  15.068  14.527  0.00  0.00     0.010 C 
ATOM      6  H13 MOL d          -2.945  14.641  13.520  0.00  0.00     0.070 H 
ATOM      7  H14 MOL d          -1.804  15.438  14.656  0.00  0.00     0.070 H 
BRANCH   5   8
ATOM      8  N17 MOL d          -3.814  16.123  14.773  0.00  0.00    -0.353 N 
ATOM      9  C18 MOL d          -3.350  17.379  14.500  0.00  0.00     0.254 C 
ATOM     10  O19 MOL d          -2.176  17.557  14.165  0.00  0.00    -0.268 OA
ATOM     11  H15 MOL d          -4.738  15.943  15.110  0.00  0.00     0.163 HD
BRANCH   9  12
ATOM     12  C20 MOL d          -4.242  18.500  14.806  0.00  0.00     0.068 A 
ATOM     13  C21 MOL d          -4.604  19.344  13.739  0.00  0.00    -0.054 A 
ATOM     14  C22 MOL d          -5.479  20.411  13.939  0.00  0.00    -0.022 A 
ATOM     15  H16 MOL d          -4.198  19.163  12.750  0.00  0.00     0.086 H 
ATOM     16  C23 MOL d          -6.020  20.697  15.209  0.00  0.00    -0.037 A 
ATOM     17  C33 MOL d          -5.640  19.843  16.251  0.00  0.00     0.100 A 
ATOM     18  H17 MOL d          -6.692  21.532  15.370  0.00  0.00     0.089 H 
ATOM     19  C31 MOL d          -4.814  18.736  16.054  0.00  0.00     0.114 A 
BRANCH  14  20
ATOM     20  C24 MOL d          -5.809  21.270  12.761  0.00  0.00    -0.026 A 
ATOM     21  C25 MOL d          -6.681  20.772  11.815  0.00  0.00    -0.069 A 
ATOM     22  C26 MOL d          -6.951  21.585  10.718  0.00  0.00    -0.045 A 
ATOM     23  H18 MOL d          -7.136  19.794  11.921  0.00  0.00     0.085 H 
ATOM     24  C29 MOL d          -6.333  22.834  10.686  0.00  0.00     0.116 A 
ATOM     25  H19 MOL d          -7.613  21.261   9.923  0.00  0.00     0.088 H 
ATOM     26  C28 MOL d          -5.437  23.331  11.598  0.00  0.00    -0.045 A 
ATOM     27  F30 MOL d          -6.526  23.707   9.612  0.00  0.00    -0.206 F 
ATOM     28  C27 MOL d          -5.201  22.505  12.705  0.00  0.00    -0.069 A 
ATOM     29  H21 MOL d          -4.949  24.290  11.472  0.00  0.00     0.088 H 
ATOM     30  H20 MOL d          -4.551  22.834  13.506  0.00  0.00     0.085 H 
ENDBRANCH  14  20
BRANCH  17  31
ATOM     31  O34 MOL d          -6.165  20.107  17.520  0.00  0.00    -0.358 OA
ATOM     32  H23 MOL d          -6.238  19.294  18.007  0.00  0.00     0.217 HD
ENDBRANCH  17  31
BRANCH  19  33
ATOM     33  O32 MOL d          -4.505  17.999  17.153  0.00  0.00    -0.357 OA
ATOM     34  H22 MOL d          -3.913  17.298  16.907  0.00  0.00     0.217 HD
ENDBRANCH  19  33
ENDBRANCH   9  12
ENDBRANCH   5   8
ENDBRANCH   2   5
BRANCH   1  35
ATOM     35  C6  MOL d          -2.959  11.993  16.765  0.00  0.00     0.084 C 
ATOM     36  C4  MOL d          -2.672  10.599  16.228  0.00  0.00     0.092 C 
ATOM     37  C2  MOL d          -3.960  10.390  15.429  0.00  0.00     0.105 C 
ATOM     38  H4  MOL d          -1.769  10.534  15.603  0.00  0.00     0.091 H 
ATOM     39  C1  MOL d          -5.016  11.004  16.361  0.00  0.00     0.140 C 
ATOM     40  H2  MOL d          -3.913  10.910  14.461  0.00  0.00     0.093 H 
ATOM     41  O13 MOL d          -4.401  12.126  17.000  0.00  0.00    -0.352 OA
ATOM     42  H1  MOL d          -5.324  10.260  17.111  0.00  0.00     0.123 H 
ATOM     43  H6  MOL d          -2.411  12.162  17.704  0.00  0.00     0.093 H 
BRANCH  36  44
ATOM     44  O5  MOL d          -2.575   9.736  17.370  0.00  0.00    -0.390 OA
ATOM     45  H5  MOL d          -3.323   9.879  17.937  0.00  0.00     0.210 HD
ENDBRANCH  36  44
BRANCH  37  46
ATOM     46  O3  MOL d          -4.280   9.006  15.219  0.00  0.00    -0.388 OA
ATOM     47  H3  MOL d          -5.127   8.816  15.606  0.00  0.00     0.210 HD
ENDBRANCH  37  46
BRANCH  39  48
ATOM     48  N10 MOL d          -6.205  11.466  15.621  0.00  0.00    -0.294 N 
ATOM     49  C9  MOL d          -7.556  11.338  16.033  0.00  0.00     0.070 A 
ATOM     50  N8  MOL d          -8.371  11.751  15.118  0.00  0.00    -0.238 NA
ATOM     51  H10 MOL d          -7.867  10.941  16.998  0.00  0.00     0.144 H 
ATOM     52  C12 MOL d          -7.608  12.128  14.066  0.00  0.00     0.128 A 
ATOM     53  C11 MOL d          -6.260  11.993  14.344  0.00  0.00     0.165 A 
ATOM     54  C35 MOL d          -7.956  12.685  12.821  0.00  0.00     0.064 A 
ATOM     55  N40 MOL d          -5.250  12.267  13.499  0.00  0.00    -0.222 NA
ATOM     56  C39 MOL d          -5.640  12.780  12.331  0.00  0.00     0.089 A 
ATOM     57  N38 MOL d          -6.953  12.984  11.985  0.00  0.00    -0.244 NA
ATOM     58  H24 MOL d          -4.875  13.052  11.613  0.00  0.00     0.146 H 
BRANCH  54  59
ATOM     59  C7  MOL d          -9.381  12.991  12.407  0.00  0.00    -0.033 C 
ATOM     60  H7  MOL d          -9.381  13.806  11.669  0.00  0.00     0.035 H 
ATOM     61  H8  MOL d          -9.962  13.295  13.290  0.00  0.00     0.035 H 
ATOM     62  H9  MOL d          -9.834  12.093  11.961  0.00  0.00     0.035 H 
ENDBRANCH  54  59
ENDBRANCH  39  48
ENDBRANCH   1  35
TORSDOF 11
ENDMDL
MODEL 9
REMARK VINA RESULT:      -7.8      4.753      9.200
REMARK  11 active torsions:
REMARK  status: ('A' for Active; 'I' for Inactive)
REMARK    1  A    between atoms: N10_10  and  C1_1 
REMARK    2  A    between atoms: C2_2  and  O3_3 
REMARK    3  A    between atoms: C4_4  and  O5_5 
REMARK    4  A    between atoms: C6_6  and  C14_14 
REMARK    5  A    between atoms: C35_35  and  C7_7 
REMARK    6  A    between atoms: C15_15  and  C16_16 
REMARK    7  A    between atoms: C16_16  and  N17_17 
REMARK       I    between atoms: N17_17  and  C18_18 
REMARK    8  A    between atoms: C18_18  and  C20_20 
REMARK    9  A    between atoms: C22_22  and  C24_24 
REMARK   10  A    between atoms: C31_31  and  O32_32 
REMARK   11  A    between atoms: C33_33  and  O34_34 
ROOT
ATOM      1  C14 MOL d          -1.031  12.109  15.543  0.00  0.00    -0.075 C 
ATOM      2  C15 MOL d           0.030  12.868  15.438  0.00  0.00    -0.087 C 
ATOM      3  H11 MOL d          -1.564  11.771  14.656  0.00  0.00     0.080 H 
ATOM      4  H12 MOL d           0.569  13.160  16.339  0.00  0.00     0.079 H 
ENDROOT
BRANCH   2   5
ATOM      5  C16 MOL d           0.511  13.338  14.120  0.00  0.00     0.010 C 
ATOM      6  H13 MOL d          -0.201  13.089  13.320  0.00  0.00     0.070 H 
ATOM      7  H14 MOL d           1.497  12.913  13.878  0.00  0.00     0.070 H 
BRANCH   5   8
ATOM      8  N17 MOL d           0.591  14.782  14.334  0.00  0.00    -0.353 N 
ATOM      9  C18 MOL d          -0.571  15.444  14.055  0.00  0.00     0.254 C 
ATOM     10  O19 MOL d          -1.540  14.842  13.584  0.00  0.00    -0.268 OA
ATOM     11  H15 MOL d           1.419  15.242  14.655  0.00  0.00     0.163 HD
BRANCH   9  12
ATOM     12  C20 MOL d          -0.547  16.905  14.157  0.00  0.00     0.068 A 
ATOM     13  C21 MOL d          -1.777  17.554  14.382  0.00  0.00    -0.054 A 
ATOM     14  C22 MOL d          -1.834  18.940  14.529  0.00  0.00    -0.022 A 
ATOM     15  H16 MOL d          -2.688  16.971  14.441  0.00  0.00     0.086 H 
ATOM     16  C23 MOL d          -0.678  19.742  14.444  0.00  0.00    -0.037 A 
ATOM     17  C33 MOL d           0.528  19.069  14.218  0.00  0.00     0.100 A 
ATOM     18  H17 MOL d          -0.721  20.820  14.548  0.00  0.00     0.089 H 
ATOM     19  C31 MOL d           0.610  17.679  14.129  0.00  0.00     0.114 A 
BRANCH  14  20
ATOM     20  C24 MOL d          -3.175  19.559  14.754  0.00  0.00    -0.026 A 
ATOM     21  C25 MOL d          -3.391  20.238  15.936  0.00  0.00    -0.069 A 
ATOM     22  C26 MOL d          -4.657  20.784  16.126  0.00  0.00    -0.045 A 
ATOM     23  H18 MOL d          -2.611  20.341  16.681  0.00  0.00     0.085 H 
ATOM     24  C29 MOL d          -5.583  20.614  15.098  0.00  0.00     0.116 A 
ATOM     25  H19 MOL d          -4.912  21.318  17.034  0.00  0.00     0.088 H 
ATOM     26  C28 MOL d          -5.398  19.914  13.934  0.00  0.00    -0.045 A 
ATOM     27  F30 MOL d          -6.885  21.107  15.212  0.00  0.00    -0.206 F 
ATOM     28  C27 MOL d          -4.109  19.395  13.754  0.00  0.00    -0.069 A 
ATOM     29  H21 MOL d          -6.190  19.772  13.207  0.00  0.00     0.088 H 
ATOM     30  H20 MOL d          -3.850  18.872  12.841  0.00  0.00     0.085 H 
ENDBRANCH  14  20
BRANCH  17  31
ATOM     31  O34 MOL d           1.689  19.845  14.130  0.00  0.00    -0.358 OA
ATOM     32  H23 MOL d           1.555  20.542  13.498  0.00  0.00     0.217 HD
ENDBRANCH  17  31
BRANCH  19  33
ATOM     33  O32 MOL d           1.839  17.152  13.887  0.00  0.00    -0.357 OA
ATOM     34  H22 MOL d           2.378  17.798  13.444  0.00  0.00     0.217 HD
ENDBRANCH  19  33
ENDBRANCH   9  12
ENDBRANCH   5   8
ENDBRANCH   2   5
BRANCH   1  35
ATOM     35  C6  MOL d          -1.495  11.714  16.916  0.00  0.00     0.084 C 
ATOM     36  C4  MOL d          -1.557  10.195  16.949  0.00  0.00     0.092 C 
ATOM     37  C2  MOL d          -2.965  10.008  16.379  0.00  0.00     0.105 C 
ATOM     38  H4  MOL d          -0.784   9.699  16.343  0.00  0.00     0.091 H 
ATOM     39  C1  MOL d          -3.738  11.147  17.063  0.00  0.00     0.140 C 
ATOM     40  H2  MOL d          -2.964  10.110  15.284  0.00  0.00     0.093 H 
ATOM     41  O13 MOL d          -2.837  12.252  17.172  0.00  0.00    -0.352 OA
ATOM     42  H1  MOL d          -4.066  10.823  18.062  0.00  0.00     0.123 H 
ATOM     43  H6  MOL d          -0.793  12.086  17.677  0.00  0.00     0.093 H 
BRANCH  36  44
ATOM     44  O5  MOL d          -1.457   9.815  18.329  0.00  0.00    -0.390 OA
ATOM     45  H5  MOL d          -0.592  10.035  18.654  0.00  0.00     0.210 HD
ENDBRANCH  36  44
BRANCH  37  46
ATOM     46  O3  MOL d          -3.566   8.758  16.748  0.00  0.00    -0.388 OA
ATOM     47  H3  MOL d          -4.500   8.795  16.580  0.00  0.00     0.210 HD
ENDBRANCH  37  46
BRANCH  39  48
ATOM     48  N10 MOL d          -4.915  11.564  16.278  0.00  0.00    -0.294 N 
ATOM     49  C9  MOL d          -6.273  11.442  16.667  0.00  0.00     0.070 A 
ATOM     50  N8  MOL d          -7.073  11.806  15.718  0.00  0.00    -0.238 NA
ATOM     51  H10 MOL d          -6.602  11.087  17.643  0.00  0.00     0.144 H 
ATOM     52  C12 MOL d          -6.291  12.142  14.665  0.00  0.00     0.128 A 
ATOM     53  C11 MOL d          -4.948  12.032  14.978  0.00  0.00     0.165 A 
ATOM     54  C35 MOL d          -6.617  12.638  13.390  0.00  0.00     0.064 A 
ATOM     55  N40 MOL d          -3.923  12.277  14.141  0.00  0.00    -0.222 NA
ATOM     56  C39 MOL d          -4.292  12.732  12.944  0.00  0.00     0.089 A 
ATOM     57  N38 MOL d          -5.599  12.908  12.561  0.00  0.00    -0.244 NA
ATOM     58  H24 MOL d          -3.514  12.978  12.230  0.00  0.00     0.146 H 
BRANCH  54  59
ATOM     59  C7  MOL d          -8.036  12.912  12.933  0.00  0.00    -0.033 C 
ATOM     60  H7  MOL d          -8.049  13.048  11.841  0.00  0.00     0.035 H 
ATOM     61  H8  MOL d          -8.408  13.825  13.421  0.00  0.00     0.035 H 
ATOM     62  H9  MOL d          -8.679  12.062  13.204  0.00  0.00     0.035 H 
ENDBRANCH  54  59
ENDBRANCH  39  48
ENDBRANCH   1  35
TORSDOF 11
ENDMDL
MODEL 10
REMARK VINA RESULT:      -7.7      4.549      9.471
REMARK  11 active torsions:
REMARK  status: ('A' for Active; 'I' for Inactive)
REMARK    1  A    between atoms: N10_10  and  C1_1 
REMARK    2  A    between atoms: C2_2  and  O3_3 
REMARK    3  A    between atoms: C4_4  and  O5_5 
REMARK    4  A    between atoms: C6_6  and  C14_14 
REMARK    5  A    between atoms: C35_35  and  C7_7 
REMARK    6  A    between atoms: C15_15  and  C16_16 
REMARK    7  A    between atoms: C16_16  and  N17_17 
REMARK       I    between atoms: N17_17  and  C18_18 
REMARK    8  A    between atoms: C18_18  and  C20_20 
REMARK    9  A    between atoms: C22_22  and  C24_24 
REMARK   10  A    between atoms: C31_31  and  O32_32 
REMARK   11  A    between atoms: C33_33  and  O34_34 
ROOT
ATOM      1  C14 MOL d          -6.146  15.639  17.563  0.00  0.00    -0.075 C 
ATOM      2  C15 MOL d          -6.828  16.290  18.470  0.00  0.00    -0.087 C 
ATOM      3  H11 MOL d          -5.297  16.103  17.064  0.00  0.00     0.080 H 
ATOM      4  H12 MOL d          -7.648  15.789  18.984  0.00  0.00     0.079 H 
ENDROOT
BRANCH   2   5
ATOM      5  C16 MOL d          -6.507  17.693  18.812  0.00  0.00     0.010 C 
ATOM      6  H13 MOL d          -5.981  17.761  19.775  0.00  0.00     0.070 H 
ATOM      7  H14 MOL d          -7.413  18.317  18.844  0.00  0.00     0.070 H 
BRANCH   5   8
ATOM      8  N17 MOL d          -5.637  18.074  17.700  0.00  0.00    -0.353 N 
ATOM      9  C18 MOL d          -5.788  19.373  17.304  0.00  0.00     0.254 C 
ATOM     10  O19 MOL d          -6.656  20.089  17.813  0.00  0.00    -0.268 OA
ATOM     11  H15 MOL d          -4.992  17.443  17.270  0.00  0.00     0.163 HD
BRANCH   9  12
ATOM     12  C20 MOL d          -5.018  19.808  16.137  0.00  0.00     0.068 A 
ATOM     13  C21 MOL d          -3.833  19.104  15.849  0.00  0.00    -0.054 A 
ATOM     14  C22 MOL d          -3.063  19.432  14.733  0.00  0.00    -0.022 A 
ATOM     15  H16 MOL d          -3.516  18.299  16.501  0.00  0.00     0.086 H 
ATOM     16  C23 MOL d          -3.426  20.481  13.866  0.00  0.00    -0.037 A 
ATOM     17  C33 MOL d          -4.607  21.164  14.178  0.00  0.00     0.100 A 
ATOM     18  H17 MOL d          -2.824  20.745  13.003  0.00  0.00     0.089 H 
ATOM     19  C31 MOL d          -5.419  20.809  15.255  0.00  0.00     0.114 A 
BRANCH  14  20
ATOM     20  C24 MOL d          -1.813  18.648  14.499  0.00  0.00    -0.026 A 
ATOM     21  C25 MOL d          -1.925  17.393  13.934  0.00  0.00    -0.069 A 
ATOM     22  C26 MOL d          -0.746  16.678  13.749  0.00  0.00    -0.045 A 
ATOM     23  H18 MOL d          -2.887  16.984  13.649  0.00  0.00     0.085 H 
ATOM     24  C29 MOL d           0.442  17.301  14.129  0.00  0.00     0.116 A 
ATOM     25  H19 MOL d          -0.750  15.680  13.327  0.00  0.00     0.088 H 
ATOM     26  C28 MOL d           0.570  18.531  14.723  0.00  0.00    -0.045 A 
ATOM     27  F30 MOL d           1.671  16.650  14.003  0.00  0.00    -0.206 F 
ATOM     28  C27 MOL d          -0.628  19.242  14.876  0.00  0.00    -0.069 A 
ATOM     29  H21 MOL d           1.526  18.924  15.049  0.00  0.00     0.088 H 
ATOM     30  H20 MOL d          -0.623  20.245  15.285  0.00  0.00     0.085 H 
ENDBRANCH  14  20
BRANCH  17  31
ATOM     31  O34 MOL d          -4.987  22.210  13.330  0.00  0.00    -0.358 OA
ATOM     32  H23 MOL d          -5.462  21.856  12.587  0.00  0.00     0.217 HD
ENDBRANCH  17  31
BRANCH  19  33
ATOM     33  O32 MOL d          -6.529  21.567  15.461  0.00  0.00    -0.357 OA
ATOM     34  H22 MOL d          -6.422  22.406  15.028  0.00  0.00     0.217 HD
ENDBRANCH  19  33
ENDBRANCH   9  12
ENDBRANCH   5   8
ENDBRANCH   2   5
BRANCH   1  35
ATOM     35  C6  MOL d          -6.562  14.234  17.227  0.00  0.00     0.084 C 
ATOM     36  C4  MOL d          -6.252  13.372  18.441  0.00  0.00     0.092 C 
ATOM     37  C2  MOL d          -4.788  13.052  18.129  0.00  0.00     0.105 C 
ATOM     38  H4  MOL d          -6.378  13.888  19.404  0.00  0.00     0.091 H 
ATOM     39  C1  MOL d          -4.828  12.824  16.610  0.00  0.00     0.140 C 
ATOM     40  H2  MOL d          -4.134  13.893  18.402  0.00  0.00     0.093 H 
ATOM     41  O13 MOL d          -5.792  13.739  16.080  0.00  0.00    -0.352 OA
ATOM     42  H1  MOL d          -5.131  11.787  16.400  0.00  0.00     0.123 H 
ATOM     43  H6  MOL d          -7.636  14.201  16.997  0.00  0.00     0.093 H 
BRANCH  36  44
ATOM     44  O5  MOL d          -7.107  12.223  18.351  0.00  0.00    -0.390 OA
ATOM     45  H5  MOL d          -8.007  12.508  18.246  0.00  0.00     0.210 HD
ENDBRANCH  36  44
BRANCH  37  46
ATOM     46  O3  MOL d          -4.322  11.852  18.763  0.00  0.00    -0.388 OA
ATOM     47  H3  MOL d          -3.372  11.857  18.788  0.00  0.00     0.210 HD
ENDBRANCH  37  46
BRANCH  39  48
ATOM     48  N10 MOL d          -3.521  13.085  15.977  0.00  0.00    -0.294 N 
ATOM     49  C9  MOL d          -3.263  13.999  14.925  0.00  0.00     0.070 A 
ATOM     50  N8  MOL d          -2.037  13.923  14.521  0.00  0.00    -0.238 NA
ATOM     51  H10 MOL d          -4.005  14.679  14.508  0.00  0.00     0.144 H 
ATOM     52  C12 MOL d          -1.453  12.945  15.252  0.00  0.00     0.128 A 
ATOM     53  C11 MOL d          -2.329  12.418  16.184  0.00  0.00     0.165 A 
ATOM     54  C35 MOL d          -0.132  12.462  15.264  0.00  0.00     0.064 A 
ATOM     55  N40 MOL d          -2.055  11.422  17.046  0.00  0.00    -0.222 NA
ATOM     56  C39 MOL d          -0.793  10.995  17.004  0.00  0.00     0.089 A 
ATOM     57  N38 MOL d           0.153  11.487  16.139  0.00  0.00    -0.244 NA
ATOM     58  H24 MOL d          -0.496  10.214  17.694  0.00  0.00     0.146 H 
BRANCH  54  59
ATOM     59  C7  MOL d           0.971  13.007  14.379  0.00  0.00    -0.033 C 
ATOM     60  H7  MOL d           0.736  12.790  13.326  0.00  0.00     0.035 H 
ATOM     61  H8  MOL d           1.925  12.530  14.647  0.00  0.00     0.035 H 
ATOM     62  H9  MOL d           1.050  14.095  14.520  0.00  0.00     0.035 H 
ENDBRANCH  54  59
ENDBRANCH  39  48
ENDBRANCH   1  35
TORSDOF 11
ENDMDL
