REMARK  16 active torsions:
REMARK  status: ('A' for Active; 'I' for Inactive)
REMARK    1  A    between atoms: C2_1  and  O2_7 
REMARK    2  A    between atoms: C3_2  and  O3_8 
REMARK    3  A    between atoms: C4_3  and  O4_9 
REMARK    4  A    between atoms: C5_4  and  C6_5 
REMARK    5  A    between atoms: C6_5  and  O6_11 
REMARK    6  A    between atoms: O4_20  and  C1_6 
REMARK    7  A    between atoms: C2_12  and  O2_18 
REMARK    8  A    between atoms: C3_13  and  O3_19 
REMARK    9  A    between atoms: C4_14  and  O4_20 
REMARK   10  A    between atoms: C5_15  and  C6_16 
REMARK   11  A    between atoms: C6_16  and  O6_22 
REMARK   12  A    between atoms: O4_30  and  C1_17 
REMARK   13  A    between atoms: C5_24  and  C6_23 
REMARK   14  A    between atoms: C6_23  and  O6_28 
REMARK   15  A    between atoms: C4_25  and  O4_30 
REMARK   16  A    between atoms: C3_26  and  O3_31 
ROOT
ATOM      1  C2  MOL d          61.801  47.781  36.346  0.00  0.00     0.110 C 
ATOM      2  C3  MOL d          61.167  48.742  37.345  0.00  0.00     0.092 C 
ATOM      3  C4  MOL d          59.665  48.507  37.374  0.00  0.00     0.096 C 
ATOM      4  C5  MOL d          59.432  47.043  37.741  0.00  0.00     0.089 C 
ATOM      5  C1  MOL d          61.416  46.345  36.679  0.00  0.00     0.159 C 
ATOM      6  O5  MOL d          60.006  46.223  36.732  0.00  0.00    -0.348 OA
ATOM      7  H12 MOL d          61.426  48.027  35.341  0.00  0.00     0.094 H 
ATOM      8  H13 MOL d          61.585  48.557  38.346  0.00  0.00     0.091 H 
ATOM      9  H14 MOL d          59.233  48.714  36.384  0.00  0.00     0.091 H 
ATOM     10  H15 MOL d          59.931  46.850  38.702  0.00  0.00     0.090 H 
ATOM     11  H18 MOL d          61.866  46.039  37.635  0.00  0.00     0.133 H 
ENDROOT
BRANCH   3  12
ATOM     12  O4  MOL d          59.073  49.370  38.338  0.00  0.00    -0.348 OA
BRANCH  12  13
ATOM     13  C1  MOL d          57.897  50.056  37.912  0.00  0.00     0.159 C 
ATOM     14  C2  MOL d          57.228  50.589  39.165  0.00  0.00     0.110 C 
ATOM     15  C3  MOL d          56.056  51.480  38.798  0.00  0.00     0.092 C 
ATOM     16  H1  MOL d          57.958  51.191  39.726  0.00  0.00     0.094 H 
ATOM     17  C4  MOL d          56.442  52.532  37.777  0.00  0.00     0.090 C 
ATOM     18  H2  MOL d          55.265  50.855  38.358  0.00  0.00     0.091 H 
ATOM     19  C5  MOL d          57.165  51.877  36.616  0.00  0.00     0.089 C 
ATOM     20  H3  MOL d          57.113  53.264  38.251  0.00  0.00     0.091 H 
ATOM     21  O5  MOL d          58.278  51.121  37.070  0.00  0.00    -0.348 OA
ATOM     22  H4  MOL d          56.455  51.196  36.123  0.00  0.00     0.090 H 
ATOM     23  H7  MOL d          57.220  49.375  37.375  0.00  0.00     0.133 H 
BRANCH  14  24
ATOM     24  O2  MOL d          56.819  49.501  39.981  0.00  0.00    -0.388 OA
ATOM     25  H8  MOL d          57.579  48.984  40.222  0.00  0.00     0.210 HD
ENDBRANCH  14  24
BRANCH  15  26
ATOM     26  O3  MOL d          55.561  52.068  39.982  0.00  0.00    -0.390 OA
ATOM     27  H9  MOL d          55.328  51.385  40.600  0.00  0.00     0.210 HD
ENDBRANCH  15  26
BRANCH  17  28
ATOM     28  O4  MOL d          55.288  53.198  37.316  0.00  0.00    -0.390 OA
ATOM     29  H10 MOL d          54.843  53.604  38.051  0.00  0.00     0.210 HD
ENDBRANCH  17  28
BRANCH  19  30
ATOM     30  C6  MOL d          57.659  52.867  35.590  0.00  0.00     0.043 C 
ATOM     31  H5  MOL d          56.809  53.445  35.198  0.00  0.00     0.078 H 
ATOM     32  H6  MOL d          58.148  52.328  34.765  0.00  0.00     0.078 H 
BRANCH  30  33
ATOM     33  O6  MOL d          58.585  53.743  36.196  0.00  0.00    -0.398 OA
ATOM     34  H11 MOL d          59.318  53.242  36.535  0.00  0.00     0.209 HD
ENDBRANCH  30  33
ENDBRANCH  19  30
ENDBRANCH  12  13
ENDBRANCH   3  12
BRANCH   2  35
ATOM     35  O3  MOL d          61.441  50.079  36.965  0.00  0.00    -0.390 OA
ATOM     36  H20 MOL d          61.043  50.673  37.591  0.00  0.00     0.210 HD
ENDBRANCH   2  35
BRANCH   4  37
ATOM     37  C6  MOL d          57.989  46.636  37.866  0.00  0.00     0.043 C 
ATOM     38  H16 MOL d          57.499  47.253  38.633  0.00  0.00     0.078 H 
ATOM     39  H17 MOL d          57.931  45.576  38.155  0.00  0.00     0.078 H 
BRANCH  37  40
ATOM     40  O6  MOL d          57.335  46.823  36.620  0.00  0.00    -0.398 OA
ATOM     41  H21 MOL d          57.759  46.290  35.958  0.00  0.00     0.209 HD
ENDBRANCH  37  40
ENDBRANCH   4  37
BRANCH   1  42
ATOM     42  O2  MOL d          63.209  47.893  36.343  0.00  0.00    -0.388 OA
ATOM     43  H19 MOL d          63.571  47.305  35.691  0.00  0.00     0.210 HD
ENDBRANCH   1  42
BRANCH   5  44
ATOM     44  O4  MOL d          61.856  45.544  35.647  0.00  0.00    -0.348 OA
BRANCH  44  45
ATOM     45  C4  MOL d          61.744  44.149  35.823  0.00  0.00     0.097 C 
ATOM     46  C5  MOL d          63.124  43.537  36.059  0.00  0.00     0.119 C 
ATOM     47  O5  MOL d          63.007  42.121  36.180  0.00  0.00    -0.195 OA
ATOM     48  H24 MOL d          63.774  43.799  35.211  0.00  0.00     0.094 H 
ATOM     49  N1  MOL d          62.553  41.560  34.940  0.00  0.00     0.042 N 
ATOM     50  C2  MOL d          61.197  42.005  34.667  0.00  0.00     0.135 C 
ATOM     51  H31 MOL d          63.161  41.861  34.194  0.00  0.00     0.315 HD
ATOM     52  H32 MOL d          62.569  40.554  35.002  0.00  0.00     0.315 HD
ATOM     53  C3  MOL d          61.175  43.533  34.544  0.00  0.00     0.088 C 
ATOM     54  H27 MOL d          60.846  41.556  33.726  0.00  0.00     0.084 H 
ATOM     55  H28 MOL d          60.536  41.694  35.490  0.00  0.00     0.084 H 
ATOM     56  H26 MOL d          61.779  43.859  33.684  0.00  0.00     0.089 H 
ATOM     57  H25 MOL d          61.085  43.933  36.677  0.00  0.00     0.091 H 
BRANCH  46  58
ATOM     58  C6  MOL d          63.775  43.977  37.356  0.00  0.00     0.045 C 
ATOM     59  H22 MOL d          63.974  45.058  37.312  0.00  0.00     0.078 H 
ATOM     60  H23 MOL d          64.723  43.435  37.487  0.00  0.00     0.078 H 
BRANCH  58  61
ATOM     61  O6  MOL d          62.919  43.701  38.467  0.00  0.00    -0.398 OA
ATOM     62  H29 MOL d          62.748  42.768  38.509  0.00  0.00     0.209 HD
ENDBRANCH  58  61
ENDBRANCH  46  58
BRANCH  53  63
ATOM     63  O3  MOL d          59.812  43.890  34.342  0.00  0.00    -0.391 OA
ATOM     64  H30 MOL d          59.742  44.834  34.259  0.00  0.00     0.210 HD
ENDBRANCH  53  63
ENDBRANCH  44  45
ENDBRANCH   5  44
TORSDOF 16
