MODEL 1
REMARK VINA RESULT:      -5.0      0.000      0.000
REMARK  4 active torsions:
REMARK  status: ('A' for Active; 'I' for Inactive)
REMARK    1  A    between atoms: CA_3  and  N_2 
REMARK    2  A    between atoms: CA_3  and  C_4 
REMARK    3  A    between atoms: CB_10  and  CA_3 
REMARK    4  A    between atoms: CG_9  and  CB_10 
ROOT
ATOM      1  CB  R2P d         -31.202  -5.176  40.871  0.00  0.00     0.016 C 
ATOM      2  H6  R2P d         -32.231  -5.564  40.842  0.00  0.00     0.046 H 
ATOM      3  H7  R2P d         -31.001  -4.601  39.955  0.00  0.00     0.046 H 
ENDROOT
BRANCH   1   4
ATOM      4  CA  R2P d         -30.194  -6.388  40.953  0.00  0.00     0.187 C 
ATOM      5  H4  R2P d         -29.509  -6.284  40.099  0.00  0.00     0.101 H 
BRANCH   4   6
ATOM      6  N   R2P d         -29.336  -6.549  42.197  0.00  0.00    -0.065 N 
ATOM      7  H1  R2P d         -29.811  -6.144  42.988  0.00  0.00     0.275 HD
ATOM      8  H2  R2P d         -28.454  -6.081  42.060  0.00  0.00     0.275 HD
ATOM      9  H3  R2P d         -29.172  -7.528  42.368  0.00  0.00     0.275 HD
ENDBRANCH   4   6
BRANCH   4  10
ATOM     10  C   R2P d         -30.988  -7.703  40.808  0.00  0.00     0.204 C 
ATOM     11  O   R2P d         -30.235  -8.795  40.714  0.00  0.00    -0.646 OA
ATOM     12  O   R2P d         -32.205  -7.633  40.764  0.00  0.00    -0.646 OA
ENDBRANCH   4  10
ENDBRANCH   1   4
BRANCH   1  13
ATOM     13  CG  R2P d         -31.048  -4.261  42.081  0.00  0.00     0.101 A 
ATOM     14  N1  R2P d         -30.415  -3.095  42.106  0.00  0.00    -0.195 NA
ATOM     15  SE1 R2P d         -30.502  -2.427  43.662  0.00  0.00     0.093 SA
ATOM     16  N2  R2P d         -31.369  -3.661  44.314  0.00  0.00    -0.287 N 
ATOM     17  CD2 R2P d         -31.605  -4.593  43.377  0.00  0.00     0.211 A 
ATOM     18  H5  R2P d         -31.674  -3.710  45.266  0.00  0.00     0.178 HD
ATOM     19  O2  R2P d         -32.284  -5.717  43.587  0.00  0.00    -0.169 OA
ENDBRANCH   1  13
TORSDOF 4
ENDMDL
MODEL 2
REMARK VINA RESULT:      -5.0      1.168      1.181
REMARK  4 active torsions:
REMARK  status: ('A' for Active; 'I' for Inactive)
REMARK    1  A    between atoms: CA_3  and  N_2 
REMARK    2  A    between atoms: CA_3  and  C_4 
REMARK    3  A    between atoms: CB_10  and  CA_3 
REMARK    4  A    between atoms: CG_9  and  CB_10 
ROOT
ATOM      1  CB  R2P d         -31.990  -6.223  42.091  0.00  0.00     0.016 C 
ATOM      2  H6  R2P d         -32.128  -6.917  42.933  0.00  0.00     0.046 H 
ATOM      3  H7  R2P d         -32.960  -6.036  41.607  0.00  0.00     0.046 H 
ENDROOT
BRANCH   1   4
ATOM      4  CA  R2P d         -31.005  -6.873  41.042  0.00  0.00     0.187 C 
ATOM      5  H4  R2P d         -31.517  -6.839  40.069  0.00  0.00     0.101 H 
BRANCH   4   6
ATOM      6  N   R2P d         -29.629  -6.258  40.845  0.00  0.00    -0.065 N 
ATOM      7  H1  R2P d         -28.965  -6.719  41.446  0.00  0.00     0.275 HD
ATOM      8  H2  R2P d         -29.664  -5.276  41.073  0.00  0.00     0.275 HD
ATOM      9  H3  R2P d         -29.346  -6.369  39.884  0.00  0.00     0.275 HD
ENDBRANCH   4   6
BRANCH   4  10
ATOM     10  C   R2P d         -30.764  -8.345  41.436  0.00  0.00     0.204 C 
ATOM     11  O   R2P d         -29.867  -8.977  40.685  0.00  0.00    -0.646 OA
ATOM     12  O   R2P d         -31.416  -8.803  42.359  0.00  0.00    -0.646 OA
ENDBRANCH   4  10
ENDBRANCH   1   4
BRANCH   1  13
ATOM     13  CG  R2P d         -31.430  -4.906  42.616  0.00  0.00     0.101 A 
ATOM     14  N1  R2P d         -30.631  -4.076  41.958  0.00  0.00    -0.195 NA
ATOM     15  SE1 R2P d         -30.266  -2.737  42.931  0.00  0.00     0.093 SA
ATOM     16  N2  R2P d         -31.151  -3.234  44.222  0.00  0.00    -0.287 N 
ATOM     17  CD2 R2P d         -31.733  -4.412  43.945  0.00  0.00     0.211 A 
ATOM     18  H5  R2P d         -31.244  -2.735  45.084  0.00  0.00     0.178 HD
ATOM     19  O2  R2P d         -32.518  -5.081  44.785  0.00  0.00    -0.169 OA
ENDBRANCH   1  13
TORSDOF 4
ENDMDL
MODEL 3
REMARK VINA RESULT:      -4.9      3.048      4.422
REMARK  4 active torsions:
REMARK  status: ('A' for Active; 'I' for Inactive)
REMARK    1  A    between atoms: CA_3  and  N_2 
REMARK    2  A    between atoms: CA_3  and  C_4 
REMARK    3  A    between atoms: CB_10  and  CA_3 
REMARK    4  A    between atoms: CG_9  and  CB_10 
ROOT
ATOM      1  CB  R2P d         -29.734  -5.838  42.250  0.00  0.00     0.016 C 
ATOM      2  H6  R2P d         -29.812  -5.737  43.342  0.00  0.00     0.046 H 
ATOM      3  H7  R2P d         -28.703  -6.110  41.979  0.00  0.00     0.046 H 
ENDROOT
BRANCH   1   4
ATOM      4  CA  R2P d         -30.100  -4.459  41.575  0.00  0.00     0.187 C 
ATOM      5  H4  R2P d         -29.235  -4.172  40.959  0.00  0.00     0.101 H 
BRANCH   4   6
ATOM      6  N   R2P d         -31.329  -4.377  40.684  0.00  0.00    -0.065 N 
ATOM      7  H1  R2P d         -31.244  -3.585  40.067  0.00  0.00     0.275 HD
ATOM      8  H2  R2P d         -32.152  -4.272  41.256  0.00  0.00     0.275 HD
ATOM      9  H3  R2P d         -31.405  -5.222  40.139  0.00  0.00     0.275 HD
ENDBRANCH   4   6
BRANCH   4  10
ATOM     10  C   R2P d         -30.303  -3.405  42.683  0.00  0.00     0.204 C 
ATOM     11  O   R2P d         -29.983  -2.163  42.330  0.00  0.00    -0.646 OA
ATOM     12  O   R2P d         -30.704  -3.789  43.770  0.00  0.00    -0.646 OA
ENDBRANCH   4  10
ENDBRANCH   1   4
BRANCH   1  13
ATOM     13  CG  R2P d         -30.680  -6.938  41.780  0.00  0.00     0.101 A 
ATOM     14  N1  R2P d         -30.404  -7.885  40.893  0.00  0.00    -0.195 NA
ATOM     15  SE1 R2P d         -31.753  -8.890  40.686  0.00  0.00     0.093 SA
ATOM     16  N2  R2P d         -32.710  -8.091  41.755  0.00  0.00    -0.287 N 
ATOM     17  CD2 R2P d         -32.035  -7.058  42.284  0.00  0.00     0.211 A 
ATOM     18  H5  R2P d         -33.654  -8.337  41.979  0.00  0.00     0.178 HD
ATOM     19  O2  R2P d         -32.530  -6.215  43.185  0.00  0.00    -0.169 OA
ENDBRANCH   1  13
TORSDOF 4
ENDMDL
MODEL 4
REMARK VINA RESULT:      -3.6      1.601      1.760
REMARK  4 active torsions:
REMARK  status: ('A' for Active; 'I' for Inactive)
REMARK    1  A    between atoms: CA_3  and  N_2 
REMARK    2  A    between atoms: CA_3  and  C_4 
REMARK    3  A    between atoms: CB_10  and  CA_3 
REMARK    4  A    between atoms: CG_9  and  CB_10 
ROOT
ATOM      1  CB  R2P d         -31.166  -5.040  41.036  0.00  0.00     0.016 C 
ATOM      2  H6  R2P d         -32.188  -5.266  40.699  0.00  0.00     0.046 H 
ATOM      3  H7  R2P d         -30.702  -4.319  40.347  0.00  0.00     0.046 H 
ENDROOT
BRANCH   1   4
ATOM      4  CA  R2P d         -30.317  -6.371  41.040  0.00  0.00     0.187 C 
ATOM      5  H4  R2P d         -29.737  -6.376  40.106  0.00  0.00     0.101 H 
BRANCH   4   6
ATOM      6  N   R2P d         -29.336  -6.615  42.175  0.00  0.00    -0.065 N 
ATOM      7  H1  R2P d         -28.394  -6.506  41.834  0.00  0.00     0.275 HD
ATOM      8  H2  R2P d         -29.458  -7.550  42.530  0.00  0.00     0.275 HD
ATOM      9  H3  R2P d         -29.505  -5.951  42.914  0.00  0.00     0.275 HD
ENDBRANCH   4   6
BRANCH   4  10
ATOM     10  C   R2P d         -31.282  -7.574  41.043  0.00  0.00     0.204 C 
ATOM     11  O   R2P d         -30.710  -8.742  40.766  0.00  0.00    -0.646 OA
ATOM     12  O   R2P d         -32.463  -7.358  41.264  0.00  0.00    -0.646 OA
ENDBRANCH   4  10
ENDBRANCH   1   4
BRANCH   1  13
ATOM     13  CG  R2P d         -31.224  -4.430  42.433  0.00  0.00     0.101 A 
ATOM     14  N1  R2P d         -31.759  -4.989  43.511  0.00  0.00    -0.195 NA
ATOM     15  SE1 R2P d         -31.590  -3.950  44.840  0.00  0.00     0.093 SA
ATOM     16  N2  R2P d         -30.815  -2.761  44.013  0.00  0.00    -0.287 N 
ATOM     17  CD2 R2P d         -30.672  -3.123  42.728  0.00  0.00     0.211 A 
ATOM     18  H5  R2P d         -30.497  -1.898  44.407  0.00  0.00     0.178 HD
ATOM     19  O2  R2P d         -30.083  -2.378  41.797  0.00  0.00    -0.169 OA
ENDBRANCH   1  13
TORSDOF 4
ENDMDL
MODEL 5
REMARK VINA RESULT:      -2.3      3.051      4.776
REMARK  4 active torsions:
REMARK  status: ('A' for Active; 'I' for Inactive)
REMARK    1  A    between atoms: CA_3  and  N_2 
REMARK    2  A    between atoms: CA_3  and  C_4 
REMARK    3  A    between atoms: CB_10  and  CA_3 
REMARK    4  A    between atoms: CG_9  and  CB_10 
ROOT
ATOM      1  CB  R2P d         -30.515  -5.421  42.867  0.00  0.00     0.016 C 
ATOM      2  H6  R2P d         -30.090  -5.820  43.800  0.00  0.00     0.046 H 
ATOM      3  H7  R2P d         -29.707  -5.019  42.239  0.00  0.00     0.046 H 
ENDROOT
BRANCH   1   4
ATOM      4  CA  R2P d         -31.526  -4.259  43.215  0.00  0.00     0.187 C 
ATOM      5  H4  R2P d         -32.214  -4.176  42.362  0.00  0.00     0.101 H 
BRANCH   4   6
ATOM      6  N   R2P d         -32.381  -4.378  44.467  0.00  0.00    -0.065 N 
ATOM      7  H1  R2P d         -33.335  -4.572  44.206  0.00  0.00     0.275 HD
ATOM      8  H2  R2P d         -32.343  -3.513  44.983  0.00  0.00     0.275 HD
ATOM      9  H3  R2P d         -32.032  -5.128  45.043  0.00  0.00     0.275 HD
ENDBRANCH   4   6
BRANCH   4  10
ATOM     10  C   R2P d         -30.737  -2.942  43.359  0.00  0.00     0.204 C 
ATOM     11  O   R2P d         -30.083  -2.567  42.263  0.00  0.00    -0.646 OA
ATOM     12  O   R2P d         -30.753  -2.382  44.443  0.00  0.00    -0.646 OA
ENDBRANCH   4  10
ENDBRANCH   1   4
BRANCH   1  13
ATOM     13  CG  R2P d         -31.220  -6.546  42.117  0.00  0.00     0.101 A 
ATOM     14  N1  R2P d         -32.268  -6.416  41.313  0.00  0.00    -0.195 NA
ATOM     15  SE1 R2P d         -32.710  -7.932  40.696  0.00  0.00     0.093 SA
ATOM     16  N2  R2P d         -31.533  -8.769  41.478  0.00  0.00    -0.287 N 
ATOM     17  CD2 R2P d         -30.791  -7.927  42.215  0.00  0.00     0.211 A 
ATOM     18  H5  R2P d         -31.391  -9.758  41.415  0.00  0.00     0.178 HD
ATOM     19  O2  R2P d         -29.757  -8.294  42.966  0.00  0.00    -0.169 OA
ENDBRANCH   1  13
TORSDOF 4
ENDMDL
