MODEL 1
REMARK VINA RESULT:      -9.7      0.000      0.000
REMARK  8 active torsions:
REMARK  status: ('A' for Active; 'I' for Inactive)
REMARK    1  A    between atoms: CAA_1  and  NH_2 
REMARK    2  A    between atoms: NH_2  and  CAH_3 
REMARK    3  A    between atoms: CAG_4  and  OAC_5 
REMARK    4  A    between atoms: CAK_12  and  CAE_13 
REMARK    5  A    between atoms: CAK_12  and  CB_16 
REMARK    6  A    between atoms: CB_16  and  CA_17 
REMARK    7  A    between atoms: CA_17  and  C_18 
REMARK    8  A    between atoms: CA_17  and  N_21 
ROOT
ATOM      1  CAH DYH d          -9.913  13.174  21.200  0.00  0.00     0.155 C 
ATOM      2  CAG DYH d         -11.118  14.102  21.208  0.00  0.00     0.086 C 
ATOM      3  CAP DYH d         -11.056  15.056  22.396  0.00  0.00     0.046 C 
ATOM      4  OAQ DYH d          -9.896  15.878  22.307  0.00  0.00    -0.381 OA
ATOM      5  CAR DYH d          -8.686  15.099  22.428  0.00  0.00     0.069 C 
ATOM      6  CAS DYH d          -7.532  15.963  21.967  0.00  0.00     0.000 C 
ATOM      7  CAI DYH d          -8.627  13.954  21.426  0.00  0.00     0.095 C 
ATOM      8  OAJ DYH d          -8.273  14.583  20.196  0.00  0.00    -0.359 OA
ATOM      9  CAK DYH d          -7.513  15.780  20.451  0.00  0.00     0.154 C 
ATOM     10  H6  DYH d         -10.029  12.447  22.018  0.00  0.00     0.092 H 
ATOM     11  H7  DYH d         -12.032  13.494  21.281  0.00  0.00     0.089 H 
ATOM     12  H9  DYH d         -11.018  14.474  23.328  0.00  0.00     0.078 H 
ATOM     13  H10 DYH d         -11.954  15.692  22.397  0.00  0.00     0.078 H 
ATOM     14  H11 DYH d          -8.562  14.742  23.461  0.00  0.00     0.087 H 
ATOM     15  H12 DYH d          -6.587  15.622  22.413  0.00  0.00     0.042 H 
ATOM     16  H13 DYH d          -7.703  17.017  22.231  0.00  0.00     0.042 H 
ATOM     17  H14 DYH d          -7.847  13.246  21.740  0.00  0.00     0.090 H 
ENDROOT
BRANCH   9  18
ATOM     18  CAE DYH d          -8.216  16.962  19.793  0.00  0.00     0.209 C 
ATOM     19  OAB DYH d          -9.417  16.832  19.422  0.00  0.00    -0.646 OA
ATOM     20  OAF DYH d          -7.577  18.025  19.628  0.00  0.00    -0.646 OA
ENDBRANCH   9  18
BRANCH   9  21
ATOM     21  CB  DYH d          -6.081  15.596  19.960  0.00  0.00     0.010 C 
ATOM     22  H15 DYH d          -5.603  14.829  20.586  0.00  0.00     0.042 H 
ATOM     23  H16 DYH d          -5.553  16.552  20.084  0.00  0.00     0.042 H 
BRANCH  21  24
ATOM     24  CA  DYH d          -5.940  15.165  18.498  0.00  0.00     0.185 C 
ATOM     25  H17 DYH d          -6.587  15.801  17.875  0.00  0.00     0.101 H 
BRANCH  24  26
ATOM     26  C   DYH d          -4.510  15.372  18.102  0.00  0.00     0.204 C 
ATOM     27  OXT DYH d          -3.938  14.524  17.387  0.00  0.00    -0.646 OA
ATOM     28  O   DYH d          -3.957  16.403  18.518  0.00  0.00    -0.646 OA
ENDBRANCH  24  26
BRANCH  24  29
ATOM     29  N   DYH d          -6.321  13.773  18.285  0.00  0.00    -0.065 N 
ATOM     30  H18 DYH d          -7.047  13.726  17.588  0.00  0.00     0.275 HD
ATOM     31  H19 DYH d          -6.659  13.381  19.150  0.00  0.00     0.275 HD
ATOM     32  H20 DYH d          -5.519  13.249  17.970  0.00  0.00     0.275 HD
ENDBRANCH  24  29
ENDBRANCH  21  24
ENDBRANCH   9  21
BRANCH   1  33
ATOM     33  NH  DYH d          -9.841  12.444  19.931  0.00  0.00    -0.070 N 
ATOM     34  H4  DYH d         -10.775  12.130  19.715  0.00  0.00     0.277 HD
ATOM     35  H5  DYH d          -9.537  13.100  19.229  0.00  0.00     0.277 HD
BRANCH  33  36
ATOM     36  CAA DYH d          -8.966  11.280  19.841  0.00  0.00     0.065 C 
ATOM     37  H1  DYH d          -9.399  10.450  20.418  0.00  0.00     0.067 H 
ATOM     38  H2  DYH d          -7.976  11.533  20.250  0.00  0.00     0.067 H 
ATOM     39  H3  DYH d          -8.861  10.979  18.788  0.00  0.00     0.067 H 
ENDBRANCH  33  36
ENDBRANCH   1  33
BRANCH   2  40
ATOM     40  OAC DYH d         -11.160  14.877  19.997  0.00  0.00    -0.391 OA
ATOM     41  H8  DYH d         -10.553  15.606  20.067  0.00  0.00     0.210 HD
ENDBRANCH   2  40
TORSDOF 8
ENDMDL
