MODEL 1
REMARK VINA RESULT:      -6.1      0.000      0.000
REMARK  3 active torsions:
REMARK  status: ('A' for Active; 'I' for Inactive)
REMARK    1  A    between atoms: N2_1  and  C7_3 
REMARK    2  A    between atoms: C7_3  and  C4_4 
REMARK    3  A    between atoms: C1_9  and  N1_10 
ROOT
ATOM      1  C4  PBZ d          -1.786  14.235  16.566  0.00  0.00     0.007 A 
ATOM      2  C2  PBZ d          -2.233  16.145  17.982  0.00  0.00    -0.057 A 
ATOM      3  C3  PBZ d          -2.467  15.428  16.813  0.00  0.00    -0.067 A 
ATOM      4  C5  PBZ d          -0.872  13.755  17.507  0.00  0.00    -0.067 A 
ATOM      5  C6  PBZ d          -0.646  14.479  18.683  0.00  0.00    -0.057 A 
ATOM      6  C1  PBZ d          -1.319  15.674  18.914  0.00  0.00     0.025 A 
ATOM      7  H5  PBZ d          -2.765  17.072  18.164  0.00  0.00     0.086 H 
ATOM      8  H6  PBZ d          -3.184  15.798  16.089  0.00  0.00     0.085 H 
ATOM      9  H7  PBZ d          -0.341  12.827  17.327  0.00  0.00     0.085 H 
ATOM     10  H8  PBZ d           0.059  14.106  19.419  0.00  0.00     0.086 H 
ENDROOT
BRANCH   1  11
ATOM     11  C7  PBZ d          -2.038  13.487  15.283  0.00  0.00     0.102 C 
ATOM     12  N3  PBZ d          -2.589  14.079  14.221  0.00  0.00    -0.385 N 
ATOM     13  H3  PBZ d          -2.865  15.071  14.269  0.00  0.00     0.157 HD
ATOM     14  H4  PBZ d          -2.736  13.545  13.352  0.00  0.00     0.157 HD
BRANCH  11  15
ATOM     15  N2  PBZ d          -1.695  12.210  15.184  0.00  0.00    -0.385 N 
ATOM     16  H1  PBZ d          -2.315  11.547  14.698  0.00  0.00     0.157 HD
ATOM     17  H2  PBZ d          -0.808  11.882  15.593  0.00  0.00     0.157 HD
ENDBRANCH  11  15
ENDBRANCH   1  11
BRANCH   6  18
ATOM     18  N1  PBZ d          -1.103  16.378  20.057  0.00  0.00    -0.399 N 
ATOM     19  H9  PBZ d          -0.336  17.064  20.103  0.00  0.00     0.156 HD
ATOM     20  H10 PBZ d          -1.707  16.226  20.877  0.00  0.00     0.156 HD
ENDBRANCH   6  18
TORSDOF 3
ENDMDL
MODEL 2
REMARK VINA RESULT:      -6.1      0.039      1.524
REMARK  3 active torsions:
REMARK  status: ('A' for Active; 'I' for Inactive)
REMARK    1  A    between atoms: N2_1  and  C7_3 
REMARK    2  A    between atoms: C7_3  and  C4_4 
REMARK    3  A    between atoms: C1_9  and  N1_10 
ROOT
ATOM      1  C4  PBZ d          -1.798  14.265  16.544  0.00  0.00     0.007 A 
ATOM      2  C2  PBZ d          -0.680  14.458  18.681  0.00  0.00    -0.057 A 
ATOM      3  C3  PBZ d          -0.901  13.771  17.492  0.00  0.00    -0.067 A 
ATOM      4  C5  PBZ d          -2.468  15.466  16.789  0.00  0.00    -0.067 A 
ATOM      5  C6  PBZ d          -2.237  16.155  17.986  0.00  0.00    -0.057 A 
ATOM      6  C1  PBZ d          -1.352  15.647  18.931  0.00  0.00     0.025 A 
ATOM      7  H5  PBZ d           0.016  14.065  19.413  0.00  0.00     0.086 H 
ATOM      8  H6  PBZ d          -0.372  12.844  17.300  0.00  0.00     0.085 H 
ATOM      9  H7  PBZ d          -3.163  15.861  16.058  0.00  0.00     0.085 H 
ATOM     10  H8  PBZ d          -2.751  17.091  18.177  0.00  0.00     0.086 H 
ENDROOT
BRANCH   1  11
ATOM     11  C7  PBZ d          -2.038  13.493  15.273  0.00  0.00     0.102 C 
ATOM     12  N3  PBZ d          -2.581  14.065  14.196  0.00  0.00    -0.385 N 
ATOM     13  H3  PBZ d          -2.860  15.056  14.224  0.00  0.00     0.157 HD
ATOM     14  H4  PBZ d          -2.720  13.514  13.336  0.00  0.00     0.157 HD
BRANCH  11  15
ATOM     15  N2  PBZ d          -1.690  12.216  15.200  0.00  0.00    -0.385 N 
ATOM     16  H1  PBZ d          -1.714  11.627  16.044  0.00  0.00     0.157 HD
ATOM     17  H2  PBZ d          -1.397  11.813  14.298  0.00  0.00     0.157 HD
ENDBRANCH  11  15
ENDBRANCH   1  11
BRANCH   6  18
ATOM     18  N1  PBZ d          -1.124  16.316  20.092  0.00  0.00    -0.399 N 
ATOM     19  H9  PBZ d          -1.905  16.519  20.732  0.00  0.00     0.156 HD
ATOM     20  H10 PBZ d          -0.169  16.618  20.334  0.00  0.00     0.156 HD
ENDBRANCH   6  18
TORSDOF 3
ENDMDL
MODEL 3
REMARK VINA RESULT:      -5.4      0.996      4.215
REMARK  3 active torsions:
REMARK  status: ('A' for Active; 'I' for Inactive)
REMARK    1  A    between atoms: N2_1  and  C7_3 
REMARK    2  A    between atoms: C7_3  and  C4_4 
REMARK    3  A    between atoms: C1_9  and  N1_10 
ROOT
ATOM      1  C4  PBZ d          -1.179  15.368  17.912  0.00  0.00     0.007 A 
ATOM      2  C2  PBZ d          -2.190  14.574  15.862  0.00  0.00    -0.057 A 
ATOM      3  C3  PBZ d          -1.982  15.588  16.792  0.00  0.00    -0.067 A 
ATOM      4  C5  PBZ d          -0.571  14.122  18.091  0.00  0.00    -0.067 A 
ATOM      5  C6  PBZ d          -0.780  13.109  17.148  0.00  0.00    -0.057 A 
ATOM      6  C1  PBZ d          -1.594  13.333  16.042  0.00  0.00     0.025 A 
ATOM      7  H5  PBZ d          -2.817  14.753  14.997  0.00  0.00     0.086 H 
ATOM      8  H6  PBZ d          -2.447  16.556  16.646  0.00  0.00     0.085 H 
ATOM      9  H7  PBZ d           0.059  13.942  18.954  0.00  0.00     0.085 H 
ATOM     10  H8  PBZ d          -0.305  12.143  17.280  0.00  0.00     0.086 H 
ENDROOT
BRANCH   1  11
ATOM     11  C7  PBZ d          -0.986  16.472  18.917  0.00  0.00     0.102 C 
ATOM     12  N3  PBZ d          -1.433  16.367  20.171  0.00  0.00    -0.385 N 
ATOM     13  H3  PBZ d          -1.937  15.519  20.469  0.00  0.00     0.157 HD
ATOM     14  H4  PBZ d          -1.273  17.134  20.840  0.00  0.00     0.157 HD
BRANCH  11  15
ATOM     15  N2  PBZ d          -0.341  17.577  18.570  0.00  0.00    -0.385 N 
ATOM     16  H1  PBZ d          -0.856  18.363  18.148  0.00  0.00     0.157 HD
ATOM     17  H2  PBZ d           0.676  17.650  18.722  0.00  0.00     0.157 HD
ENDBRANCH  11  15
ENDBRANCH   1  11
BRANCH   6  18
ATOM     18  N1  PBZ d          -1.797  12.351  15.124  0.00  0.00    -0.399 N 
ATOM     19  H9  PBZ d          -2.755  12.058  14.886  0.00  0.00     0.156 HD
ATOM     20  H10 PBZ d          -0.992  11.901  14.665  0.00  0.00     0.156 HD
ENDBRANCH   6  18
TORSDOF 3
ENDMDL
MODEL 4
REMARK VINA RESULT:      -5.4      0.995      4.410
REMARK  3 active torsions:
REMARK  status: ('A' for Active; 'I' for Inactive)
REMARK    1  A    between atoms: N2_1  and  C7_3 
REMARK    2  A    between atoms: C7_3  and  C4_4 
REMARK    3  A    between atoms: C1_9  and  N1_10 
ROOT
ATOM      1  C4  PBZ d          -1.199  15.355  17.926  0.00  0.00     0.007 A 
ATOM      2  C2  PBZ d          -0.780  13.102  17.149  0.00  0.00    -0.057 A 
ATOM      3  C3  PBZ d          -0.590  14.110  18.089  0.00  0.00    -0.067 A 
ATOM      4  C5  PBZ d          -2.015  15.583  16.816  0.00  0.00    -0.067 A 
ATOM      5  C6  PBZ d          -2.207  14.563  15.877  0.00  0.00    -0.057 A 
ATOM      6  C1  PBZ d          -1.584  13.330  16.041  0.00  0.00     0.025 A 
ATOM      7  H5  PBZ d          -0.301  12.140  17.282  0.00  0.00     0.086 H 
ATOM      8  H6  PBZ d           0.037  13.927  18.955  0.00  0.00     0.085 H 
ATOM      9  H7  PBZ d          -2.497  16.545  16.682  0.00  0.00     0.085 H 
ATOM     10  H8  PBZ d          -2.845  14.734  15.017  0.00  0.00     0.086 H 
ENDROOT
BRANCH   1  11
ATOM     11  C7  PBZ d          -0.961  16.439  18.945  0.00  0.00     0.102 C 
ATOM     12  N3  PBZ d          -0.341  17.578  18.627  0.00  0.00    -0.385 N 
ATOM     13  H3  PBZ d           0.000  17.728  17.666  0.00  0.00     0.157 HD
ATOM     14  H4  PBZ d          -0.205  18.307  19.342  0.00  0.00     0.157 HD
BRANCH  11  15
ATOM     15  N2  PBZ d          -1.387  16.281  20.191  0.00  0.00    -0.385 N 
ATOM     16  H1  PBZ d          -2.279  15.800  20.372  0.00  0.00     0.157 HD
ATOM     17  H2  PBZ d          -0.826  16.640  20.976  0.00  0.00     0.157 HD
ENDBRANCH  11  15
ENDBRANCH   1  11
BRANCH   6  18
ATOM     18  N1  PBZ d          -1.770  12.337  15.131  0.00  0.00    -0.399 N 
ATOM     19  H9  PBZ d          -2.639  11.783  15.144  0.00  0.00     0.156 HD
ATOM     20  H10 PBZ d          -1.044  12.138  14.429  0.00  0.00     0.156 HD
ENDBRANCH   6  18
TORSDOF 3
ENDMDL
