MODEL 1
REMARK VINA RESULT:      -5.7      0.000      0.000
REMARK  5 active torsions:
REMARK  status: ('A' for Active; 'I' for Inactive)
REMARK       I    between atoms: N3_3  and  C14_6 
REMARK    1  A    between atoms: C14_6  and  C15_7 
REMARK    2  A    between atoms: C15_7  and  C16_8 
REMARK    3  A    between atoms: C15_7  and  N19_11 
REMARK    4  A    between atoms: C16_8  and  C17_9 
REMARK    5  A    between atoms: C16_8  and  C26_12 
ROOT
ATOM      1  C15 A3M d          82.634  75.068  98.660  0.00  0.00     0.169 C 
ATOM      2  H9  A3M d          82.424  75.345  99.703  0.00  0.00     0.092 H 
ENDROOT
BRANCH   1   3
ATOM      3  C14 A3M d          81.497  74.238  98.238  0.00  0.00     0.384 C 
ATOM      4  N3  A3M d          80.157  74.698  97.879  0.00  0.00     0.134 N 
ATOM      5  C2  A3M d          79.499  75.480  98.940  0.00  0.00     0.117 C 
ATOM      6  C4  A3M d          79.166  73.659  97.513  0.00  0.00     0.117 C 
ATOM      7  C1  A3M d          77.934  75.411  98.590  0.00  0.00    -0.038 C 
ATOM      8  H3  A3M d          79.695  75.035  99.927  0.00  0.00     0.080 H 
ATOM      9  H4  A3M d          79.853  76.522  98.930  0.00  0.00     0.080 H 
ATOM     10  C5  A3M d          77.896  74.513  97.274  0.00  0.00    -0.038 C 
ATOM     11  H1  A3M d          77.529  76.415  98.395  0.00  0.00     0.035 H 
ATOM     12  H2  A3M d          77.368  74.939  99.406  0.00  0.00     0.035 H 
ATOM     13  H7  A3M d          77.975  75.120  96.360  0.00  0.00     0.035 H 
ATOM     14  H8  A3M d          76.988  73.894  97.225  0.00  0.00     0.035 H 
ATOM     15  H5  A3M d          79.017  72.939  98.332  0.00  0.00     0.080 H 
ATOM     16  H6  A3M d          79.466  73.122  96.602  0.00  0.00     0.080 H 
ATOM     17  O18 A3M d          81.737  72.884  98.186  0.00  0.00    -0.186 OA
ENDBRANCH   1   3
BRANCH   1  18
ATOM     18  C16 A3M d          82.893  76.352  97.926  0.00  0.00    -0.029 C 
ATOM     19  H10 A3M d          82.411  76.280  96.939  0.00  0.00     0.042 H 
BRANCH  18  20
ATOM     20  C17 A3M d          82.405  77.563  98.605  0.00  0.00    -0.071 C 
ATOM     21  H11 A3M d          83.260  78.128  99.006  0.00  0.00     0.028 H 
ATOM     22  H12 A3M d          81.736  77.276  99.430  0.00  0.00     0.028 H 
ATOM     23  H13 A3M d          81.855  78.189  97.888  0.00  0.00     0.028 H 
ENDBRANCH  18  20
BRANCH  18  24
ATOM     24  C26 A3M d          84.557  76.595  97.735  0.00  0.00    -0.071 C 
ATOM     25  H17 A3M d          84.728  77.449  97.064  0.00  0.00     0.028 H 
ATOM     26  H18 A3M d          85.012  75.691  97.301  0.00  0.00     0.028 H 
ATOM     27  H19 A3M d          85.013  76.800  98.715  0.00  0.00     0.028 H 
ENDBRANCH  18  24
ENDBRANCH   1  18
BRANCH   1  28
ATOM     28  N19 A3M d          83.914  74.286  98.644  0.00  0.00    -0.070 N 
ATOM     29  H14 A3M d          83.803  73.447  99.192  0.00  0.00     0.274 HD
ATOM     30  H15 A3M d          84.655  74.846  99.035  0.00  0.00     0.274 HD
ATOM     31  H16 A3M d          84.145  74.038  97.695  0.00  0.00     0.274 HD
ENDBRANCH   1  28
TORSDOF 5
ENDMDL
MODEL 2
REMARK VINA RESULT:      -5.5      1.290      4.663
REMARK  5 active torsions:
REMARK  status: ('A' for Active; 'I' for Inactive)
REMARK       I    between atoms: N3_3  and  C14_6 
REMARK    1  A    between atoms: C14_6  and  C15_7 
REMARK    2  A    between atoms: C15_7  and  C16_8 
REMARK    3  A    between atoms: C15_7  and  N19_11 
REMARK    4  A    between atoms: C16_8  and  C17_9 
REMARK    5  A    between atoms: C16_8  and  C26_12 
ROOT
ATOM      1  C15 A3M d          80.239  74.611  97.759  0.00  0.00     0.169 C 
ATOM      2  H9  A3M d          80.082  75.557  97.222  0.00  0.00     0.092 H 
ENDROOT
BRANCH   1   3
ATOM      3  C14 A3M d          81.676  74.567  98.066  0.00  0.00     0.384 C 
ATOM      4  N3  A3M d          82.576  75.708  98.230  0.00  0.00     0.134 N 
ATOM      5  C2  A3M d          82.610  76.605  97.061  0.00  0.00     0.117 C 
ATOM      6  C4  A3M d          83.999  75.406  98.509  0.00  0.00     0.117 C 
ATOM      7  C1  A3M d          83.983  77.420  97.210  0.00  0.00    -0.038 C 
ATOM      8  H3  A3M d          82.603  76.023  96.127  0.00  0.00     0.080 H 
ATOM      9  H4  A3M d          81.749  77.289  97.073  0.00  0.00     0.080 H 
ATOM     10  C5  A3M d          84.616  76.826  98.547  0.00  0.00    -0.038 C 
ATOM     11  H1  A3M d          83.793  78.499  97.309  0.00  0.00     0.035 H 
ATOM     12  H2  A3M d          84.643  77.242  96.348  0.00  0.00     0.035 H 
ATOM     13  H7  A3M d          84.298  77.388  99.437  0.00  0.00     0.035 H 
ATOM     14  H8  A3M d          85.714  76.798  98.504  0.00  0.00     0.035 H 
ATOM     15  H5  A3M d          84.444  74.796  97.709  0.00  0.00     0.080 H 
ATOM     16  H6  A3M d          84.118  74.890  99.473  0.00  0.00     0.080 H 
ATOM     17  O18 A3M d          82.216  73.310  98.205  0.00  0.00    -0.186 OA
ENDBRANCH   1   3
BRANCH   1  18
ATOM     18  C16 A3M d          79.264  74.607  98.901  0.00  0.00    -0.029 C 
ATOM     19  H10 A3M d          79.816  74.866  99.817  0.00  0.00     0.042 H 
BRANCH  18  20
ATOM     20  C17 A3M d          78.131  75.534  98.751  0.00  0.00    -0.071 C 
ATOM     21  H11 A3M d          78.497  76.570  98.793  0.00  0.00     0.028 H 
ATOM     22  H12 A3M d          77.411  75.367  99.566  0.00  0.00     0.028 H 
ATOM     23  H13 A3M d          77.638  75.357  97.784  0.00  0.00     0.028 H 
ENDBRANCH  18  20
BRANCH  18  24
ATOM     24  C26 A3M d          78.562  73.077  99.069  0.00  0.00    -0.071 C 
ATOM     25  H17 A3M d          79.323  72.359  99.407  0.00  0.00     0.028 H 
ATOM     26  H18 A3M d          78.155  72.751  98.099  0.00  0.00     0.028 H 
ATOM     27  H19 A3M d          77.749  73.125  99.809  0.00  0.00     0.028 H 
ENDBRANCH  18  24
ENDBRANCH   1  18
BRANCH   1  28
ATOM     28  N19 A3M d          79.845  73.493  96.839  0.00  0.00    -0.070 N 
ATOM     29  H14 A3M d          80.310  73.608  95.952  0.00  0.00     0.274 HD
ATOM     30  H15 A3M d          78.847  73.509  96.700  0.00  0.00     0.274 HD
ATOM     31  H16 A3M d          80.113  72.612  97.247  0.00  0.00     0.274 HD
ENDBRANCH   1  28
TORSDOF 5
ENDMDL
MODEL 3
REMARK VINA RESULT:      -5.3      1.905      5.015
REMARK  5 active torsions:
REMARK  status: ('A' for Active; 'I' for Inactive)
REMARK       I    between atoms: N3_3  and  C14_6 
REMARK    1  A    between atoms: C14_6  and  C15_7 
REMARK    2  A    between atoms: C15_7  and  C16_8 
REMARK    3  A    between atoms: C15_7  and  N19_11 
REMARK    4  A    between atoms: C16_8  and  C17_9 
REMARK    5  A    between atoms: C16_8  and  C26_12 
ROOT
ATOM      1  C15 A3M d          80.065  74.973  98.711  0.00  0.00     0.169 C 
ATOM      2  H9  A3M d          80.703  74.124  98.428  0.00  0.00     0.092 H 
ENDROOT
BRANCH   1   3
ATOM      3  C14 A3M d          80.912  76.165  98.570  0.00  0.00     0.384 C 
ATOM      4  N3  A3M d          82.225  76.242  97.932  0.00  0.00     0.134 N 
ATOM      5  C2  A3M d          83.215  75.314  98.507  0.00  0.00     0.117 C 
ATOM      6  C4  A3M d          82.901  77.560  97.942  0.00  0.00     0.117 C 
ATOM      7  C1  A3M d          84.639  75.914  98.075  0.00  0.00    -0.038 C 
ATOM      8  H3  A3M d          83.124  75.281  99.602  0.00  0.00     0.080 H 
ATOM      9  H4  A3M d          83.081  74.302  98.097  0.00  0.00     0.080 H 
ATOM     10  C5  A3M d          84.247  77.224  97.254  0.00  0.00    -0.038 C 
ATOM     11  H1  A3M d          85.192  75.204  97.444  0.00  0.00     0.035 H 
ATOM     12  H2  A3M d          85.244  76.169  98.958  0.00  0.00     0.035 H 
ATOM     13  H7  A3M d          84.120  77.013  96.183  0.00  0.00     0.035 H 
ATOM     14  H8  A3M d          84.987  78.027  97.384  0.00  0.00     0.035 H 
ATOM     15  H5  A3M d          83.055  77.925  98.968  0.00  0.00     0.080 H 
ATOM     16  H6  A3M d          82.333  78.306  97.368  0.00  0.00     0.080 H 
ATOM     17  O18 A3M d          80.402  77.324  99.108  0.00  0.00    -0.186 OA
ENDBRANCH   1   3
BRANCH   1  18
ATOM     18  C16 A3M d          78.828  74.871  97.865  0.00  0.00    -0.029 C 
ATOM     19  H10 A3M d          78.923  75.594  97.041  0.00  0.00     0.042 H 
BRANCH  18  20
ATOM     20  C17 A3M d          78.573  73.537  97.298  0.00  0.00    -0.071 C 
ATOM     21  H11 A3M d          79.266  73.355  96.463  0.00  0.00     0.028 H 
ATOM     22  H12 A3M d          77.537  73.486  96.933  0.00  0.00     0.028 H 
ATOM     23  H13 A3M d          78.726  72.773  98.075  0.00  0.00     0.028 H 
ENDBRANCH  18  20
BRANCH  18  24
ATOM     24  C26 A3M d          77.455  75.228  98.786  0.00  0.00    -0.071 C 
ATOM     25  H17 A3M d          76.555  74.896  98.248  0.00  0.00     0.028 H 
ATOM     26  H18 A3M d          77.400  76.313  98.958  0.00  0.00     0.028 H 
ATOM     27  H19 A3M d          77.516  74.707  99.753  0.00  0.00     0.028 H 
ENDBRANCH  18  24
ENDBRANCH   1  18
BRANCH   1  28
ATOM     28  N19 A3M d          79.641  74.771 100.136  0.00  0.00    -0.070 N 
ATOM     29  H14 A3M d          78.644  74.626 100.173  0.00  0.00     0.274 HD
ATOM     30  H15 A3M d          79.883  75.586 100.677  0.00  0.00     0.274 HD
ATOM     31  H16 A3M d          80.112  73.964 100.515  0.00  0.00     0.274 HD
ENDBRANCH   1  28
TORSDOF 5
ENDMDL
MODEL 4
REMARK VINA RESULT:      -5.1      1.796      2.092
REMARK  5 active torsions:
REMARK  status: ('A' for Active; 'I' for Inactive)
REMARK       I    between atoms: N3_3  and  C14_6 
REMARK    1  A    between atoms: C14_6  and  C15_7 
REMARK    2  A    between atoms: C15_7  and  C16_8 
REMARK    3  A    between atoms: C15_7  and  N19_11 
REMARK    4  A    between atoms: C16_8  and  C17_9 
REMARK    5  A    between atoms: C16_8  and  C26_12 
ROOT
ATOM      1  C15 A3M d          82.536  76.114  99.048  0.00  0.00     0.169 C 
ATOM      2  H9  A3M d          82.875  76.823  99.817  0.00  0.00     0.092 H 
ENDROOT
BRANCH   1   3
ATOM      3  C14 A3M d          81.076  76.274  98.985  0.00  0.00     0.384 C 
ATOM      4  N3  A3M d          80.086  75.224  98.752  0.00  0.00     0.134 N 
ATOM      5  C2  A3M d          80.298  74.481  97.497  0.00  0.00     0.117 C 
ATOM      6  C4  A3M d          78.665  75.641  98.702  0.00  0.00     0.117 C 
ATOM      7  C1  A3M d          78.879  73.805  97.176  0.00  0.00    -0.038 C 
ATOM      8  H3  A3M d          80.593  75.165  96.688  0.00  0.00     0.080 H 
ATOM      9  H4  A3M d          81.074  73.712  97.629  0.00  0.00     0.080 H 
ATOM     10  C5  A3M d          77.960  74.300  98.380  0.00  0.00    -0.038 C 
ATOM     11  H1  A3M d          78.958  72.708  97.166  0.00  0.00     0.035 H 
ATOM     12  H2  A3M d          78.485  74.153  96.210  0.00  0.00     0.035 H 
ATOM     13  H7  A3M d          77.989  73.606  99.232  0.00  0.00     0.035 H 
ATOM     14  H8  A3M d          76.916  74.450  98.065  0.00  0.00     0.035 H 
ATOM     15  H5  A3M d          78.492  76.385  97.910  0.00  0.00     0.080 H 
ATOM     16  H6  A3M d          78.332  76.048  99.667  0.00  0.00     0.080 H 
ATOM     17  O18 A3M d          80.610  77.556  99.160  0.00  0.00    -0.186 OA
ENDBRANCH   1   3
BRANCH   1  18
ATOM     18  C16 A3M d          83.342  76.411  97.816  0.00  0.00    -0.029 C 
ATOM     19  H10 A3M d          82.915  75.829  96.986  0.00  0.00     0.042 H 
BRANCH  18  20
ATOM     20  C17 A3M d          83.383  77.830  97.430  0.00  0.00    -0.071 C 
ATOM     21  H11 A3M d          83.425  78.456  98.334  0.00  0.00     0.028 H 
ATOM     22  H12 A3M d          82.481  78.079  96.852  0.00  0.00     0.028 H 
ATOM     23  H13 A3M d          84.275  78.016  96.813  0.00  0.00     0.028 H 
ENDBRANCH  18  20
BRANCH  18  24
ATOM     24  C26 A3M d          84.959  75.972  98.053  0.00  0.00    -0.071 C 
ATOM     25  H17 A3M d          85.032  74.878  98.141  0.00  0.00     0.028 H 
ATOM     26  H18 A3M d          85.336  76.440  98.974  0.00  0.00     0.028 H 
ATOM     27  H19 A3M d          85.560  76.312  97.197  0.00  0.00     0.028 H 
ENDBRANCH  18  24
ENDBRANCH   1  18
BRANCH   1  28
ATOM     28  N19 A3M d          82.914  74.735  99.500  0.00  0.00    -0.070 N 
ATOM     29  H14 A3M d          83.044  74.732 100.500  0.00  0.00     0.274 HD
ATOM     30  H15 A3M d          83.771  74.456  99.050  0.00  0.00     0.274 HD
ATOM     31  H16 A3M d          82.180  74.089  99.256  0.00  0.00     0.274 HD
ENDBRANCH   1  28
TORSDOF 5
ENDMDL
MODEL 5
REMARK VINA RESULT:      -4.8      1.500      1.772
REMARK  5 active torsions:
REMARK  status: ('A' for Active; 'I' for Inactive)
REMARK       I    between atoms: N3_3  and  C14_6 
REMARK    1  A    between atoms: C14_6  and  C15_7 
REMARK    2  A    between atoms: C15_7  and  C16_8 
REMARK    3  A    between atoms: C15_7  and  N19_11 
REMARK    4  A    between atoms: C16_8  and  C17_9 
REMARK    5  A    between atoms: C16_8  and  C26_12 
ROOT
ATOM      1  C15 A3M d          82.217  76.882  98.639  0.00  0.00     0.169 C 
ATOM      2  H9  A3M d          81.473  77.588  98.242  0.00  0.00     0.092 H 
ENDROOT
BRANCH   1   3
ATOM      3  C14 A3M d          81.812  75.562  98.135  0.00  0.00     0.384 C 
ATOM      4  N3  A3M d          80.483  75.167  97.671  0.00  0.00     0.134 N 
ATOM      5  C2  A3M d          79.424  75.372  98.674  0.00  0.00     0.117 C 
ATOM      6  C4  A3M d          80.315  73.761  97.234  0.00  0.00     0.117 C 
ATOM      7  C1  A3M d          78.224  74.416  98.205  0.00  0.00    -0.038 C 
ATOM      8  H3  A3M d          79.778  75.085  99.675  0.00  0.00     0.080 H 
ATOM      9  H4  A3M d          79.100  76.423  98.687  0.00  0.00     0.080 H 
ATOM     10  C5  A3M d          78.805  73.720  96.894  0.00  0.00    -0.038 C 
ATOM     11  H1  A3M d          77.321  75.000  97.974  0.00  0.00     0.035 H 
ATOM     12  H2  A3M d          77.989  73.668  98.977  0.00  0.00     0.035 H 
ATOM     13  H7  A3M d          78.573  74.296  95.986  0.00  0.00     0.035 H 
ATOM     14  H8  A3M d          78.437  72.690  96.778  0.00  0.00     0.035 H 
ATOM     15  H5  A3M d          80.564  73.057  98.043  0.00  0.00     0.080 H 
ATOM     16  H6  A3M d          80.932  73.539  96.352  0.00  0.00     0.080 H 
ATOM     17  O18 A3M d          82.802  74.607  98.107  0.00  0.00    -0.186 OA
ENDBRANCH   1   3
BRANCH   1  18
ATOM     18  C16 A3M d          83.562  77.418  98.241  0.00  0.00    -0.029 C 
ATOM     19  H10 A3M d          83.692  78.397  98.727  0.00  0.00     0.042 H 
BRANCH  18  20
ATOM     20  C17 A3M d          84.702  76.557  98.595  0.00  0.00    -0.071 C 
ATOM     21  H11 A3M d          85.286  77.033  99.396  0.00  0.00     0.028 H 
ATOM     22  H12 A3M d          85.341  76.414  97.711  0.00  0.00     0.028 H 
ATOM     23  H13 A3M d          84.331  75.581  98.941  0.00  0.00     0.028 H 
ENDBRANCH  18  20
BRANCH  18  24
ATOM     24  C26 A3M d          83.649  77.596  96.560  0.00  0.00    -0.071 C 
ATOM     25  H17 A3M d          82.632  77.638  96.143  0.00  0.00     0.028 H 
ATOM     26  H18 A3M d          84.188  76.739  96.128  0.00  0.00     0.028 H 
ATOM     27  H19 A3M d          84.184  78.525  96.317  0.00  0.00     0.028 H 
ENDBRANCH  18  24
ENDBRANCH   1  18
BRANCH   1  28
ATOM     28  N19 A3M d          82.146  76.937 100.136  0.00  0.00    -0.070 N 
ATOM     29  H14 A3M d          82.996  77.340 100.499  0.00  0.00     0.274 HD
ATOM     30  H15 A3M d          82.034  76.005 100.502  0.00  0.00     0.274 HD
ATOM     31  H16 A3M d          81.361  77.504 100.415  0.00  0.00     0.274 HD
ENDBRANCH   1  28
TORSDOF 5
ENDMDL
MODEL 6
REMARK VINA RESULT:      -4.2      2.043      2.655
REMARK  5 active torsions:
REMARK  status: ('A' for Active; 'I' for Inactive)
REMARK       I    between atoms: N3_3  and  C14_6 
REMARK    1  A    between atoms: C14_6  and  C15_7 
REMARK    2  A    between atoms: C15_7  and  C16_8 
REMARK    3  A    between atoms: C15_7  and  N19_11 
REMARK    4  A    between atoms: C16_8  and  C17_9 
REMARK    5  A    between atoms: C16_8  and  C26_12 
ROOT
ATOM      1  C15 A3M d          81.714  75.478  98.259  0.00  0.00     0.169 C 
ATOM      2  H9  A3M d          81.530  74.682  97.523  0.00  0.00     0.092 H 
ENDROOT
BRANCH   1   3
ATOM      3  C14 A3M d          80.383  75.949  98.668  0.00  0.00     0.384 C 
ATOM      4  N3  A3M d          79.153  75.161  98.737  0.00  0.00     0.134 N 
ATOM      5  C2  A3M d          78.795  74.516  97.462  0.00  0.00     0.117 C 
ATOM      6  C4  A3M d          77.923  75.873  99.153  0.00  0.00     0.117 C 
ATOM      7  C1  A3M d          77.229  74.190  97.593  0.00  0.00    -0.038 C 
ATOM      8  H3  A3M d          78.980  75.197  96.618  0.00  0.00     0.080 H 
ATOM      9  H4  A3M d          79.373  73.591  97.320  0.00  0.00     0.080 H 
ATOM     10  C5  A3M d          76.862  74.750  99.039  0.00  0.00    -0.038 C 
ATOM     11  H1  A3M d          77.045  73.108  97.530  0.00  0.00     0.035 H 
ATOM     12  H2  A3M d          76.652  74.707  96.812  0.00  0.00     0.035 H 
ATOM     13  H7  A3M d          76.988  73.986  99.820  0.00  0.00     0.035 H 
ATOM     14  H8  A3M d          75.837  75.148  99.078  0.00  0.00     0.035 H 
ATOM     15  H5  A3M d          77.695  76.711  98.477  0.00  0.00     0.080 H 
ATOM     16  H6  A3M d          78.004  76.245 100.184  0.00  0.00     0.080 H 
ATOM     17  O18 A3M d          80.304  77.277  99.015  0.00  0.00    -0.186 OA
ENDBRANCH   1   3
BRANCH   1  18
ATOM     18  C16 A3M d          82.615  74.886  99.304  0.00  0.00    -0.029 C 
ATOM     19  H10 A3M d          82.741  75.632 100.103  0.00  0.00     0.042 H 
BRANCH  18  20
ATOM     20  C17 A3M d          82.132  73.630  99.900  0.00  0.00    -0.071 C 
ATOM     21  H11 A3M d          81.049  73.537  99.731  0.00  0.00     0.028 H 
ATOM     22  H12 A3M d          82.336  73.634 100.981  0.00  0.00     0.028 H 
ATOM     23  H13 A3M d          82.650  72.779  99.433  0.00  0.00     0.028 H 
ENDBRANCH  18  20
BRANCH  18  24
ATOM     24  C26 A3M d          84.121  74.504  98.633  0.00  0.00    -0.071 C 
ATOM     25  H17 A3M d          84.722  73.952  99.371  0.00  0.00     0.028 H 
ATOM     26  H18 A3M d          84.644  75.431  98.354  0.00  0.00     0.028 H 
ATOM     27  H19 A3M d          83.977  73.882  97.738  0.00  0.00     0.028 H 
ENDBRANCH  18  24
ENDBRANCH   1  18
BRANCH   1  28
ATOM     28  N19 A3M d          82.489  76.564  97.573  0.00  0.00    -0.070 N 
ATOM     29  H14 A3M d          83.410  76.226  97.343  0.00  0.00     0.274 HD
ATOM     30  H15 A3M d          82.567  77.360  98.187  0.00  0.00     0.274 HD
ATOM     31  H16 A3M d          82.010  76.836  96.729  0.00  0.00     0.274 HD
ENDBRANCH   1  28
TORSDOF 5
ENDMDL
MODEL 7
REMARK VINA RESULT:      -3.8      1.831      2.245
REMARK  5 active torsions:
REMARK  status: ('A' for Active; 'I' for Inactive)
REMARK       I    between atoms: N3_3  and  C14_6 
REMARK    1  A    between atoms: C14_6  and  C15_7 
REMARK    2  A    between atoms: C15_7  and  C16_8 
REMARK    3  A    between atoms: C15_7  and  N19_11 
REMARK    4  A    between atoms: C16_8  and  C17_9 
REMARK    5  A    between atoms: C16_8  and  C26_12 
ROOT
ATOM      1  C15 A3M d          81.324  74.987  98.882  0.00  0.00     0.169 C 
ATOM      2  H9  A3M d          81.848  74.961  99.849  0.00  0.00     0.092 H 
ENDROOT
BRANCH   1   3
ATOM      3  C14 A3M d          79.918  74.690  99.190  0.00  0.00     0.384 C 
ATOM      4  N3  A3M d          79.091  73.640  98.598  0.00  0.00     0.134 N 
ATOM      5  C2  A3M d          79.001  73.717  97.130  0.00  0.00     0.117 C 
ATOM      6  C4  A3M d          77.684  73.558  99.054  0.00  0.00     0.117 C 
ATOM      7  C1  A3M d          77.685  72.879  96.755  0.00  0.00    -0.038 C 
ATOM      8  H3  A3M d          78.901  74.763  96.803  0.00  0.00     0.080 H 
ATOM      9  H4  A3M d          79.892  73.271  96.663  0.00  0.00     0.080 H 
ATOM     10  C5  A3M d          77.140  72.404  98.175  0.00  0.00    -0.038 C 
ATOM     11  H1  A3M d          77.934  72.017  96.119  0.00  0.00     0.035 H 
ATOM     12  H2  A3M d          76.947  73.513  96.241  0.00  0.00     0.035 H 
ATOM     13  H7  A3M d          77.559  71.431  98.471  0.00  0.00     0.035 H 
ATOM     14  H8  A3M d          76.042  72.352  98.198  0.00  0.00     0.035 H 
ATOM     15  H5  A3M d          77.144  74.497  98.862  0.00  0.00     0.080 H 
ATOM     16  H6  A3M d          77.622  73.311 100.124  0.00  0.00     0.080 H 
ATOM     17  O18 A3M d          79.333  75.500 100.134  0.00  0.00    -0.186 OA
ENDBRANCH   1   3
BRANCH   1  18
ATOM     18  C16 A3M d          81.655  76.313  98.260  0.00  0.00    -0.029 C 
ATOM     19  H10 A3M d          80.882  76.536  97.509  0.00  0.00     0.042 H 
BRANCH  18  20
ATOM     20  C17 A3M d          81.737  77.438  99.205  0.00  0.00    -0.071 C 
ATOM     21  H11 A3M d          82.560  78.106  98.910  0.00  0.00     0.028 H 
ATOM     22  H12 A3M d          81.922  77.053 100.218  0.00  0.00     0.028 H 
ATOM     23  H13 A3M d          80.789  77.997  99.193  0.00  0.00     0.028 H 
ENDBRANCH  18  20
BRANCH  18  24
ATOM     24  C26 A3M d          83.175  76.251  97.518  0.00  0.00    -0.071 C 
ATOM     25  H17 A3M d          83.190  75.432  96.783  0.00  0.00     0.028 H 
ATOM     26  H18 A3M d          83.949  76.075  98.280  0.00  0.00     0.028 H 
ATOM     27  H19 A3M d          83.373  77.205  97.008  0.00  0.00     0.028 H 
ENDBRANCH  18  24
ENDBRANCH   1  18
BRANCH   1  28
ATOM     28  N19 A3M d          81.926  73.928  98.007  0.00  0.00    -0.070 N 
ATOM     29  H14 A3M d          82.926  73.918  98.130  0.00  0.00     0.274 HD
ATOM     30  H15 A3M d          81.708  74.124  97.043  0.00  0.00     0.274 HD
ATOM     31  H16 A3M d          81.548  73.028  98.261  0.00  0.00     0.274 HD
ENDBRANCH   1  28
TORSDOF 5
ENDMDL
MODEL 8
REMARK VINA RESULT:      -3.7      1.877      4.598
REMARK  5 active torsions:
REMARK  status: ('A' for Active; 'I' for Inactive)
REMARK       I    between atoms: N3_3  and  C14_6 
REMARK    1  A    between atoms: C14_6  and  C15_7 
REMARK    2  A    between atoms: C15_7  and  C16_8 
REMARK    3  A    between atoms: C15_7  and  N19_11 
REMARK    4  A    between atoms: C16_8  and  C17_9 
REMARK    5  A    between atoms: C16_8  and  C26_12 
ROOT
ATOM      1  C15 A3M d          81.394  73.988  98.799  0.00  0.00     0.169 C 
ATOM      2  H9  A3M d          82.330  73.520  98.461  0.00  0.00     0.092 H 
ENDROOT
BRANCH   1   3
ATOM      3  C14 A3M d          81.688  75.424  98.902  0.00  0.00     0.384 C 
ATOM      4  N3  A3M d          82.622  76.193  98.080  0.00  0.00     0.134 N 
ATOM      5  C2  A3M d          83.998  75.667  98.103  0.00  0.00     0.117 C 
ATOM      6  C4  A3M d          82.768  77.632  98.399  0.00  0.00     0.117 C 
ATOM      7  C1  A3M d          84.914  76.895  97.626  0.00  0.00    -0.038 C 
ATOM      8  H3  A3M d          84.274  75.349  99.119  0.00  0.00     0.080 H 
ATOM      9  H4  A3M d          84.098  74.816  97.412  0.00  0.00     0.080 H 
ATOM     10  C5  A3M d          83.858  78.064  97.387  0.00  0.00    -0.038 C 
ATOM     11  H1  A3M d          85.449  76.650  96.697  0.00  0.00     0.035 H 
ATOM     12  H2  A3M d          85.639  77.172  98.405  0.00  0.00     0.035 H 
ATOM     13  H7  A3M d          83.480  78.071  96.354  0.00  0.00     0.035 H 
ATOM     14  H8  A3M d          84.276  79.052  97.630  0.00  0.00     0.035 H 
ATOM     15  H5  A3M d          83.101  77.782  99.437  0.00  0.00     0.080 H 
ATOM     16  H6  A3M d          81.827  78.177  98.233  0.00  0.00     0.080 H 
ATOM     17  O18 A3M d          81.007  76.100  99.887  0.00  0.00    -0.186 OA
ENDBRANCH   1   3
BRANCH   1  18
ATOM     18  C16 A3M d          80.330  73.543  97.836  0.00  0.00    -0.029 C 
ATOM     19  H10 A3M d          80.521  72.489  97.587  0.00  0.00     0.042 H 
BRANCH  18  20
ATOM     20  C17 A3M d          78.951  73.672  98.334  0.00  0.00    -0.071 C 
ATOM     21  H11 A3M d          78.356  74.259  97.619  0.00  0.00     0.028 H 
ATOM     22  H12 A3M d          78.960  74.182  99.309  0.00  0.00     0.028 H 
ATOM     23  H13 A3M d          78.508  72.672  98.447  0.00  0.00     0.028 H 
ENDBRANCH  18  20
BRANCH  18  24
ATOM     24  C26 A3M d          80.380  74.483  96.430  0.00  0.00    -0.071 C 
ATOM     25  H17 A3M d          81.224  75.187  96.489  0.00  0.00     0.028 H 
ATOM     26  H18 A3M d          79.440  75.046  96.331  0.00  0.00     0.028 H 
ATOM     27  H19 A3M d          80.509  73.829  95.556  0.00  0.00     0.028 H 
ENDBRANCH  18  24
ENDBRANCH   1  18
BRANCH   1  28
ATOM     28  N19 A3M d          81.049  73.405 100.137  0.00  0.00    -0.070 N 
ATOM     29  H14 A3M d          80.654  74.122 100.725  0.00  0.00     0.274 HD
ATOM     30  H15 A3M d          81.882  73.038 100.569  0.00  0.00     0.274 HD
ATOM     31  H16 A3M d          80.378  72.663 100.017  0.00  0.00     0.274 HD
ENDBRANCH   1  28
TORSDOF 5
ENDMDL
MODEL 9
REMARK VINA RESULT:      -3.5      1.674      2.197
REMARK  5 active torsions:
REMARK  status: ('A' for Active; 'I' for Inactive)
REMARK       I    between atoms: N3_3  and  C14_6 
REMARK    1  A    between atoms: C14_6  and  C15_7 
REMARK    2  A    between atoms: C15_7  and  C16_8 
REMARK    3  A    between atoms: C15_7  and  N19_11 
REMARK    4  A    between atoms: C16_8  and  C17_9 
REMARK    5  A    between atoms: C16_8  and  C26_12 
ROOT
ATOM      1  C15 A3M d          81.766  75.428  98.157  0.00  0.00     0.169 C 
ATOM      2  H9  A3M d          82.130  76.013  97.300  0.00  0.00     0.092 H 
ENDROOT
BRANCH   1   3
ATOM      3  C14 A3M d          80.495  74.837  97.716  0.00  0.00     0.384 C 
ATOM      4  N3  A3M d          79.171  75.066  98.292  0.00  0.00     0.134 N 
ATOM      5  C2  A3M d          79.092  74.753  99.730  0.00  0.00     0.117 C 
ATOM      6  C4  A3M d          78.039  74.326  97.687  0.00  0.00     0.117 C 
ATOM      7  C1  A3M d          77.527  74.546 100.019  0.00  0.00    -0.038 C 
ATOM      8  H3  A3M d          79.653  73.835  99.957  0.00  0.00     0.080 H 
ATOM      9  H4  A3M d          79.490  75.585 100.330  0.00  0.00     0.080 H 
ATOM     10  C5  A3M d          76.861  74.771  98.589  0.00  0.00    -0.038 C 
ATOM     11  H1  A3M d          77.159  75.283 100.747  0.00  0.00     0.035 H 
ATOM     12  H2  A3M d          77.326  73.531 100.392  0.00  0.00     0.035 H 
ATOM     13  H7  A3M d          76.592  75.824  98.423  0.00  0.00     0.035 H 
ATOM     14  H8  A3M d          75.972  74.139  98.445  0.00  0.00     0.035 H 
ATOM     15  H5  A3M d          78.196  73.238  97.740  0.00  0.00     0.080 H 
ATOM     16  H6  A3M d          77.878  74.624  96.641  0.00  0.00     0.080 H 
ATOM     17  O18 A3M d          80.580  73.974  96.649  0.00  0.00    -0.186 OA
ENDBRANCH   1   3
BRANCH   1  18
ATOM     18  C16 A3M d          82.887  74.507  98.545  0.00  0.00    -0.029 C 
ATOM     19  H10 A3M d          82.934  73.700  97.799  0.00  0.00     0.042 H 
BRANCH  18  20
ATOM     20  C17 A3M d          84.209  75.145  98.639  0.00  0.00    -0.071 C 
ATOM     21  H11 A3M d          84.337  75.579  99.641  0.00  0.00     0.028 H 
ATOM     22  H12 A3M d          84.287  75.940  97.882  0.00  0.00     0.028 H 
ATOM     23  H13 A3M d          84.993  74.394  98.462  0.00  0.00     0.028 H 
ENDBRANCH  18  20
BRANCH  18  24
ATOM     24  C26 A3M d          82.604  73.853 100.080  0.00  0.00    -0.071 C 
ATOM     25  H17 A3M d          83.435  74.118 100.750  0.00  0.00     0.028 H 
ATOM     26  H18 A3M d          82.529  72.758 100.004  0.00  0.00     0.028 H 
ATOM     27  H19 A3M d          81.664  74.258 100.484  0.00  0.00     0.028 H 
ENDBRANCH  18  24
ENDBRANCH   1  18
BRANCH   1  28
ATOM     28  N19 A3M d          81.558  76.376  99.301  0.00  0.00    -0.070 N 
ATOM     29  H14 A3M d          82.452  76.674  99.658  0.00  0.00     0.274 HD
ATOM     30  H15 A3M d          81.042  75.912 100.032  0.00  0.00     0.274 HD
ATOM     31  H16 A3M d          81.039  77.179  98.983  0.00  0.00     0.274 HD
ENDBRANCH   1  28
TORSDOF 5
ENDMDL
