MODEL 1
REMARK VINA RESULT:      -9.8      0.000      0.000
REMARK  7 active torsions:
REMARK  status: ('A' for Active; 'I' for Inactive)
REMARK    1  A    between atoms: C8_9  and  C4_10 
REMARK    2  A    between atoms: C1_11  and  C7_12 
REMARK    3  A    between atoms: C2_16  and  C6_18 
REMARK    4  A    between atoms: C14_20  and  C26_21 
REMARK    5  A    between atoms: C26_21  and  C27_22 
REMARK    6  A    between atoms: C13_23  and  O25_24 
REMARK    7  A    between atoms: C9_26  and  O24_27 
ROOT
ATOM      1  C4  MOL d           0.167  34.344  -4.828  0.00  0.00     0.041 A 
ATOM      2  C1  MOL d           0.181  34.358  -6.217  0.00  0.00     0.140 A 
ATOM      3  N5  MOL d          -0.548  33.325  -6.641  0.00  0.00    -0.270 N 
ATOM      4  C2  MOL d          -0.600  33.229  -4.509  0.00  0.00     0.103 A 
ATOM      5  N3  MOL d          -0.988  32.695  -5.671  0.00  0.00    -0.173 NA
ATOM      6  H6  MOL d          -0.718  33.088  -7.629  0.00  0.00     0.189 HD
ENDROOT
BRANCH   4   7
ATOM      7  C6  MOL d          -0.764  32.722  -3.220  0.00  0.00     0.029 A 
ATOM      8  C10 MOL d           0.326  32.269  -2.475  0.00  0.00    -0.059 A 
ATOM      9  C14 MOL d           0.166  31.826  -1.164  0.00  0.00    -0.024 A 
ATOM     10  H7  MOL d           1.312  32.260  -2.924  0.00  0.00     0.086 H 
ATOM     11  C13 MOL d          -1.093  31.866  -0.573  0.00  0.00     0.074 A 
ATOM     12  C11 MOL d          -2.192  32.288  -1.316  0.00  0.00    -0.018 A 
ATOM     13  C9  MOL d          -2.026  32.704  -2.637  0.00  0.00     0.081 A 
ATOM     14  H14 MOL d          -3.179  32.291  -0.868  0.00  0.00     0.092 H 
BRANCH   9  15
ATOM     15  C26 MOL d           1.361  31.204  -0.436  0.00  0.00    -0.042 C 
ATOM     16  H8  MOL d           1.028  30.800   0.532  0.00  0.00     0.039 H 
ATOM     17  H9  MOL d           2.126  31.976  -0.267  0.00  0.00     0.039 H 
BRANCH  15  18
ATOM     18  C27 MOL d           1.959  30.074  -1.280  0.00  0.00    -0.073 C 
ATOM     19  H10 MOL d           2.515  29.384  -0.627  0.00  0.00     0.028 H 
ATOM     20  H11 MOL d           2.642  30.499  -2.030  0.00  0.00     0.028 H 
ATOM     21  H12 MOL d           1.151  29.528  -1.787  0.00  0.00     0.028 H 
ENDBRANCH  15  18
ENDBRANCH   9  15
BRANCH  11  22
ATOM     22  O25 MOL d          -1.198  31.651   0.769  0.00  0.00    -0.360 OA
ATOM     23  H13 MOL d          -2.106  31.477   0.991  0.00  0.00     0.217 HD
ENDBRANCH  11  22
BRANCH  13  24
ATOM     24  O24 MOL d          -3.104  33.087  -3.369  0.00  0.00    -0.360 OA
ATOM     25  H15 MOL d          -3.155  34.035  -3.385  0.00  0.00     0.217 HD
ENDBRANCH  13  24
ENDBRANCH   4   7
BRANCH   1  26
ATOM     26  C8  MOL d           0.748  35.252  -3.943  0.00  0.00    -0.018 A 
ATOM     27  C15 MOL d           2.050  35.023  -3.507  0.00  0.00    -0.037 A 
ATOM     28  C12 MOL d           2.609  35.891  -2.576  0.00  0.00     0.105 A 
ATOM     29  H1  MOL d           2.619  34.182  -3.888  0.00  0.00     0.089 H 
ATOM     30  O17 MOL d           3.835  35.899  -1.974  0.00  0.00    -0.323 OA
ATOM     31  C16 MOL d           1.882  36.980  -2.096  0.00  0.00     0.105 A 
ATOM     32  C19 MOL d           3.869  36.992  -1.143  0.00  0.00     0.115 A 
ATOM     33  O18 MOL d           2.673  37.661  -1.215  0.00  0.00    -0.323 OA
ATOM     34  H2  MOL d           4.683  37.664  -1.454  0.00  0.00     0.118 H 
ATOM     35  H3  MOL d           4.042  36.660  -0.108  0.00  0.00     0.118 H 
ATOM     36  C22 MOL d           0.582  37.218  -2.531  0.00  0.00    -0.047 A 
ATOM     37  C20 MOL d           0.025  36.340  -3.457  0.00  0.00    -0.069 A 
ATOM     38  H4  MOL d           0.017  38.065  -2.159  0.00  0.00     0.087 H 
ATOM     39  H5  MOL d          -0.988  36.506  -3.806  0.00  0.00     0.085 H 
ENDBRANCH   1  26
BRANCH   2  40
ATOM     40  C7  MOL d           0.836  35.377  -7.150  0.00  0.00     0.229 C 
ATOM     41  O21 MOL d           0.235  36.425  -7.384  0.00  0.00    -0.643 OA
ATOM     42  O23 MOL d           1.937  35.162  -7.661  0.00  0.00    -0.643 OA
ENDBRANCH   2  40
TORSDOF 7
ENDMDL
MODEL 2
REMARK VINA RESULT:      -7.5      1.821      5.140
REMARK  7 active torsions:
REMARK  status: ('A' for Active; 'I' for Inactive)
REMARK    1  A    between atoms: C8_9  and  C4_10 
REMARK    2  A    between atoms: C1_11  and  C7_12 
REMARK    3  A    between atoms: C2_16  and  C6_18 
REMARK    4  A    between atoms: C14_20  and  C26_21 
REMARK    5  A    between atoms: C26_21  and  C27_22 
REMARK    6  A    between atoms: C13_23  and  O25_24 
REMARK    7  A    between atoms: C9_26  and  O24_27 
ROOT
ATOM      1  C4  MOL d           0.425  34.359  -4.448  0.00  0.00     0.041 A 
ATOM      2  C1  MOL d          -0.023  34.223  -5.756  0.00  0.00     0.140 A 
ATOM      3  N5  MOL d           0.530  35.197  -6.479  0.00  0.00    -0.270 N 
ATOM      4  C2  MOL d           1.248  35.480  -4.489  0.00  0.00     0.103 A 
ATOM      5  N3  MOL d           1.249  35.900  -5.757  0.00  0.00    -0.173 NA
ATOM      6  H6  MOL d           0.381  35.342  -7.488  0.00  0.00     0.189 HD
ENDROOT
BRANCH   4   7
ATOM      7  C6  MOL d           1.804  36.094  -3.367  0.00  0.00     0.029 A 
ATOM      8  C10 MOL d           3.015  35.657  -2.827  0.00  0.00    -0.059 A 
ATOM      9  C14 MOL d           3.600  36.315  -1.747  0.00  0.00    -0.024 A 
ATOM     10  H7  MOL d           3.507  34.790  -3.253  0.00  0.00     0.086 H 
ATOM     11  C13 MOL d           2.988  37.447  -1.218  0.00  0.00     0.074 A 
ATOM     12  C11 MOL d           1.764  37.873  -1.728  0.00  0.00    -0.018 A 
ATOM     13  C9  MOL d           1.174  37.192  -2.793  0.00  0.00     0.081 A 
ATOM     14  H14 MOL d           1.270  38.737  -1.298  0.00  0.00     0.092 H 
BRANCH   9  15
ATOM     15  C26 MOL d           4.851  35.716  -1.098  0.00  0.00    -0.042 C 
ATOM     16  H8  MOL d           4.993  36.163  -0.102  0.00  0.00     0.039 H 
ATOM     17  H9  MOL d           5.726  35.934  -1.726  0.00  0.00     0.039 H 
BRANCH  15  18
ATOM     18  C27 MOL d           4.693  34.199  -0.955  0.00  0.00    -0.073 C 
ATOM     19  H10 MOL d           5.655  33.709  -1.166  0.00  0.00     0.028 H 
ATOM     20  H11 MOL d           3.936  33.841  -1.669  0.00  0.00     0.028 H 
ATOM     21  H12 MOL d           4.374  33.958   0.069  0.00  0.00     0.028 H 
ENDBRANCH  15  18
ENDBRANCH   9  15
BRANCH  11  22
ATOM     22  O25 MOL d           3.676  38.210  -0.322  0.00  0.00    -0.360 OA
ATOM     23  H13 MOL d           3.064  38.617   0.281  0.00  0.00     0.217 HD
ENDBRANCH  11  22
BRANCH  13  24
ATOM     24  O24 MOL d          -0.033  37.593  -3.269  0.00  0.00    -0.360 OA
ATOM     25  H15 MOL d          -0.283  37.041  -4.001  0.00  0.00     0.217 HD
ENDBRANCH  13  24
ENDBRANCH   4   7
BRANCH   1  26
ATOM     26  C8  MOL d           0.156  33.547  -3.347  0.00  0.00    -0.018 A 
ATOM     27  C15 MOL d          -1.161  33.421  -2.914  0.00  0.00    -0.037 A 
ATOM     28  C12 MOL d          -1.424  32.663  -1.777  0.00  0.00     0.105 A 
ATOM     29  H1  MOL d          -1.967  33.906  -3.452  0.00  0.00     0.089 H 
ATOM     30  O17 MOL d          -2.595  32.387  -1.130  0.00  0.00    -0.323 OA
ATOM     31  C16 MOL d          -0.388  32.029  -1.093  0.00  0.00     0.105 A 
ATOM     32  C19 MOL d          -2.285  31.576  -0.065  0.00  0.00     0.115 A 
ATOM     33  O18 MOL d          -0.931  31.352  -0.038  0.00  0.00    -0.323 OA
ATOM     34  H2  MOL d          -2.813  30.617  -0.169  0.00  0.00     0.118 H 
ATOM     35  H3  MOL d          -2.594  32.066   0.870  0.00  0.00     0.118 H 
ATOM     36  C22 MOL d           0.930  32.146  -1.524  0.00  0.00    -0.047 A 
ATOM     37  C20 MOL d           1.188  32.913  -2.657  0.00  0.00    -0.069 A 
ATOM     38  H4  MOL d           1.735  31.651  -0.992  0.00  0.00     0.087 H 
ATOM     39  H5  MOL d           2.208  33.019  -3.007  0.00  0.00     0.085 H 
ENDBRANCH   1  26
BRANCH   2  40
ATOM     40  C7  MOL d          -0.933  33.141  -6.341  0.00  0.00     0.229 C 
ATOM     41  O21 MOL d          -1.835  33.487  -7.104  0.00  0.00    -0.643 OA
ATOM     42  O23 MOL d          -0.774  31.952  -6.061  0.00  0.00    -0.643 OA
ENDBRANCH   2  40
TORSDOF 7
ENDMDL
MODEL 3
REMARK VINA RESULT:      -7.3      1.752      5.436
REMARK  7 active torsions:
REMARK  status: ('A' for Active; 'I' for Inactive)
REMARK    1  A    between atoms: C8_9  and  C4_10 
REMARK    2  A    between atoms: C1_11  and  C7_12 
REMARK    3  A    between atoms: C2_16  and  C6_18 
REMARK    4  A    between atoms: C14_20  and  C26_21 
REMARK    5  A    between atoms: C26_21  and  C27_22 
REMARK    6  A    between atoms: C13_23  and  O25_24 
REMARK    7  A    between atoms: C9_26  and  O24_27 
ROOT
ATOM      1  C4  MOL d          -0.316  33.040  -2.566  0.00  0.00     0.041 A 
ATOM      2  C1  MOL d          -1.123  32.315  -1.699  0.00  0.00     0.140 A 
ATOM      3  N5  MOL d          -2.303  32.138  -2.294  0.00  0.00    -0.270 N 
ATOM      4  C2  MOL d          -1.128  33.269  -3.671  0.00  0.00     0.103 A 
ATOM      5  N3  MOL d          -2.296  32.677  -3.408  0.00  0.00    -0.173 NA
ATOM      6  H6  MOL d          -3.100  31.629  -1.887  0.00  0.00     0.189 HD
ENDROOT
BRANCH   4   7
ATOM      7  C6  MOL d          -0.792  34.097  -4.742  0.00  0.00     0.029 A 
ATOM      8  C10 MOL d          -0.521  35.453  -4.554  0.00  0.00    -0.059 A 
ATOM      9  C14 MOL d          -0.121  36.261  -5.616  0.00  0.00    -0.024 A 
ATOM     10  H7  MOL d          -0.624  35.885  -3.565  0.00  0.00     0.086 H 
ATOM     11  C13 MOL d           0.043  35.704  -6.880  0.00  0.00     0.074 A 
ATOM     12  C11 MOL d          -0.254  34.359  -7.087  0.00  0.00    -0.018 A 
ATOM     13  C9  MOL d          -0.679  33.564  -6.022  0.00  0.00     0.081 A 
ATOM     14  H14 MOL d          -0.156  33.929  -8.077  0.00  0.00     0.092 H 
BRANCH   9  15
ATOM     15  C26 MOL d           0.025  37.769  -5.392  0.00  0.00    -0.042 C 
ATOM     16  H8  MOL d          -0.965  38.244  -5.456  0.00  0.00     0.039 H 
ATOM     17  H9  MOL d           0.684  38.189  -6.166  0.00  0.00     0.039 H 
BRANCH  15  18
ATOM     18  C27 MOL d           0.629  38.038  -4.011  0.00  0.00    -0.073 C 
ATOM     19  H10 MOL d           0.029  37.528  -3.242  0.00  0.00     0.028 H 
ATOM     20  H11 MOL d           0.630  39.121  -3.815  0.00  0.00     0.028 H 
ATOM     21  H12 MOL d           1.661  37.660  -3.981  0.00  0.00     0.028 H 
ENDBRANCH  15  18
ENDBRANCH   9  15
BRANCH  11  22
ATOM     22  O25 MOL d           0.649  36.443  -7.853  0.00  0.00    -0.360 OA
ATOM     23  H13 MOL d           0.669  37.356  -7.590  0.00  0.00     0.217 HD
ENDBRANCH  11  22
BRANCH  13  24
ATOM     24  O24 MOL d          -0.996  32.261  -6.232  0.00  0.00    -0.360 OA
ATOM     25  H15 MOL d          -0.625  31.976  -7.059  0.00  0.00     0.217 HD
ENDBRANCH  13  24
ENDBRANCH   4   7
BRANCH   1  26
ATOM     26  C8  MOL d           1.015  33.424  -2.400  0.00  0.00    -0.018 A 
ATOM     27  C15 MOL d           1.306  34.773  -2.222  0.00  0.00    -0.037 A 
ATOM     28  C12 MOL d           2.636  35.165  -2.121  0.00  0.00     0.105 A 
ATOM     29  H1  MOL d           0.509  35.506  -2.164  0.00  0.00     0.089 H 
ATOM     30  O17 MOL d           3.202  36.398  -1.961  0.00  0.00    -0.323 OA
ATOM     31  C16 MOL d           3.660  34.221  -2.183  0.00  0.00     0.105 A 
ATOM     32  C19 MOL d           4.563  36.213  -1.909  0.00  0.00     0.115 A 
ATOM     33  O18 MOL d           4.850  34.878  -2.043  0.00  0.00    -0.323 OA
ATOM     34  H2  MOL d           4.945  36.575  -0.942  0.00  0.00     0.118 H 
ATOM     35  H3  MOL d           5.040  36.775  -2.726  0.00  0.00     0.118 H 
ATOM     36  C22 MOL d           3.376  32.870  -2.354  0.00  0.00    -0.047 A 
ATOM     37  C20 MOL d           2.044  32.484  -2.464  0.00  0.00    -0.069 A 
ATOM     38  H4  MOL d           4.173  32.135  -2.401  0.00  0.00     0.087 H 
ATOM     39  H5  MOL d           1.801  31.437  -2.602  0.00  0.00     0.085 H 
ENDBRANCH   1  26
BRANCH   2  40
ATOM     40  C7  MOL d          -0.768  31.738  -0.328  0.00  0.00     0.229 C 
ATOM     41  O21 MOL d          -1.525  31.965   0.615  0.00  0.00    -0.643 OA
ATOM     42  O23 MOL d           0.250  31.064  -0.162  0.00  0.00    -0.643 OA
ENDBRANCH   2  40
TORSDOF 7
ENDMDL
MODEL 4
REMARK VINA RESULT:      -6.9      1.321      2.096
REMARK  7 active torsions:
REMARK  status: ('A' for Active; 'I' for Inactive)
REMARK    1  A    between atoms: C8_9  and  C4_10 
REMARK    2  A    between atoms: C1_11  and  C7_12 
REMARK    3  A    between atoms: C2_16  and  C6_18 
REMARK    4  A    between atoms: C14_20  and  C26_21 
REMARK    5  A    between atoms: C26_21  and  C27_22 
REMARK    6  A    between atoms: C13_23  and  O25_24 
REMARK    7  A    between atoms: C9_26  and  O24_27 
ROOT
ATOM      1  C4  MOL d           0.187  34.357  -4.580  0.00  0.00     0.041 A 
ATOM      2  C1  MOL d          -0.022  34.304  -5.952  0.00  0.00     0.140 A 
ATOM      3  N5  MOL d          -0.559  33.118  -6.236  0.00  0.00    -0.270 N 
ATOM      4  C2  MOL d          -0.250  33.118  -4.124  0.00  0.00     0.103 A 
ATOM      5  N3  MOL d          -0.687  32.455  -5.199  0.00  0.00    -0.173 NA
ATOM      6  H6  MOL d          -0.826  32.800  -7.179  0.00  0.00     0.189 HD
ENDROOT
BRANCH   4   7
ATOM      7  C6  MOL d          -0.090  32.652  -2.819  0.00  0.00     0.029 A 
ATOM      8  C10 MOL d          -1.189  32.439  -1.985  0.00  0.00    -0.059 A 
ATOM      9  C14 MOL d          -1.028  31.911  -0.706  0.00  0.00    -0.024 A 
ATOM     10  H7  MOL d          -2.183  32.688  -2.339  0.00  0.00     0.086 H 
ATOM     11  C13 MOL d           0.242  31.559  -0.261  0.00  0.00     0.074 A 
ATOM     12  C11 MOL d           1.349  31.797  -1.072  0.00  0.00    -0.018 A 
ATOM     13  C9  MOL d           1.180  32.350  -2.342  0.00  0.00     0.081 A 
ATOM     14  H14 MOL d           2.343  31.552  -0.716  0.00  0.00     0.092 H 
BRANCH   9  15
ATOM     15  C26 MOL d          -2.242  31.828   0.224  0.00  0.00    -0.042 C 
ATOM     16  H8  MOL d          -2.830  32.755   0.138  0.00  0.00     0.039 H 
ATOM     17  H9  MOL d          -1.898  31.707   1.261  0.00  0.00     0.039 H 
BRANCH  15  18
ATOM     18  C27 MOL d          -3.119  30.633  -0.162  0.00  0.00    -0.073 C 
ATOM     19  H10 MOL d          -3.007  29.838   0.590  0.00  0.00     0.028 H 
ATOM     20  H11 MOL d          -2.807  30.252  -1.147  0.00  0.00     0.028 H 
ATOM     21  H12 MOL d          -4.171  30.949  -0.208  0.00  0.00     0.028 H 
ENDBRANCH  15  18
ENDBRANCH   9  15
BRANCH  11  22
ATOM     22  O25 MOL d           0.361  30.838   0.890  0.00  0.00    -0.360 OA
ATOM     23  H13 MOL d           1.140  31.117   1.358  0.00  0.00     0.217 HD
ENDBRANCH  11  22
BRANCH  13  24
ATOM     24  O24 MOL d           2.264  32.607  -3.118  0.00  0.00    -0.360 OA
ATOM     25  H15 MOL d           2.784  33.294  -2.717  0.00  0.00     0.217 HD
ENDBRANCH  13  24
ENDBRANCH   4   7
BRANCH   1  26
ATOM     26  C8  MOL d           0.683  35.412  -3.815  0.00  0.00    -0.018 A 
ATOM     27  C15 MOL d           2.049  35.466  -3.553  0.00  0.00    -0.037 A 
ATOM     28  C12 MOL d           2.536  36.482  -2.738  0.00  0.00     0.105 A 
ATOM     29  H1  MOL d           2.721  34.729  -3.978  0.00  0.00     0.089 H 
ATOM     30  O17 MOL d           3.802  36.764  -2.309  0.00  0.00    -0.323 OA
ATOM     31  C16 MOL d           1.673  37.437  -2.202  0.00  0.00     0.105 A 
ATOM     32  C19 MOL d           3.722  37.892  -1.530  0.00  0.00     0.115 A 
ATOM     33  O18 MOL d           2.417  38.312  -1.462  0.00  0.00    -0.323 OA
ATOM     34  H2  MOL d           4.339  38.688  -1.972  0.00  0.00     0.118 H 
ATOM     35  H3  MOL d           4.088  37.665  -0.517  0.00  0.00     0.118 H 
ATOM     36  C22 MOL d           0.307  37.392  -2.464  0.00  0.00    -0.047 A 
ATOM     37  C20 MOL d          -0.176  36.369  -3.274  0.00  0.00    -0.069 A 
ATOM     38  H4  MOL d          -0.364  38.136  -2.049  0.00  0.00     0.087 H 
ATOM     39  H5  MOL d          -1.237  36.313  -3.487  0.00  0.00     0.085 H 
ENDBRANCH   1  26
BRANCH   2  40
ATOM     40  C7  MOL d           0.232  35.394  -6.994  0.00  0.00     0.229 C 
ATOM     41  O21 MOL d           1.238  35.306  -7.697  0.00  0.00    -0.643 OA
ATOM     42  O23 MOL d          -0.545  36.341  -7.132  0.00  0.00    -0.643 OA
ENDBRANCH   2  40
TORSDOF 7
ENDMDL
