REMARK  13 active torsions:
REMARK  status: ('A' for Active; 'I' for Inactive)
REMARK    1  A    between atoms: C_1  and  CA_4 
REMARK       I    between atoms: NAV_21  and  C_1 
REMARK    2  A    between atoms: CAH_9  and  CAL_13 
REMARK    3  A    between atoms: CAL_13  and  CAT_20 
REMARK    4  A    between atoms: CAL_13  and  CBZ_50 
REMARK    5  A    between atoms: CAL_13  and  CCA_51 
REMARK    6  A    between atoms: CAR_18  and  CAS_19 
REMARK    7  A    between atoms: CAZ_24  and  CAR_18 
REMARK    8  A    between atoms: CAX_22  and  NAV_21 
REMARK    9  A    between atoms: CAX_22  and  CAY_23 
REMARK       I    between atoms: CAY_23  and  NBK_35 
REMARK   10  A    between atoms: NBK_35  and  SBM_37 
REMARK   11  A    between atoms: SBM_37  and  CBN_38 
REMARK   12  A    between atoms: CBV_46  and  CBX_48 
REMARK   13  A    between atoms: CBV_46  and  CBY_49 
ROOT
ATOM      1  N   SU3 d         -15.055  -9.789  13.603  0.00  0.00    -0.334 N 
ATOM      2  CA  SU3 d         -13.666  -9.799  14.130  0.00  0.00     0.094 C 
ATOM      3  CB  SU3 d         -12.889 -10.619  13.140  0.00  0.00    -0.011 C 
ATOM      4  CG  SU3 d         -13.921 -11.648  12.701  0.00  0.00     0.067 C 
ATOM      5  CAF SU3 d         -16.040  -9.046  14.085  0.00  0.00     0.244 C 
ATOM      6  OAG SU3 d         -15.787  -8.288  15.031  0.00  0.00    -0.271 OA
ATOM      7  CAH SU3 d         -17.429  -9.047  13.443  0.00  0.00     0.098 C 
ATOM      8  NAI SU3 d         -18.420  -9.307  14.498  0.00  0.00    -0.323 N 
ATOM      9  CAJ SU3 d         -18.942 -10.504  14.668  0.00  0.00     0.361 C 
ATOM     10  OAK SU3 d         -19.803 -10.589  15.710  0.00  0.00    -0.303 OA
ATOM     11  OAM SU3 d         -18.748 -11.457  13.914  0.00  0.00    -0.238 OA
ATOM     12  CAO SU3 d         -13.446 -13.659  13.900  0.00  0.00     0.371 C 
ATOM     13  OAP SU3 d         -12.470 -13.847  13.158  0.00  0.00    -0.238 OA
ATOM     14  NAQ SU3 d         -13.683 -14.470  14.897  0.00  0.00    -0.278 N 
ATOM     15  CBB SU3 d         -12.887 -15.625  15.333  0.00  0.00     0.000 A 
ATOM     16  CBC SU3 d         -13.574 -16.136  16.577  0.00  0.00    -0.008 A 
ATOM     17  CBD SU3 d         -14.723 -15.393  16.835  0.00  0.00    -0.002 A 
ATOM     18  CBE SU3 d         -14.854 -14.291  15.782  0.00  0.00     0.001 A 
ATOM     19  CBF SU3 d         -13.241 -17.194  17.408  0.00  0.00    -0.071 A 
ATOM     20  CBG SU3 d         -14.033 -17.502  18.496  0.00  0.00    -0.082 A 
ATOM     21  CBH SU3 d         -15.171 -16.759  18.751  0.00  0.00    -0.076 A 
ATOM     22  CBI SU3 d         -15.531 -15.689  17.939  0.00  0.00    -0.046 A 
ATOM     23  CBJ SU3 d         -16.851 -15.039  18.362  0.00  0.00    -0.040 C 
ATOM     24  CBS SU3 d         -16.862 -13.582  18.699  0.00  0.00    -0.061 C 
ATOM     25  CBT SU3 d         -18.346 -13.188  18.759  0.00  0.00    -0.064 C 
ATOM     26  CBU SU3 d         -18.863 -12.889  17.350  0.00  0.00    -0.057 C 
ATOM     27  CBV SU3 d         -20.291 -12.357  17.322  0.00  0.00    -0.025 C 
ATOM     28  CBW SU3 d         -20.483 -11.834  15.917  0.00  0.00     0.037 C 
ATOM     29  CD1 SU3 d         -15.176 -10.787  12.522  0.00  0.00     0.023 C 
ATOM     30  OD2 SU3 d         -14.276 -12.607  13.730  0.00  0.00    -0.296 OA
ATOM     31  H1  SU3 d         -13.608 -10.239  15.136  0.00  0.00     0.088 H 
ATOM     32  H2  SU3 d         -12.021 -11.101  13.614  0.00  0.00     0.040 H 
ATOM     33  H3  SU3 d         -12.550 -10.006  12.292  0.00  0.00     0.040 H 
ATOM     34  H4  SU3 d         -13.609 -12.161  11.779  0.00  0.00     0.086 H 
ATOM     35  H5  SU3 d         -17.474  -9.865  12.709  0.00  0.00     0.088 H 
ATOM     36  H6  SU3 d         -18.703  -8.559  15.099  0.00  0.00     0.165 HD
ATOM     37  H19 SU3 d         -11.992 -16.027  14.860  0.00  0.00     0.113 H 
ATOM     38  H20 SU3 d         -15.638 -13.539  15.702  0.00  0.00     0.113 H 
ATOM     39  H21 SU3 d         -12.354 -17.783  17.203  0.00  0.00     0.084 H 
ATOM     40  H22 SU3 d         -13.763 -18.324  19.149  0.00  0.00     0.083 H 
ATOM     41  H23 SU3 d         -15.794 -17.015  19.600  0.00  0.00     0.084 H 
ATOM     42  H24 SU3 d         -17.207 -15.579  19.252  0.00  0.00     0.040 H 
ATOM     43  H25 SU3 d         -17.562 -15.185  17.536  0.00  0.00     0.040 H 
ATOM     44  H32 SU3 d         -16.341 -13.003  17.922  0.00  0.00     0.033 H 
ATOM     45  H33 SU3 d         -16.378 -13.408  19.672  0.00  0.00     0.033 H 
ATOM     46  H34 SU3 d         -18.460 -12.292  19.387  0.00  0.00     0.033 H 
ATOM     47  H35 SU3 d         -18.926 -14.016  19.192  0.00  0.00     0.033 H 
ATOM     48  H36 SU3 d         -18.827 -13.818  16.762  0.00  0.00     0.034 H 
ATOM     49  H37 SU3 d         -18.204 -12.138  16.890  0.00  0.00     0.034 H 
ATOM     50  H38 SU3 d         -20.091 -12.575  15.205  0.00  0.00     0.076 H 
ATOM     51  H39 SU3 d         -21.558 -11.686  15.737  0.00  0.00     0.076 H 
ATOM     52  H52 SU3 d         -15.184 -10.301  11.535  0.00  0.00     0.068 H 
ATOM     53  H53 SU3 d         -16.088 -11.390  12.641  0.00  0.00     0.068 H 
ENDROOT
BRANCH   2  54
ATOM     54  C   SU3 d         -13.207  -8.343  14.153  0.00  0.00     0.241 C 
ATOM     55  O   SU3 d         -13.373  -7.595  13.187  0.00  0.00    -0.271 OA
ATOM     56  NAV SU3 d         -12.573  -7.979  15.267  0.00  0.00    -0.341 N 
ATOM     57  H15 SU3 d         -12.303  -8.692  15.914  0.00  0.00     0.163 HD
BRANCH  56  58
ATOM     58  CAX SU3 d         -12.255  -6.600  15.588  0.00  0.00     0.119 A 
ATOM     59  CAZ SU3 d         -13.529  -5.772  15.897  0.00  0.00    -0.018 A 
ATOM     60  CBA SU3 d         -12.552  -6.144  17.011  0.00  0.00    -0.027 A 
ATOM     61  H16 SU3 d         -14.525  -6.233  15.826  0.00  0.00     0.044 H 
ATOM     62  H17 SU3 d         -11.931  -5.365  17.477  0.00  0.00     0.038 H 
ATOM     63  H18 SU3 d         -12.845  -6.882  17.772  0.00  0.00     0.038 H 
BRANCH  58  64
ATOM     64  CAY SU3 d         -11.032  -5.951  14.961  0.00  0.00     0.259 C 
ATOM     65  NBK SU3 d         -10.265  -6.748  14.252  0.00  0.00    -0.252 N 
ATOM     66  H26 SU3 d         -10.462  -7.723  14.148  0.00  0.00     0.181 HD
ATOM     67  OBL SU3 d         -10.792  -4.775  15.218  0.00  0.00    -0.270 OA
BRANCH  65  68
ATOM     68  SBM SU3 d          -9.000  -6.059  13.569  0.00  0.00     0.237 S 
ATOM     69  OBO SU3 d          -9.425  -4.983  12.628  0.00  0.00    -0.205 OA
ATOM     70  OBP SU3 d          -7.992  -5.609  14.552  0.00  0.00    -0.205 OA
BRANCH  68  71
ATOM     71  CBN SU3 d          -8.252  -7.352  12.580  0.00  0.00     0.063 A 
ATOM     72  CBQ SU3 d          -6.817  -7.055  12.174  0.00  0.00    -0.046 A 
ATOM     73  CBR SU3 d          -7.116  -8.087  13.275  0.00  0.00    -0.046 A 
ATOM     74  H28 SU3 d          -6.359  -6.089  12.434  0.00  0.00     0.035 H 
ATOM     75  H29 SU3 d          -6.441  -7.387  11.195  0.00  0.00     0.035 H 
ATOM     76  H30 SU3 d          -6.955  -9.158  13.085  0.00  0.00     0.035 H 
ATOM     77  H31 SU3 d          -6.873  -7.860  14.323  0.00  0.00     0.035 H 
ATOM     78  H27 SU3 d          -8.969  -7.857  11.916  0.00  0.00     0.066 H 
ENDBRANCH  68  71
ENDBRANCH  65  68
ENDBRANCH  58  64
BRANCH  59  79
ATOM     79  CAR SU3 d         -13.591  -4.292  15.508  0.00  0.00    -0.062 C 
ATOM     80  H7  SU3 d         -14.282  -3.772  16.188  0.00  0.00     0.033 H 
ATOM     81  H8  SU3 d         -12.586  -3.855  15.601  0.00  0.00     0.033 H 
BRANCH  79  82
ATOM     82  CAS SU3 d         -14.081  -4.114  14.065  0.00  0.00    -0.076 C 
ATOM     83  H9  SU3 d         -14.114  -3.042  13.819  0.00  0.00     0.027 H 
ATOM     84  H10 SU3 d         -15.088  -4.544  13.964  0.00  0.00     0.027 H 
ATOM     85  H11 SU3 d         -13.392  -4.627  13.378  0.00  0.00     0.027 H 
ENDBRANCH  79  82
ENDBRANCH  59  79
ENDBRANCH  56  58
ENDBRANCH   2  54
BRANCH   7  86
ATOM     86  CAL SU3 d         -17.723  -7.730  12.701  0.00  0.00    -0.022 C 
BRANCH  86  87
ATOM     87  CAT SU3 d         -17.820  -6.513  13.640  0.00  0.00    -0.067 C 
ATOM     88  H12 SU3 d         -18.030  -5.610  13.049  0.00  0.00     0.028 H 
ATOM     89  H13 SU3 d         -16.868  -6.387  14.176  0.00  0.00     0.028 H 
ATOM     90  H14 SU3 d         -18.631  -6.673  14.366  0.00  0.00     0.028 H 
ENDBRANCH  86  87
BRANCH  86  91
ATOM     91  CBZ SU3 d         -16.638  -7.491  11.662  0.00  0.00    -0.067 C 
ATOM     92  H46 SU3 d         -16.572  -8.362  10.994  0.00  0.00     0.028 H 
ATOM     93  H47 SU3 d         -15.672  -7.343  12.168  0.00  0.00     0.028 H 
ATOM     94  H48 SU3 d         -16.885  -6.595  11.073  0.00  0.00     0.028 H 
ENDBRANCH  86  91
BRANCH  86  95
ATOM     95  CCA SU3 d         -19.065  -7.866  11.975  0.00  0.00    -0.067 C 
ATOM     96  H49 SU3 d         -19.864  -8.040  12.711  0.00  0.00     0.028 H 
ATOM     97  H50 SU3 d         -19.020  -8.714  11.276  0.00  0.00     0.028 H 
ATOM     98  H51 SU3 d         -19.275  -6.942  11.417  0.00  0.00     0.028 H 
ENDBRANCH  86  95
ENDBRANCH   7  86
BRANCH  27  99
ATOM     99  CBX SU3 d         -21.322 -13.469  17.545  0.00  0.00    -0.067 C 
ATOM    100  H40 SU3 d         -21.210 -13.874  18.562  0.00  0.00     0.028 H 
ATOM    101  H41 SU3 d         -21.160 -14.272  16.811  0.00  0.00     0.028 H 
ATOM    102  H42 SU3 d         -22.335 -13.059  17.423  0.00  0.00     0.028 H 
ENDBRANCH  27  99
BRANCH  27 103
ATOM    103  CBY SU3 d         -20.479 -11.243  18.367  0.00  0.00    -0.067 C 
ATOM    104  H43 SU3 d         -19.734 -10.451  18.197  0.00  0.00     0.028 H 
ATOM    105  H44 SU3 d         -20.346 -11.661  19.376  0.00  0.00     0.028 H 
ATOM    106  H45 SU3 d         -21.491 -10.821  18.275  0.00  0.00     0.028 H 
ENDBRANCH  27 103
TORSDOF 13
