MODEL 1
REMARK VINA RESULT:     -10.4      0.000      0.000
REMARK  13 active torsions:
REMARK  status: ('A' for Active; 'I' for Inactive)
REMARK    1  A    between atoms: C_1  and  CA_4 
REMARK       I    between atoms: NAV_21  and  C_1 
REMARK    2  A    between atoms: CAH_9  and  CAL_13 
REMARK    3  A    between atoms: CAL_13  and  CAT_20 
REMARK    4  A    between atoms: CAL_13  and  CBZ_50 
REMARK    5  A    between atoms: CAL_13  and  CCA_51 
REMARK    6  A    between atoms: CAR_18  and  CAS_19 
REMARK    7  A    between atoms: CAZ_24  and  CAR_18 
REMARK    8  A    between atoms: CAX_22  and  NAV_21 
REMARK    9  A    between atoms: CAX_22  and  CAY_23 
REMARK       I    between atoms: CAY_23  and  NBK_35 
REMARK   10  A    between atoms: NBK_35  and  SBM_37 
REMARK   11  A    between atoms: SBM_37  and  CBN_38 
REMARK   12  A    between atoms: CBV_46  and  CBX_48 
REMARK   13  A    between atoms: CBV_46  and  CBY_49 
ROOT
ATOM      1  N   SU3 d         -15.054  -9.783  13.453  0.00  0.00    -0.334 N 
ATOM      2  CA  SU3 d         -13.635  -9.799  13.894  0.00  0.00     0.094 C 
ATOM      3  CB  SU3 d         -12.921 -10.606  12.848  0.00  0.00    -0.011 C 
ATOM      4  CG  SU3 d         -13.978 -11.630  12.461  0.00  0.00     0.067 C 
ATOM      5  CAF SU3 d         -16.007  -9.046  14.003  0.00  0.00     0.244 C 
ATOM      6  OAG SU3 d         -15.696  -8.299  14.941  0.00  0.00    -0.271 OA
ATOM      7  CAH SU3 d         -17.433  -9.039  13.448  0.00  0.00     0.098 C 
ATOM      8  NAI SU3 d         -18.358  -9.312  14.558  0.00  0.00    -0.323 N 
ATOM      9  CAJ SU3 d         -18.869 -10.512  14.745  0.00  0.00     0.361 C 
ATOM     10  OAK SU3 d         -19.665 -10.610  15.836  0.00  0.00    -0.303 OA
ATOM     11  OAM SU3 d         -18.722 -11.455  13.969  0.00  0.00    -0.238 OA
ATOM     12  CAO SU3 d         -13.432 -13.655  13.604  0.00  0.00     0.371 C 
ATOM     13  OAP SU3 d         -12.503 -13.834  12.801  0.00  0.00    -0.238 OA
ATOM     14  NAQ SU3 d         -13.608 -14.479  14.603  0.00  0.00    -0.278 N 
ATOM     15  CBB SU3 d         -12.787 -15.639  14.975  0.00  0.00     0.000 A 
ATOM     16  CBC SU3 d         -13.397 -16.165  16.253  0.00  0.00    -0.008 A 
ATOM     17  CBD SU3 d         -14.528 -15.426  16.590  0.00  0.00    -0.002 A 
ATOM     18  CBE SU3 d         -14.722 -14.311  15.560  0.00  0.00     0.001 A 
ATOM     19  CBF SU3 d         -13.014 -17.233  17.049  0.00  0.00    -0.071 A 
ATOM     20  CBG SU3 d         -13.738 -17.555  18.179  0.00  0.00    -0.082 A 
ATOM     21  CBH SU3 d         -14.858 -16.815  18.513  0.00  0.00    -0.076 A 
ATOM     22  CBI SU3 d         -15.267 -15.736  17.737  0.00  0.00    -0.046 A 
ATOM     23  CBJ SU3 d         -16.558 -15.091  18.248  0.00  0.00    -0.040 C 
ATOM     24  CBS SU3 d         -16.548 -13.638  18.603  0.00  0.00    -0.061 C 
ATOM     25  CBT SU3 d         -18.025 -13.245  18.759  0.00  0.00    -0.064 C 
ATOM     26  CBU SU3 d         -18.627 -12.929  17.388  0.00  0.00    -0.057 C 
ATOM     27  CBV SU3 d         -20.054 -12.397  17.453  0.00  0.00    -0.025 C 
ATOM     28  CBW SU3 d         -20.331 -11.857  16.069  0.00  0.00     0.037 C 
ATOM     29  CD1 SU3 d         -15.241 -10.767  12.369  0.00  0.00     0.023 C 
ATOM     30  OD2 SU3 d         -14.270 -12.602  13.498  0.00  0.00    -0.296 OA
ATOM     31  H1  SU3 d         -13.516 -10.251  14.889  0.00  0.00     0.088 H 
ATOM     32  H2  SU3 d         -12.026 -11.094  13.262  0.00  0.00     0.040 H 
ATOM     33  H3  SU3 d         -12.634  -9.983  11.989  0.00  0.00     0.040 H 
ATOM     34  H4  SU3 d         -13.723 -12.132  11.515  0.00  0.00     0.086 H 
ATOM     35  H5  SU3 d         -17.523  -9.848  12.708  0.00  0.00     0.088 H 
ATOM     36  H6  SU3 d         -18.603  -8.572  15.184  0.00  0.00     0.165 HD
ATOM     37  H19 SU3 d         -11.923 -16.035  14.444  0.00  0.00     0.113 H 
ATOM     38  H20 SU3 d         -15.509 -13.558  15.538  0.00  0.00     0.113 H 
ATOM     39  H21 SU3 d         -12.142 -17.819  16.783  0.00  0.00     0.084 H 
ATOM     40  H22 SU3 d         -13.429 -18.385  18.804  0.00  0.00     0.083 H 
ATOM     41  H23 SU3 d         -15.428 -17.082  19.395  0.00  0.00     0.084 H 
ATOM     42  H24 SU3 d         -16.859 -15.642  19.152  0.00  0.00     0.040 H 
ATOM     43  H25 SU3 d         -17.318 -15.227  17.465  0.00  0.00     0.040 H 
ATOM     44  H32 SU3 d         -16.075 -13.050  17.803  0.00  0.00     0.033 H 
ATOM     45  H33 SU3 d         -16.005 -13.476  19.547  0.00  0.00     0.033 H 
ATOM     46  H34 SU3 d         -18.100 -12.357  19.403  0.00  0.00     0.033 H 
ATOM     47  H35 SU3 d         -18.578 -14.079  19.216  0.00  0.00     0.033 H 
ATOM     48  H36 SU3 d         -18.628 -13.851  16.787  0.00  0.00     0.034 H 
ATOM     49  H37 SU3 d         -17.997 -12.173  16.897  0.00  0.00     0.034 H 
ATOM     50  H38 SU3 d         -19.984 -12.589  15.326  0.00  0.00     0.076 H 
ATOM     51  H39 SU3 d         -21.415 -11.707  15.957  0.00  0.00     0.076 H 
ATOM     52  H52 SU3 d         -15.309 -10.269  11.391  0.00  0.00     0.068 H 
ATOM     53  H53 SU3 d         -16.145 -11.372  12.536  0.00  0.00     0.068 H 
ENDROOT
BRANCH   2  54
ATOM     54  C   SU3 d         -13.175  -8.343  13.907  0.00  0.00     0.241 C 
ATOM     55  O   SU3 d         -13.163  -7.657  12.882  0.00  0.00    -0.271 OA
ATOM     56  NAV SU3 d         -12.743  -7.908  15.090  0.00  0.00    -0.341 N 
ATOM     57  H15 SU3 d         -12.596  -8.579  15.817  0.00  0.00     0.163 HD
BRANCH  56  58
ATOM     58  CAX SU3 d         -12.474  -6.511  15.376  0.00  0.00     0.119 A 
ATOM     59  CAZ SU3 d         -13.773  -5.664  15.381  0.00  0.00    -0.018 A 
ATOM     60  CBA SU3 d         -13.031  -5.962  16.683  0.00  0.00    -0.027 A 
ATOM     61  H16 SU3 d         -14.743  -6.129  15.152  0.00  0.00     0.044 H 
ATOM     62  H17 SU3 d         -12.500  -5.154  17.207  0.00  0.00     0.038 H 
ATOM     63  H18 SU3 d         -13.473  -6.648  17.420  0.00  0.00     0.038 H 
BRANCH  58  64
ATOM     64  CAY SU3 d         -11.146  -5.905  14.953  0.00  0.00     0.259 C 
ATOM     65  NBK SU3 d         -10.517  -6.532  13.984  0.00  0.00    -0.252 N 
ATOM     66  H26 SU3 d         -10.879  -7.365  13.565  0.00  0.00     0.181 HD
ATOM     67  OBL SU3 d         -10.709  -4.945  15.581  0.00  0.00    -0.270 OA
BRANCH  65  68
ATOM     68  SBM SU3 d          -9.140  -5.877  13.520  0.00  0.00     0.237 S 
ATOM     69  OBO SU3 d          -9.382  -4.697  12.641  0.00  0.00    -0.205 OA
ATOM     70  OBP SU3 d          -8.234  -5.584  14.651  0.00  0.00    -0.205 OA
BRANCH  68  71
ATOM     71  CBN SU3 d          -8.354  -7.129  12.508  0.00  0.00     0.063 A 
ATOM     72  CBQ SU3 d          -7.041  -6.677  11.889  0.00  0.00    -0.046 A 
ATOM     73  CBR SU3 d          -7.045  -7.656  13.076  0.00  0.00    -0.046 A 
ATOM     74  H28 SU3 d          -6.693  -5.643  12.029  0.00  0.00     0.035 H 
ATOM     75  H29 SU3 d          -6.754  -7.028  10.887  0.00  0.00     0.035 H 
ATOM     76  H30 SU3 d          -6.762  -8.707  12.924  0.00  0.00     0.035 H 
ATOM     77  H31 SU3 d          -6.701  -7.323  14.066  0.00  0.00     0.035 H 
ATOM     78  H27 SU3 d          -9.075  -7.771  11.980  0.00  0.00     0.066 H 
ENDBRANCH  68  71
ENDBRANCH  65  68
ENDBRANCH  58  64
BRANCH  59  79
ATOM     79  CAR SU3 d         -13.741  -4.213  14.893  0.00  0.00    -0.062 C 
ATOM     80  H7  SU3 d         -13.832  -3.542  15.759  0.00  0.00     0.033 H 
ATOM     81  H8  SU3 d         -12.784  -4.028  14.383  0.00  0.00     0.033 H 
BRANCH  79  82
ATOM     82  CAS SU3 d         -14.889  -3.928  13.916  0.00  0.00    -0.076 C 
ATOM     83  H9  SU3 d         -15.470  -4.848  13.754  0.00  0.00     0.027 H 
ATOM     84  H10 SU3 d         -14.478  -3.582  12.957  0.00  0.00     0.027 H 
ATOM     85  H11 SU3 d         -15.544  -3.150  14.337  0.00  0.00     0.027 H 
ENDBRANCH  79  82
ENDBRANCH  59  79
ENDBRANCH  56  58
ENDBRANCH   2  54
BRANCH   7  86
ATOM     86  CAL SU3 d         -17.771  -7.713  12.741  0.00  0.00    -0.022 C 
BRANCH  86  87
ATOM     87  CAT SU3 d         -18.174  -6.592  13.717  0.00  0.00    -0.067 C 
ATOM     88  H12 SU3 d         -17.499  -5.734  13.588  0.00  0.00     0.028 H 
ATOM     89  H13 SU3 d         -18.104  -6.962  14.750  0.00  0.00     0.028 H 
ATOM     90  H14 SU3 d         -19.209  -6.279  13.509  0.00  0.00     0.028 H 
ENDBRANCH  86  87
BRANCH  86  91
ATOM     91  CBZ SU3 d         -16.573  -7.269  11.916  0.00  0.00    -0.067 C 
ATOM     92  H46 SU3 d         -16.364  -8.020  11.140  0.00  0.00     0.028 H 
ATOM     93  H47 SU3 d         -15.695  -7.165  12.571  0.00  0.00     0.028 H 
ATOM     94  H48 SU3 d         -16.793  -6.302  11.441  0.00  0.00     0.028 H 
ENDBRANCH  86  91
BRANCH  86  95
ATOM     95  CCA SU3 d         -18.950  -7.951  11.792  0.00  0.00    -0.067 C 
ATOM     96  H49 SU3 d         -18.587  -8.426  10.869  0.00  0.00     0.028 H 
ATOM     97  H50 SU3 d         -19.423  -6.989  11.547  0.00  0.00     0.028 H 
ATOM     98  H51 SU3 d         -19.685  -8.608  12.278  0.00  0.00     0.028 H 
ENDBRANCH  86  95
ENDBRANCH   7  86
BRANCH  27  99
ATOM     99  CBX SU3 d         -21.070 -13.512  17.725  0.00  0.00    -0.067 C 
ATOM    100  H40 SU3 d         -21.063 -14.227  16.889  0.00  0.00     0.028 H 
ATOM    101  H41 SU3 d         -22.075 -13.076  17.826  0.00  0.00     0.028 H 
ATOM    102  H42 SU3 d         -20.801 -14.034  18.655  0.00  0.00     0.028 H 
ENDBRANCH  27  99
BRANCH  27 103
ATOM    103  CBY SU3 d         -20.177 -11.296  18.522  0.00  0.00    -0.067 C 
ATOM    104  H43 SU3 d         -21.208 -10.910  18.534  0.00  0.00     0.028 H 
ATOM    105  H44 SU3 d         -19.482 -10.477  18.285  0.00  0.00     0.028 H 
ATOM    106  H45 SU3 d         -19.930 -11.714  19.509  0.00  0.00     0.028 H 
ENDBRANCH  27 103
TORSDOF 13
ENDMDL
