MODEL 1
REMARK VINA RESULT:      -8.1      0.000      0.000
REMARK  6 active torsions:
REMARK  status: ('A' for Active; 'I' for Inactive)
REMARK    1  A    between atoms: C10_2  and  C11_3 
REMARK    2  A    between atoms: C4_18  and  N9_17 
REMARK    3  A    between atoms: N9_17  and  C8_24 
REMARK    4  A    between atoms: C1_21  and  C18_22 
REMARK    5  A    between atoms: C8_24  and  C23_23 
REMARK    6  A    between atoms: C23_23  and  O24_25 
ROOT
ATOM      1  C2  PFQ d          13.422  -0.214  10.045  0.00  0.00     0.091 A 
ATOM      2  C10 PFQ d          17.498  -2.020   9.616  0.00  0.00     0.100 A 
ATOM      3  N1  PFQ d          14.607  -0.008   9.494  0.00  0.00    -0.217 NA
ATOM      4  C6  PFQ d          15.596  -0.900   9.652  0.00  0.00     0.186 A 
ATOM      5  O6  PFQ d          16.874  -0.892   9.189  0.00  0.00    -0.289 OA
ATOM      6  C5  PFQ d          15.395  -2.059  10.401  0.00  0.00     0.077 A 
ATOM      7  C4  PFQ d          14.128  -2.240  10.966  0.00  0.00     0.140 A 
ATOM      8  N3  PFQ d          13.188  -1.299  10.760  0.00  0.00    -0.224 NA
ATOM      9  C1  PFQ d          16.600  -2.772  10.383  0.00  0.00     0.027 A 
ATOM     10  H1  PFQ d          12.634   0.517   9.909  0.00  0.00     0.146 H 
ENDROOT
BRANCH   2  11
ATOM     11  C11 PFQ d          18.824  -2.223   9.246  0.00  0.00    -0.001 A 
ATOM     12  C12 PFQ d          19.626  -3.255   9.730  0.00  0.00    -0.070 A 
ATOM     13  C13 PFQ d          20.942  -3.357   9.274  0.00  0.00    -0.082 A 
ATOM     14  H2  PFQ d          19.235  -3.966  10.449  0.00  0.00     0.084 H 
ATOM     15  C14 PFQ d          21.443  -2.448   8.341  0.00  0.00    -0.083 A 
ATOM     16  H3  PFQ d          21.580  -4.150   9.647  0.00  0.00     0.083 H 
ATOM     17  C15 PFQ d          20.642  -1.412   7.858  0.00  0.00    -0.082 A 
ATOM     18  H4  PFQ d          22.463  -2.547   7.988  0.00  0.00     0.083 H 
ATOM     19  C16 PFQ d          19.333  -1.330   8.305  0.00  0.00    -0.070 A 
ATOM     20  H5  PFQ d          21.034  -0.689   7.152  0.00  0.00     0.083 H 
ATOM     21  H6  PFQ d          18.689  -0.552   7.914  0.00  0.00     0.084 H 
ENDBRANCH   2  11
BRANCH   9  22
ATOM     22  C18 PFQ d          16.783  -4.004  11.033  0.00  0.00    -0.022 A 
ATOM     23  C19 PFQ d          17.113  -4.027  12.393  0.00  0.00    -0.072 A 
ATOM     24  C20 PFQ d          17.336  -5.223  13.080  0.00  0.00    -0.082 A 
ATOM     25  H7  PFQ d          17.198  -3.088  12.930  0.00  0.00     0.084 H 
ATOM     26  C21 PFQ d          17.231  -6.430  12.386  0.00  0.00    -0.083 A 
ATOM     27  H8  PFQ d          17.587  -5.214  14.134  0.00  0.00     0.083 H 
ATOM     28  C22 PFQ d          16.906  -6.411  11.017  0.00  0.00    -0.082 A 
ATOM     29  H9  PFQ d          17.398  -7.372  12.897  0.00  0.00     0.083 H 
ATOM     30  C17 PFQ d          16.686  -5.210  10.336  0.00  0.00    -0.072 A 
ATOM     31  H10 PFQ d          16.825  -7.349  10.479  0.00  0.00     0.083 H 
ATOM     32  H12 PFQ d          16.442  -5.215   9.279  0.00  0.00     0.084 H 
ENDBRANCH   9  22
BRANCH   7  33
ATOM     33  N9  PFQ d          13.820  -3.309  11.709  0.00  0.00    -0.372 N 
ATOM     34  H11 PFQ d          14.558  -3.975  11.976  0.00  0.00     0.161 HD
BRANCH  33  35
ATOM     35  C8  PFQ d          12.430  -3.541  12.148  0.00  0.00     0.013 C 
ATOM     36  H15 PFQ d          12.207  -4.618  12.097  0.00  0.00     0.067 H 
ATOM     37  H16 PFQ d          11.743  -2.993  11.486  0.00  0.00     0.067 H 
BRANCH  35  38
ATOM     38  C23 PFQ d          12.240  -3.053  13.592  0.00  0.00     0.031 C 
ATOM     39  H13 PFQ d          13.206  -3.082  14.116  0.00  0.00     0.076 H 
ATOM     40  H14 PFQ d          11.523  -3.710  14.108  0.00  0.00     0.076 H 
BRANCH  38  41
ATOM     41  O24 PFQ d          11.738  -1.710  13.592  0.00  0.00    -0.399 OA
ATOM     42  H17 PFQ d          11.119  -1.605  12.879  0.00  0.00     0.209 HD
ENDBRANCH  38  41
ENDBRANCH  35  38
ENDBRANCH  33  35
ENDBRANCH   7  33
TORSDOF 6
ENDMDL
MODEL 2
REMARK VINA RESULT:      -8.0      2.768      5.727
REMARK  6 active torsions:
REMARK  status: ('A' for Active; 'I' for Inactive)
REMARK    1  A    between atoms: C10_2  and  C11_3 
REMARK    2  A    between atoms: C4_18  and  N9_17 
REMARK    3  A    between atoms: N9_17  and  C8_24 
REMARK    4  A    between atoms: C1_21  and  C18_22 
REMARK    5  A    between atoms: C8_24  and  C23_23 
REMARK    6  A    between atoms: C23_23  and  O24_25 
ROOT
ATOM      1  C2  PFQ d          20.587  -1.465   8.009  0.00  0.00     0.091 A 
ATOM      2  C10 PFQ d          16.528  -1.982   9.832  0.00  0.00     0.100 A 
ATOM      3  N1  PFQ d          19.382  -0.920   8.057  0.00  0.00    -0.217 NA
ATOM      4  C6  PFQ d          18.412  -1.475   8.799  0.00  0.00     0.186 A 
ATOM      5  O6  PFQ d          17.120  -1.097   8.989  0.00  0.00    -0.289 OA
ATOM      6  C5  PFQ d          18.655  -2.635   9.533  0.00  0.00     0.077 A 
ATOM      7  C4  PFQ d          19.941  -3.180   9.457  0.00  0.00     0.140 A 
ATOM      8  N3  PFQ d          20.859  -2.563   8.691  0.00  0.00    -0.224 NA
ATOM      9  C1  PFQ d          17.462  -2.963  10.188  0.00  0.00     0.027 A 
ATOM     10  H1  PFQ d          21.358  -1.005   7.404  0.00  0.00     0.146 H 
ENDROOT
BRANCH   2  11
ATOM     11  C11 PFQ d          15.194  -1.779  10.174  0.00  0.00    -0.001 A 
ATOM     12  C12 PFQ d          14.403  -2.713  10.839  0.00  0.00    -0.070 A 
ATOM     13  C13 PFQ d          13.078  -2.385  11.134  0.00  0.00    -0.082 A 
ATOM     14  H2  PFQ d          14.809  -3.676  11.124  0.00  0.00     0.084 H 
ATOM     15  C14 PFQ d          12.557  -1.141  10.777  0.00  0.00    -0.083 A 
ATOM     16  H3  PFQ d          12.447  -3.105  11.645  0.00  0.00     0.083 H 
ATOM     17  C15 PFQ d          13.348  -0.207  10.106  0.00  0.00    -0.082 A 
ATOM     18  H4  PFQ d          11.529  -0.897  11.022  0.00  0.00     0.083 H 
ATOM     19  C16 PFQ d          14.666  -0.536   9.834  0.00  0.00    -0.070 A 
ATOM     20  H5  PFQ d          12.941   0.752   9.806  0.00  0.00     0.083 H 
ATOM     21  H6  PFQ d          15.301   0.193   9.345  0.00  0.00     0.084 H 
ENDBRANCH   2  11
BRANCH   9  22
ATOM     22  C18 PFQ d          17.318  -4.078  11.030  0.00  0.00    -0.022 A 
ATOM     23  C19 PFQ d          16.973  -5.319  10.482  0.00  0.00    -0.072 A 
ATOM     24  C20 PFQ d          16.788  -6.453  11.278  0.00  0.00    -0.082 A 
ATOM     25  H7  PFQ d          16.846  -5.403   9.409  0.00  0.00     0.084 H 
ATOM     26  C21 PFQ d          16.948  -6.341  12.661  0.00  0.00    -0.083 A 
ATOM     27  H8  PFQ d          16.525  -7.403  10.830  0.00  0.00     0.083 H 
ATOM     28  C22 PFQ d          17.288  -5.094  13.216  0.00  0.00    -0.082 A 
ATOM     29  H9  PFQ d          16.812  -7.207  13.300  0.00  0.00     0.083 H 
ATOM     30  C17 PFQ d          17.471  -3.963  12.414  0.00  0.00    -0.072 A 
ATOM     31  H10 PFQ d          17.412  -5.008  14.290  0.00  0.00     0.083 H 
ATOM     32  H12 PFQ d          17.727  -3.009  12.860  0.00  0.00     0.084 H 
ENDBRANCH   9  22
BRANCH   7  33
ATOM     33  N9  PFQ d          20.290  -4.292  10.112  0.00  0.00    -0.372 N 
ATOM     34  H11 PFQ d          20.009  -5.212   9.741  0.00  0.00     0.161 HD
BRANCH  33  35
ATOM     35  C8  PFQ d          21.074  -4.214  11.360  0.00  0.00     0.013 C 
ATOM     36  H15 PFQ d          20.612  -3.478  12.034  0.00  0.00     0.067 H 
ATOM     37  H16 PFQ d          22.102  -3.902  11.124  0.00  0.00     0.067 H 
BRANCH  35  38
ATOM     38  C23 PFQ d          21.106  -5.585  12.054  0.00  0.00     0.031 C 
ATOM     39  H13 PFQ d          20.784  -5.472  13.099  0.00  0.00     0.076 H 
ATOM     40  H14 PFQ d          22.132  -5.982  12.027  0.00  0.00     0.076 H 
BRANCH  38  41
ATOM     41  O24 PFQ d          20.227  -6.494  11.380  0.00  0.00    -0.399 OA
ATOM     42  H17 PFQ d          20.721  -7.249  11.082  0.00  0.00     0.209 HD
ENDBRANCH  38  41
ENDBRANCH  35  38
ENDBRANCH  33  35
ENDBRANCH   7  33
TORSDOF 6
ENDMDL
MODEL 3
REMARK VINA RESULT:      -7.9      1.277      1.852
REMARK  6 active torsions:
REMARK  status: ('A' for Active; 'I' for Inactive)
REMARK    1  A    between atoms: C10_2  and  C11_3 
REMARK    2  A    between atoms: C4_18  and  N9_17 
REMARK    3  A    between atoms: N9_17  and  C8_24 
REMARK    4  A    between atoms: C1_21  and  C18_22 
REMARK    5  A    between atoms: C8_24  and  C23_23 
REMARK    6  A    between atoms: C23_23  and  O24_25 
ROOT
ATOM      1  C2  PFQ d          15.366   0.290   9.115  0.00  0.00     0.091 A 
ATOM      2  C10 PFQ d          18.873  -2.388   9.880  0.00  0.00     0.100 A 
ATOM      3  N1  PFQ d          16.671   0.191   8.921  0.00  0.00    -0.217 NA
ATOM      4  C6  PFQ d          17.346  -0.881   9.362  0.00  0.00     0.186 A 
ATOM      5  O6  PFQ d          18.668  -1.186   9.282  0.00  0.00    -0.289 OA
ATOM      6  C5  PFQ d          16.686  -1.909  10.035  0.00  0.00     0.077 A 
ATOM      7  C4  PFQ d          15.306  -1.766  10.220  0.00  0.00     0.140 A 
ATOM      8  N3  PFQ d          14.702  -0.662   9.746  0.00  0.00    -0.224 NA
ATOM      9  C1  PFQ d          17.651  -2.867  10.368  0.00  0.00     0.027 A 
ATOM     10  H1  PFQ d          14.836   1.162   8.753  0.00  0.00     0.146 H 
ENDROOT
BRANCH   2  11
ATOM     11  C11 PFQ d          20.166  -2.903   9.903  0.00  0.00    -0.001 A 
ATOM     12  C12 PFQ d          20.854  -3.351   8.777  0.00  0.00    -0.070 A 
ATOM     13  C13 PFQ d          22.153  -3.840   8.930  0.00  0.00    -0.082 A 
ATOM     14  H2  PFQ d          20.388  -3.320   7.798  0.00  0.00     0.084 H 
ATOM     15  C14 PFQ d          22.757  -3.870  10.188  0.00  0.00    -0.083 A 
ATOM     16  H3  PFQ d          22.698  -4.199   8.064  0.00  0.00     0.083 H 
ATOM     17  C15 PFQ d          22.067  -3.425  11.317  0.00  0.00    -0.082 A 
ATOM     18  H4  PFQ d          23.770  -4.241  10.289  0.00  0.00     0.083 H 
ATOM     19  C16 PFQ d          20.785  -2.927  11.150  0.00  0.00    -0.070 A 
ATOM     20  H5  PFQ d          22.523  -3.469  12.300  0.00  0.00     0.083 H 
ATOM     21  H6  PFQ d          20.250  -2.547  12.012  0.00  0.00     0.084 H 
ENDBRANCH   2  11
BRANCH   9  22
ATOM     22  C18 PFQ d          17.360  -4.056  11.056  0.00  0.00    -0.022 A 
ATOM     23  C19 PFQ d          17.433  -4.083  12.453  0.00  0.00    -0.072 A 
ATOM     24  C20 PFQ d          17.184  -5.248  13.184  0.00  0.00    -0.082 A 
ATOM     25  H7  PFQ d          17.691  -3.174  12.984  0.00  0.00     0.084 H 
ATOM     26  C21 PFQ d          16.857  -6.419  12.498  0.00  0.00    -0.083 A 
ATOM     27  H8  PFQ d          17.244  -5.242  14.266  0.00  0.00     0.083 H 
ATOM     28  C22 PFQ d          16.790  -6.398  11.093  0.00  0.00    -0.082 A 
ATOM     29  H9  PFQ d          16.658  -7.335  13.043  0.00  0.00     0.083 H 
ATOM     30  C17 PFQ d          17.042  -5.229  10.368  0.00  0.00    -0.072 A 
ATOM     31  H10 PFQ d          16.537  -7.309  10.561  0.00  0.00     0.083 H 
ATOM     32  H12 PFQ d          16.991  -5.233   9.285  0.00  0.00     0.084 H 
ENDBRANCH   9  22
BRANCH   7  33
ATOM     33  N9  PFQ d          14.569  -2.683  10.855  0.00  0.00    -0.372 N 
ATOM     34  H11 PFQ d          14.322  -3.561  10.376  0.00  0.00     0.161 HD
BRANCH  33  35
ATOM     35  C8  PFQ d          14.104  -2.448  12.237  0.00  0.00     0.013 C 
ATOM     36  H15 PFQ d          14.714  -1.655  12.695  0.00  0.00     0.067 H 
ATOM     37  H16 PFQ d          14.212  -3.376  12.818  0.00  0.00     0.067 H 
BRANCH  35  38
ATOM     38  C23 PFQ d          12.630  -2.017  12.236  0.00  0.00     0.031 C 
ATOM     39  H13 PFQ d          12.179  -2.259  13.209  0.00  0.00     0.076 H 
ATOM     40  H14 PFQ d          12.094  -2.554  11.439  0.00  0.00     0.076 H 
BRANCH  38  41
ATOM     41  O24 PFQ d          12.534  -0.605  12.006  0.00  0.00    -0.399 OA
ATOM     42  H17 PFQ d          13.219  -0.336  11.405  0.00  0.00     0.209 HD
ENDBRANCH  38  41
ENDBRANCH  35  38
ENDBRANCH  33  35
ENDBRANCH   7  33
TORSDOF 6
ENDMDL
MODEL 4
REMARK VINA RESULT:      -7.4      2.756      6.885
REMARK  6 active torsions:
REMARK  status: ('A' for Active; 'I' for Inactive)
REMARK    1  A    between atoms: C10_2  and  C11_3 
REMARK    2  A    between atoms: C4_18  and  N9_17 
REMARK    3  A    between atoms: N9_17  and  C8_24 
REMARK    4  A    between atoms: C1_21  and  C18_22 
REMARK    5  A    between atoms: C8_24  and  C23_23 
REMARK    6  A    between atoms: C23_23  and  O24_25 
ROOT
ATOM      1  C2  PFQ d          17.853  -6.834  12.767  0.00  0.00     0.091 A 
ATOM      2  C10 PFQ d          15.030  -3.397  12.240  0.00  0.00     0.100 A 
ATOM      3  N1  PFQ d          16.709  -6.340  13.211  0.00  0.00    -0.217 NA
ATOM      4  C6  PFQ d          16.222  -5.194  12.712  0.00  0.00     0.186 A 
ATOM      5  O6  PFQ d          15.089  -4.509  13.017  0.00  0.00    -0.289 OA
ATOM      6  C5  PFQ d          16.914  -4.501  11.720  0.00  0.00     0.077 A 
ATOM      7  C4  PFQ d          18.120  -5.056  11.277  0.00  0.00     0.140 A 
ATOM      8  N3  PFQ d          18.539  -6.211  11.827  0.00  0.00    -0.224 NA
ATOM      9  C1  PFQ d          16.163  -3.358  11.418  0.00  0.00     0.027 A 
ATOM     10  H1  PFQ d          18.232  -7.761  13.181  0.00  0.00     0.146 H 
ENDROOT
BRANCH   2  11
ATOM     11  C11 PFQ d          13.936  -2.548  12.381  0.00  0.00    -0.001 A 
ATOM     12  C12 PFQ d          13.727  -1.402  11.616  0.00  0.00    -0.070 A 
ATOM     13  C13 PFQ d          12.583  -0.636  11.848  0.00  0.00    -0.082 A 
ATOM     14  H2  PFQ d          14.441  -1.111  10.854  0.00  0.00     0.084 H 
ATOM     15  C14 PFQ d          11.659  -1.016  12.823  0.00  0.00    -0.083 A 
ATOM     16  H3  PFQ d          12.411   0.262  11.266  0.00  0.00     0.083 H 
ATOM     17  C15 PFQ d          11.870  -2.162  13.592  0.00  0.00    -0.082 A 
ATOM     18  H4  PFQ d          10.770  -0.417  12.984  0.00  0.00     0.083 H 
ATOM     19  C16 PFQ d          13.000  -2.923  13.342  0.00  0.00    -0.070 A 
ATOM     20  H5  PFQ d          11.167  -2.448  14.367  0.00  0.00     0.083 H 
ATOM     21  H6  PFQ d          13.159  -3.833  13.907  0.00  0.00     0.084 H 
ENDBRANCH   2  11
BRANCH   9  22
ATOM     22  C18 PFQ d          16.545  -2.409  10.455  0.00  0.00    -0.022 A 
ATOM     23  C19 PFQ d          17.500  -1.439  10.779  0.00  0.00    -0.072 A 
ATOM     24  C20 PFQ d          17.892  -0.454   9.869  0.00  0.00    -0.082 A 
ATOM     25  H7  PFQ d          17.949  -1.453  11.767  0.00  0.00     0.084 H 
ATOM     26  C21 PFQ d          17.309  -0.436   8.601  0.00  0.00    -0.083 A 
ATOM     27  H8  PFQ d          18.637   0.284  10.144  0.00  0.00     0.083 H 
ATOM     28  C22 PFQ d          16.343  -1.405   8.273  0.00  0.00    -0.082 A 
ATOM     29  H9  PFQ d          17.598   0.317   7.876  0.00  0.00     0.083 H 
ATOM     30  C17 PFQ d          15.955  -2.387   9.189  0.00  0.00    -0.072 A 
ATOM     31  H10 PFQ d          15.890  -1.390   7.287  0.00  0.00     0.083 H 
ATOM     32  H12 PFQ d          15.205  -3.123   8.921  0.00  0.00     0.084 H 
ENDBRANCH   9  22
BRANCH   7  33
ATOM     33  N9  PFQ d          18.873  -4.479  10.335  0.00  0.00    -0.372 N 
ATOM     34  H11 PFQ d          18.552  -4.476   9.356  0.00  0.00     0.161 HD
BRANCH  33  35
ATOM     35  C8  PFQ d          20.161  -3.848  10.685  0.00  0.00     0.013 C 
ATOM     36  H15 PFQ d          20.878  -4.626  10.987  0.00  0.00     0.067 H 
ATOM     37  H16 PFQ d          20.006  -3.148  11.520  0.00  0.00     0.067 H 
BRANCH  35  38
ATOM     38  C23 PFQ d          20.723  -3.082   9.478  0.00  0.00     0.031 C 
ATOM     39  H13 PFQ d          21.638  -2.551   9.777  0.00  0.00     0.076 H 
ATOM     40  H14 PFQ d          19.975  -2.356   9.127  0.00  0.00     0.076 H 
BRANCH  38  41
ATOM     41  O24 PFQ d          21.030  -3.997   8.418  0.00  0.00    -0.399 OA
ATOM     42  H17 PFQ d          20.412  -3.876   7.707  0.00  0.00     0.209 HD
ENDBRANCH  38  41
ENDBRANCH  35  38
ENDBRANCH  33  35
ENDBRANCH   7  33
TORSDOF 6
ENDMDL
MODEL 5
REMARK VINA RESULT:      -6.9      1.342      1.651
REMARK  6 active torsions:
REMARK  status: ('A' for Active; 'I' for Inactive)
REMARK    1  A    between atoms: C10_2  and  C11_3 
REMARK    2  A    between atoms: C4_18  and  N9_17 
REMARK    3  A    between atoms: N9_17  and  C8_24 
REMARK    4  A    between atoms: C1_21  and  C18_22 
REMARK    5  A    between atoms: C8_24  and  C23_23 
REMARK    6  A    between atoms: C23_23  and  O24_25 
ROOT
ATOM      1  C2  PFQ d          12.966  -1.000  10.667  0.00  0.00     0.091 A 
ATOM      2  C10 PFQ d          17.244  -2.047   9.858  0.00  0.00     0.100 A 
ATOM      3  N1  PFQ d          14.047  -0.575  10.034  0.00  0.00    -0.217 NA
ATOM      4  C6  PFQ d          15.186  -1.281  10.082  0.00  0.00     0.186 A 
ATOM      5  O6  PFQ d          16.401  -1.037   9.523  0.00  0.00    -0.289 OA
ATOM      6  C5  PFQ d          15.253  -2.475  10.800  0.00  0.00     0.077 A 
ATOM      7  C4  PFQ d          14.088  -2.890  11.455  0.00  0.00     0.140 A 
ATOM      8  N3  PFQ d          12.984  -2.126  11.357  0.00  0.00    -0.224 NA
ATOM      9  C1  PFQ d          16.558  -2.964  10.663  0.00  0.00     0.027 A 
ATOM     10  H1  PFQ d          12.054  -0.417  10.619  0.00  0.00     0.146 H 
ENDROOT
BRANCH   2  11
ATOM     11  C11 PFQ d          18.551  -2.004   9.379  0.00  0.00    -0.001 A 
ATOM     12  C12 PFQ d          18.958  -1.262   8.272  0.00  0.00    -0.070 A 
ATOM     13  C13 PFQ d          20.302  -1.295   7.895  0.00  0.00    -0.082 A 
ATOM     14  H2  PFQ d          18.243  -0.668   7.714  0.00  0.00     0.084 H 
ATOM     15  C14 PFQ d          21.224  -2.051   8.620  0.00  0.00    -0.083 A 
ATOM     16  H3  PFQ d          20.632  -0.729   7.031  0.00  0.00     0.083 H 
ATOM     17  C15 PFQ d          20.817  -2.798   9.726  0.00  0.00    -0.082 A 
ATOM     18  H4  PFQ d          22.267  -2.058   8.321  0.00  0.00     0.083 H 
ATOM     19  C16 PFQ d          19.484  -2.744  10.101  0.00  0.00    -0.070 A 
ATOM     20  H5  PFQ d          21.525  -3.405  10.278  0.00  0.00     0.083 H 
ATOM     21  H6  PFQ d          19.160  -3.291  10.978  0.00  0.00     0.084 H 
ENDBRANCH   2  11
BRANCH   9  22
ATOM     22  C18 PFQ d          17.005  -4.158  11.251  0.00  0.00    -0.022 A 
ATOM     23  C19 PFQ d          17.594  -4.127  12.521  0.00  0.00    -0.072 A 
ATOM     24  C20 PFQ d          18.084  -5.282  13.137  0.00  0.00    -0.082 A 
ATOM     25  H7  PFQ d          17.672  -3.179  13.041  0.00  0.00     0.084 H 
ATOM     26  C21 PFQ d          17.987  -6.500  12.463  0.00  0.00    -0.083 A 
ATOM     27  H8  PFQ d          18.532  -5.232  14.122  0.00  0.00     0.083 H 
ATOM     28  C22 PFQ d          17.402  -6.535  11.183  0.00  0.00    -0.082 A 
ATOM     29  H9  PFQ d          18.358  -7.410  12.920  0.00  0.00     0.083 H 
ATOM     30  C17 PFQ d          16.915  -5.375  10.572  0.00  0.00    -0.072 A 
ATOM     31  H10 PFQ d          17.328  -7.482  10.660  0.00  0.00     0.083 H 
ATOM     32  H12 PFQ d          16.473  -5.420   9.583  0.00  0.00     0.084 H 
ENDBRANCH   9  22
BRANCH   7  33
ATOM     33  N9  PFQ d          14.032  -4.013  12.178  0.00  0.00    -0.372 N 
ATOM     34  H11 PFQ d          14.838  -4.655  12.187  0.00  0.00     0.161 HD
BRANCH  33  35
ATOM     35  C8  PFQ d          12.826  -4.342  12.964  0.00  0.00     0.013 C 
ATOM     36  H15 PFQ d          11.945  -4.313  12.306  0.00  0.00     0.067 H 
ATOM     37  H16 PFQ d          12.707  -3.603  13.770  0.00  0.00     0.067 H 
BRANCH  35  38
ATOM     38  C23 PFQ d          12.956  -5.744  13.576  0.00  0.00     0.031 C 
ATOM     39  H13 PFQ d          12.321  -6.446  13.017  0.00  0.00     0.076 H 
ATOM     40  H14 PFQ d          12.633  -5.715  14.627  0.00  0.00     0.076 H 
BRANCH  38  41
ATOM     41  O24 PFQ d          14.320  -6.181  13.511  0.00  0.00    -0.399 OA
ATOM     42  H17 PFQ d          14.826  -5.561  13.000  0.00  0.00     0.209 HD
ENDBRANCH  38  41
ENDBRANCH  35  38
ENDBRANCH  33  35
ENDBRANCH   7  33
TORSDOF 6
ENDMDL
MODEL 6
REMARK VINA RESULT:      -6.5      2.806      6.423
REMARK  6 active torsions:
REMARK  status: ('A' for Active; 'I' for Inactive)
REMARK    1  A    between atoms: C10_2  and  C11_3 
REMARK    2  A    between atoms: C4_18  and  N9_17 
REMARK    3  A    between atoms: N9_17  and  C8_24 
REMARK    4  A    between atoms: C1_21  and  C18_22 
REMARK    5  A    between atoms: C8_24  and  C23_23 
REMARK    6  A    between atoms: C23_23  and  O24_25 
ROOT
ATOM      1  C2  PFQ d          16.450  -6.834  13.592  0.00  0.00     0.091 A 
ATOM      2  C10 PFQ d          14.932  -3.039  11.760  0.00  0.00     0.100 A 
ATOM      3  N1  PFQ d          15.364  -6.085  13.478  0.00  0.00    -0.217 NA
ATOM      4  C6  PFQ d          15.394  -4.946  12.773  0.00  0.00     0.186 A 
ATOM      5  O6  PFQ d          14.417  -4.032  12.531  0.00  0.00    -0.289 OA
ATOM      6  C5  PFQ d          16.567  -4.527  12.147  0.00  0.00     0.077 A 
ATOM      7  C4  PFQ d          17.693  -5.346  12.291  0.00  0.00     0.140 A 
ATOM      8  N3  PFQ d          17.581  -6.476  13.014  0.00  0.00    -0.224 NA
ATOM      9  C1  PFQ d          16.281  -3.316  11.505  0.00  0.00     0.027 A 
ATOM     10  H1  PFQ d          16.409  -7.752  14.166  0.00  0.00     0.146 H 
ENDROOT
BRANCH   2  11
ATOM     11  C11 PFQ d          14.095  -1.994  11.381  0.00  0.00    -0.001 A 
ATOM     12  C12 PFQ d          13.900  -1.581  10.064  0.00  0.00    -0.070 A 
ATOM     13  C13 PFQ d          13.025  -0.522   9.812  0.00  0.00    -0.082 A 
ATOM     14  H2  PFQ d          14.418  -2.074   9.250  0.00  0.00     0.084 H 
ATOM     15  C14 PFQ d          12.350   0.106  10.859  0.00  0.00    -0.083 A 
ATOM     16  H3  PFQ d          12.869  -0.185   8.793  0.00  0.00     0.083 H 
ATOM     17  C15 PFQ d          12.548  -0.304  12.179  0.00  0.00    -0.082 A 
ATOM     18  H4  PFQ d          11.665   0.920  10.646  0.00  0.00     0.083 H 
ATOM     19  C16 PFQ d          13.405  -1.366  12.415  0.00  0.00    -0.070 A 
ATOM     20  H5  PFQ d          12.043   0.197  12.998  0.00  0.00     0.083 H 
ATOM     21  H6  PFQ d          13.542  -1.718  13.431  0.00  0.00     0.084 H 
ENDBRANCH   2  11
BRANCH   9  22
ATOM     22  C18 PFQ d          17.225  -2.588  10.762  0.00  0.00    -0.022 A 
ATOM     23  C19 PFQ d          18.295  -1.970  11.419  0.00  0.00    -0.072 A 
ATOM     24  C20 PFQ d          19.244  -1.209  10.732  0.00  0.00    -0.082 A 
ATOM     25  H7  PFQ d          18.391  -2.086  12.493  0.00  0.00     0.084 H 
ATOM     26  C21 PFQ d          19.116  -1.057   9.350  0.00  0.00    -0.083 A 
ATOM     27  H8  PFQ d          20.066  -0.744  11.263  0.00  0.00     0.083 H 
ATOM     28  C22 PFQ d          18.038  -1.671   8.686  0.00  0.00    -0.082 A 
ATOM     29  H9  PFQ d          19.841  -0.473   8.794  0.00  0.00     0.083 H 
ATOM     30  C17 PFQ d          17.091  -2.430   9.381  0.00  0.00    -0.072 A 
ATOM     31  H10 PFQ d          17.939  -1.552   7.613  0.00  0.00     0.083 H 
ATOM     32  H12 PFQ d          16.263  -2.891   8.854  0.00  0.00     0.084 H 
ENDBRANCH   9  22
BRANCH   7  33
ATOM     33  N9  PFQ d          18.875  -5.046  11.742  0.00  0.00    -0.372 N 
ATOM     34  H11 PFQ d          19.026  -4.111  11.336  0.00  0.00     0.161 HD
BRANCH  33  35
ATOM     35  C8  PFQ d          19.964  -6.042  11.711  0.00  0.00     0.013 C 
ATOM     36  H15 PFQ d          20.003  -6.508  10.716  0.00  0.00     0.067 H 
ATOM     37  H16 PFQ d          19.769  -6.814  12.470  0.00  0.00     0.067 H 
BRANCH  35  38
ATOM     38  C23 PFQ d          21.311  -5.366  12.009  0.00  0.00     0.031 C 
ATOM     39  H13 PFQ d          22.067  -5.735  11.301  0.00  0.00     0.076 H 
ATOM     40  H14 PFQ d          21.621  -5.607  13.036  0.00  0.00     0.076 H 
BRANCH  38  41
ATOM     41  O24 PFQ d          21.184  -3.944  11.872  0.00  0.00    -0.399 OA
ATOM     42  H17 PFQ d          20.323  -3.735  11.531  0.00  0.00     0.209 HD
ENDBRANCH  38  41
ENDBRANCH  35  38
ENDBRANCH  33  35
ENDBRANCH   7  33
TORSDOF 6
ENDMDL
MODEL 7
REMARK VINA RESULT:      -5.5      3.629      6.099
REMARK  6 active torsions:
REMARK  status: ('A' for Active; 'I' for Inactive)
REMARK    1  A    between atoms: C10_2  and  C11_3 
REMARK    2  A    between atoms: C4_18  and  N9_17 
REMARK    3  A    between atoms: N9_17  and  C8_24 
REMARK    4  A    between atoms: C1_21  and  C18_22 
REMARK    5  A    between atoms: C8_24  and  C23_23 
REMARK    6  A    between atoms: C23_23  and  O24_25 
ROOT
ATOM      1  C2  PFQ d          22.407  -3.872   9.333  0.00  0.00     0.091 A 
ATOM      2  C10 PFQ d          18.154  -2.557   9.830  0.00  0.00     0.100 A 
ATOM      3  N1  PFQ d          21.542  -2.950   8.942  0.00  0.00    -0.217 NA
ATOM      4  C6  PFQ d          20.280  -2.963   9.396  0.00  0.00     0.186 A 
ATOM      5  O6  PFQ d          19.237  -2.133   9.129  0.00  0.00    -0.289 OA
ATOM      6  C5  PFQ d          19.855  -3.948  10.286  0.00  0.00     0.077 A 
ATOM      7  C4  PFQ d          20.800  -4.905  10.675  0.00  0.00     0.140 A 
ATOM      8  N3  PFQ d          22.047  -4.822  10.177  0.00  0.00    -0.224 NA
ATOM      9  C1  PFQ d          18.506  -3.697  10.563  0.00  0.00     0.027 A 
ATOM     10  H1  PFQ d          23.422  -3.847   8.957  0.00  0.00     0.146 H 
ENDROOT
BRANCH   2  11
ATOM     11  C11 PFQ d          16.968  -1.839   9.712  0.00  0.00    -0.001 A 
ATOM     12  C12 PFQ d          15.713  -2.330  10.068  0.00  0.00    -0.070 A 
ATOM     13  C13 PFQ d          14.597  -1.507   9.910  0.00  0.00    -0.082 A 
ATOM     14  H2  PFQ d          15.607  -3.334  10.462  0.00  0.00     0.084 H 
ATOM     15  C14 PFQ d          14.735  -0.210   9.412  0.00  0.00    -0.083 A 
ATOM     16  H3  PFQ d          13.613  -1.878  10.175  0.00  0.00     0.083 H 
ATOM     17  C15 PFQ d          15.990   0.281   9.051  0.00  0.00    -0.082 A 
ATOM     18  H4  PFQ d          13.860   0.421   9.305  0.00  0.00     0.083 H 
ATOM     19  C16 PFQ d          17.093  -0.538   9.229  0.00  0.00    -0.070 A 
ATOM     20  H5  PFQ d          16.100   1.279   8.642  0.00  0.00     0.083 H 
ATOM     21  H6  PFQ d          18.078  -0.158   8.985  0.00  0.00     0.084 H 
ENDBRANCH   2  11
BRANCH   9  22
ATOM     22  C18 PFQ d          17.730  -4.485  11.429  0.00  0.00    -0.022 A 
ATOM     23  C19 PFQ d          17.063  -5.610  10.930  0.00  0.00    -0.072 A 
ATOM     24  C20 PFQ d          16.254  -6.410  11.741  0.00  0.00    -0.082 A 
ATOM     25  H7  PFQ d          17.176  -5.867   9.883  0.00  0.00     0.084 H 
ATOM     26  C21 PFQ d          16.105  -6.073  13.088  0.00  0.00    -0.083 A 
ATOM     27  H8  PFQ d          15.750  -7.277  11.332  0.00  0.00     0.083 H 
ATOM     28  C22 PFQ d          16.769  -4.940  13.592  0.00  0.00    -0.082 A 
ATOM     29  H9  PFQ d          15.484  -6.679  13.739  0.00  0.00     0.083 H 
ATOM     30  C17 PFQ d          17.576  -4.143  12.774  0.00  0.00    -0.072 A 
ATOM     31  H10 PFQ d          16.653  -4.679  14.639  0.00  0.00     0.083 H 
ATOM     32  H12 PFQ d          18.076  -3.270  13.179  0.00  0.00     0.084 H 
ENDBRANCH   9  22
BRANCH   7  33
ATOM     33  N9  PFQ d          20.507  -5.900  11.519  0.00  0.00    -0.372 N 
ATOM     34  H11 PFQ d          19.530  -6.060  11.801  0.00  0.00     0.161 HD
BRANCH  33  35
ATOM     35  C8  PFQ d          21.574  -6.772  12.051  0.00  0.00     0.013 C 
ATOM     36  H15 PFQ d          21.788  -7.569  11.324  0.00  0.00     0.067 H 
ATOM     37  H16 PFQ d          21.238  -7.219  12.998  0.00  0.00     0.067 H 
BRANCH  35  38
ATOM     38  C23 PFQ d          22.852  -5.956  12.300  0.00  0.00     0.031 C 
ATOM     39  H13 PFQ d          23.182  -5.499  11.355  0.00  0.00     0.076 H 
ATOM     40  H14 PFQ d          23.640  -6.621  12.681  0.00  0.00     0.076 H 
BRANCH  38  41
ATOM     41  O24 PFQ d          22.594  -4.925  13.262  0.00  0.00    -0.399 OA
ATOM     42  H17 PFQ d          22.140  -5.297  14.009  0.00  0.00     0.209 HD
ENDBRANCH  38  41
ENDBRANCH  35  38
ENDBRANCH  33  35
ENDBRANCH   7  33
TORSDOF 6
ENDMDL
