REMARK  17 active torsions:
REMARK  status: ('A' for Active; 'I' for Inactive)
REMARK    1  A    between atoms: C1_1  and  C2_4 
REMARK    2  A    between atoms: C2_4  and  C3_5 
REMARK    3  A    between atoms: C3_5  and  C4_6 
REMARK    4  A    between atoms: C4_6  and  C5_7 
REMARK    5  A    between atoms: C5_7  and  C6_8 
REMARK    6  A    between atoms: C6_8  and  C7_9 
REMARK    7  A    between atoms: C7_9  and  C8_10 
REMARK    8  A    between atoms: C8_10  and  C9_11 
REMARK    9  A    between atoms: C9_11  and  C10_12 
REMARK   10  A    between atoms: C10_12  and  C11_13 
REMARK   11  A    between atoms: C11_13  and  C12_14 
REMARK   12  A    between atoms: C12_14  and  C13_15 
REMARK   13  A    between atoms: C13_15  and  C14_16 
REMARK   14  A    between atoms: C14_16  and  C15_17 
REMARK   15  A    between atoms: C15_17  and  C16_18 
REMARK   16  A    between atoms: C16_18  and  C17_19 
REMARK   17  A    between atoms: C17_19  and  C18_20 
ROOT
ATOM      1  C10 STE d          -4.017  11.537  18.611  0.00  0.00    -0.065 C 
ATOM      2  H17 STE d          -4.886  11.610  19.282  0.00  0.00     0.033 H 
ATOM      3  H18 STE d          -4.362  11.497  17.567  0.00  0.00     0.033 H 
ENDROOT
BRANCH   1   4
ATOM      4  C9  STE d          -3.197  10.298  18.943  0.00  0.00    -0.065 C 
ATOM      5  H15 STE d          -2.607  10.000  18.063  0.00  0.00     0.033 H 
ATOM      6  H16 STE d          -2.519  10.518  19.781  0.00  0.00     0.033 H 
BRANCH   4   7
ATOM      7  C8  STE d          -4.137   9.169  19.332  0.00  0.00    -0.065 C 
ATOM      8  H13 STE d          -4.571   9.371  20.322  0.00  0.00     0.033 H 
ATOM      9  H14 STE d          -4.943   9.083  18.588  0.00  0.00     0.033 H 
BRANCH   7  10
ATOM     10  C7  STE d          -3.344   7.886  19.375  0.00  0.00    -0.065 C 
ATOM     11  H11 STE d          -3.187   7.527  18.347  0.00  0.00     0.033 H 
ATOM     12  H12 STE d          -2.370   8.083  19.847  0.00  0.00     0.033 H 
BRANCH  10  13
ATOM     13  C6  STE d          -4.072   6.810  20.170  0.00  0.00    -0.065 C 
ATOM     14  H9  STE d          -4.761   7.288  20.882  0.00  0.00     0.033 H 
ATOM     15  H10 STE d          -4.643   6.172  19.479  0.00  0.00     0.033 H 
BRANCH  13  16
ATOM     16  C5  STE d          -3.072   5.952  20.937  0.00  0.00    -0.065 C 
ATOM     17  H7  STE d          -2.554   6.584  21.673  0.00  0.00     0.033 H 
ATOM     18  H8  STE d          -3.619   5.153  21.460  0.00  0.00     0.033 H 
BRANCH  16  19
ATOM     19  C4  STE d          -2.037   5.319  20.022  0.00  0.00    -0.065 C 
ATOM     20  H5  STE d          -2.527   4.546  19.412  0.00  0.00     0.033 H 
ATOM     21  H6  STE d          -1.620   6.096  19.364  0.00  0.00     0.033 H 
BRANCH  19  22
ATOM     22  C3  STE d          -0.899   4.678  20.812  0.00  0.00    -0.056 C 
ATOM     23  H3  STE d          -0.052   5.379  20.851  0.00  0.00     0.033 H 
ATOM     24  H4  STE d          -1.248   4.468  21.834  0.00  0.00     0.033 H 
BRANCH  22  25
ATOM     25  C2  STE d          -0.434   3.374  20.169  0.00  0.00     0.016 C 
ATOM     26  H1  STE d          -0.930   3.246  19.196  0.00  0.00     0.049 H 
ATOM     27  H2  STE d           0.656   3.403  20.024  0.00  0.00     0.049 H 
BRANCH  25  28
ATOM     28  C1  STE d          -0.793   2.225  21.074  0.00  0.00     0.172 C 
ATOM     29  O1  STE d          -1.994   1.861  21.115  0.00  0.00    -0.648 OA
ATOM     30  O2  STE d           0.108   1.700  21.764  0.00  0.00    -0.648 OA
ENDBRANCH  25  28
ENDBRANCH  22  25
ENDBRANCH  19  22
ENDBRANCH  16  19
ENDBRANCH  13  16
ENDBRANCH  10  13
ENDBRANCH   7  10
ENDBRANCH   4   7
ENDBRANCH   1   4
BRANCH   1  31
ATOM     31  C11 STE d          -3.096  12.723  18.815  0.00  0.00    -0.065 C 
ATOM     32  H19 STE d          -2.203  12.614  18.183  0.00  0.00     0.033 H 
ATOM     33  H20 STE d          -2.793  12.782  19.871  0.00  0.00     0.033 H 
BRANCH  31  34
ATOM     34  C12 STE d          -3.846  13.977  18.428  0.00  0.00    -0.065 C 
ATOM     35  H21 STE d          -4.554  14.248  19.225  0.00  0.00     0.033 H 
ATOM     36  H22 STE d          -4.396  13.807  17.491  0.00  0.00     0.033 H 
BRANCH  34  37
ATOM     37  C13 STE d          -2.848  15.082  18.238  0.00  0.00    -0.065 C 
ATOM     38  H23 STE d          -2.279  14.896  17.315  0.00  0.00     0.033 H 
ATOM     39  H24 STE d          -2.161  15.095  19.097  0.00  0.00     0.033 H 
BRANCH  37  40
ATOM     40  C14 STE d          -3.533  16.433  18.132  0.00  0.00    -0.065 C 
ATOM     41  H25 STE d          -2.896  17.195  18.604  0.00  0.00     0.033 H 
ATOM     42  H26 STE d          -4.499  16.387  18.657  0.00  0.00     0.033 H 
BRANCH  40  43
ATOM     43  C15 STE d          -3.778  16.823  16.675  0.00  0.00    -0.065 C 
ATOM     44  H27 STE d          -4.394  16.058  16.180  0.00  0.00     0.033 H 
ATOM     45  H28 STE d          -2.819  16.920  16.146  0.00  0.00     0.033 H 
BRANCH  43  46
ATOM     46  C16 STE d          -4.505  18.152  16.676  0.00  0.00    -0.065 C 
ATOM     47  H29 STE d          -3.938  18.863  17.296  0.00  0.00     0.033 H 
ATOM     48  H30 STE d          -5.506  18.005  17.109  0.00  0.00     0.033 H 
BRANCH  46  49
ATOM     49  C17 STE d          -4.658  18.733  15.294  0.00  0.00    -0.069 C 
ATOM     50  H31 STE d          -3.769  19.340  15.067  0.00  0.00     0.032 H 
ATOM     51  H32 STE d          -5.553  19.372  15.277  0.00  0.00     0.032 H 
BRANCH  49  52
ATOM     52  C18 STE d          -4.803  17.668  14.228  0.00  0.00    -0.077 C 
ATOM     53  H33 STE d          -4.911  18.147  13.244  0.00  0.00     0.027 H 
ATOM     54  H34 STE d          -5.694  17.058  14.438  0.00  0.00     0.027 H 
ATOM     55  H35 STE d          -3.910  17.026  14.227  0.00  0.00     0.027 H 
ENDBRANCH  49  52
ENDBRANCH  46  49
ENDBRANCH  43  46
ENDBRANCH  40  43
ENDBRANCH  37  40
ENDBRANCH  34  37
ENDBRANCH  31  34
ENDBRANCH   1  31
TORSDOF 17
