MODEL 1
REMARK VINA RESULT:      -6.7      0.000      0.000
REMARK  17 active torsions:
REMARK  status: ('A' for Active; 'I' for Inactive)
REMARK    1  A    between atoms: C1_1  and  C2_4 
REMARK    2  A    between atoms: C2_4  and  C3_5 
REMARK    3  A    between atoms: C3_5  and  C4_6 
REMARK    4  A    between atoms: C4_6  and  C5_7 
REMARK    5  A    between atoms: C5_7  and  C6_8 
REMARK    6  A    between atoms: C6_8  and  C7_9 
REMARK    7  A    between atoms: C7_9  and  C8_10 
REMARK    8  A    between atoms: C8_10  and  C9_11 
REMARK    9  A    between atoms: C9_11  and  C10_12 
REMARK   10  A    between atoms: C10_12  and  C11_13 
REMARK   11  A    between atoms: C11_13  and  C12_14 
REMARK   12  A    between atoms: C12_14  and  C13_15 
REMARK   13  A    between atoms: C13_15  and  C14_16 
REMARK   14  A    between atoms: C14_16  and  C15_17 
REMARK   15  A    between atoms: C15_17  and  C16_18 
REMARK   16  A    between atoms: C16_18  and  C17_19 
REMARK   17  A    between atoms: C17_19  and  C18_20 
ROOT
ATOM      1  C10 STE d          -2.114  14.515  18.195  0.00  0.00    -0.065 C 
ATOM      2  H17 STE d          -2.566  14.355  17.205  0.00  0.00     0.033 H 
ATOM      3  H18 STE d          -1.026  14.363  18.130  0.00  0.00     0.033 H 
ENDROOT
BRANCH   1   4
ATOM      4  C9  STE d          -2.721  13.559  19.213  0.00  0.00    -0.065 C 
ATOM      5  H15 STE d          -2.251  13.720  20.195  0.00  0.00     0.033 H 
ATOM      6  H16 STE d          -3.803  13.740  19.290  0.00  0.00     0.033 H 
BRANCH   4   7
ATOM      7  C8  STE d          -2.476  12.129  18.759  0.00  0.00    -0.065 C 
ATOM      8  H13 STE d          -3.372  11.521  18.948  0.00  0.00     0.033 H 
ATOM      9  H14 STE d          -2.242  12.115  17.684  0.00  0.00     0.033 H 
BRANCH   7  10
ATOM     10  C7  STE d          -1.311  11.576  19.543  0.00  0.00    -0.065 C 
ATOM     11  H11 STE d          -0.403  11.635  18.924  0.00  0.00     0.033 H 
ATOM     12  H12 STE d          -1.173  12.179  20.453  0.00  0.00     0.033 H 
BRANCH  10  13
ATOM     13  C6  STE d          -1.547  10.125  19.940  0.00  0.00    -0.065 C 
ATOM     14  H9  STE d          -0.579   9.641  20.139  0.00  0.00     0.033 H 
ATOM     15  H10 STE d          -2.167  10.094  20.848  0.00  0.00     0.033 H 
BRANCH  13  16
ATOM     16  C5  STE d          -2.260   9.380  18.817  0.00  0.00    -0.065 C 
ATOM     17  H7  STE d          -2.694  10.114  18.124  0.00  0.00     0.033 H 
ATOM     18  H8  STE d          -1.525   8.759  18.281  0.00  0.00     0.033 H 
BRANCH  16  19
ATOM     19  C4  STE d          -3.371   8.483  19.338  0.00  0.00    -0.065 C 
ATOM     20  H5  STE d          -4.265   9.096  19.523  0.00  0.00     0.033 H 
ATOM     21  H6  STE d          -3.600   7.721  18.578  0.00  0.00     0.033 H 
BRANCH  19  22
ATOM     22  C3  STE d          -2.973   7.784  20.635  0.00  0.00    -0.056 C 
ATOM     23  H3  STE d          -1.992   8.161  20.958  0.00  0.00     0.033 H 
ATOM     24  H4  STE d          -3.724   8.009  21.407  0.00  0.00     0.033 H 
BRANCH  22  25
ATOM     25  C2  STE d          -2.887   6.270  20.453  0.00  0.00     0.016 C 
ATOM     26  H1  STE d          -3.500   5.772  21.218  0.00  0.00     0.049 H 
ATOM     27  H2  STE d          -3.255   5.998  19.454  0.00  0.00     0.049 H 
BRANCH  25  28
ATOM     28  C1  STE d          -1.451   5.840  20.597  0.00  0.00     0.172 C 
ATOM     29  O1  STE d          -1.224   4.674  21.004  0.00  0.00    -0.648 OA
ATOM     30  O2  STE d          -0.548   6.664  20.334  0.00  0.00    -0.648 OA
ENDBRANCH  25  28
ENDBRANCH  22  25
ENDBRANCH  19  22
ENDBRANCH  16  19
ENDBRANCH  13  16
ENDBRANCH  10  13
ENDBRANCH   7  10
ENDBRANCH   4   7
ENDBRANCH   1   4
BRANCH   1  31
ATOM     31  C11 STE d          -2.420  15.913  18.691  0.00  0.00    -0.065 C 
ATOM     32  H19 STE d          -1.654  16.613  18.328  0.00  0.00     0.033 H 
ATOM     33  H20 STE d          -2.435  15.924  19.791  0.00  0.00     0.033 H 
BRANCH  31  34
ATOM     34  C12 STE d          -3.776  16.318  18.159  0.00  0.00    -0.065 C 
ATOM     35  H21 STE d          -4.554  16.073  18.897  0.00  0.00     0.033 H 
ATOM     36  H22 STE d          -3.981  15.785  17.219  0.00  0.00     0.033 H 
BRANCH  34  37
ATOM     37  C13 STE d          -3.761  17.799  17.911  0.00  0.00    -0.065 C 
ATOM     38  H23 STE d          -2.808  18.072  17.432  0.00  0.00     0.033 H 
ATOM     39  H24 STE d          -3.852  18.324  18.873  0.00  0.00     0.033 H 
BRANCH  37  40
ATOM     40  C14 STE d          -4.906  18.219  17.007  0.00  0.00    -0.065 C 
ATOM     41  H25 STE d          -5.623  18.814  17.592  0.00  0.00     0.033 H 
ATOM     42  H26 STE d          -5.407  17.319  16.620  0.00  0.00     0.033 H 
BRANCH  40  43
ATOM     43  C15 STE d          -4.411  19.057  15.829  0.00  0.00    -0.065 C 
ATOM     44  H27 STE d          -3.455  19.537  16.085  0.00  0.00     0.033 H 
ATOM     45  H28 STE d          -5.153  19.828  15.578  0.00  0.00     0.033 H 
BRANCH  43  46
ATOM     46  C16 STE d          -4.221  18.120  14.653  0.00  0.00    -0.065 C 
ATOM     47  H29 STE d          -3.282  17.564  14.794  0.00  0.00     0.033 H 
ATOM     48  H30 STE d          -4.158  18.719  13.733  0.00  0.00     0.033 H 
BRANCH  46  49
ATOM     49  C17 STE d          -5.349  17.131  14.509  0.00  0.00    -0.069 C 
ATOM     50  H31 STE d          -5.975  17.433  13.656  0.00  0.00     0.032 H 
ATOM     51  H32 STE d          -5.951  17.146  15.429  0.00  0.00     0.032 H 
BRANCH  49  52
ATOM     52  C18 STE d          -4.858  15.719  14.274  0.00  0.00    -0.077 C 
ATOM     53  H33 STE d          -4.174  15.429  15.085  0.00  0.00     0.027 H 
ATOM     54  H34 STE d          -4.326  15.671  13.312  0.00  0.00     0.027 H 
ATOM     55  H35 STE d          -5.716  15.031  14.254  0.00  0.00     0.027 H 
ENDBRANCH  49  52
ENDBRANCH  46  49
ENDBRANCH  43  46
ENDBRANCH  40  43
ENDBRANCH  37  40
ENDBRANCH  34  37
ENDBRANCH  31  34
ENDBRANCH   1  31
TORSDOF 17
ENDMDL
MODEL 2
REMARK VINA RESULT:      -6.6      1.870      2.593
REMARK  17 active torsions:
REMARK  status: ('A' for Active; 'I' for Inactive)
REMARK    1  A    between atoms: C1_1  and  C2_4 
REMARK    2  A    between atoms: C2_4  and  C3_5 
REMARK    3  A    between atoms: C3_5  and  C4_6 
REMARK    4  A    between atoms: C4_6  and  C5_7 
REMARK    5  A    between atoms: C5_7  and  C6_8 
REMARK    6  A    between atoms: C6_8  and  C7_9 
REMARK    7  A    between atoms: C7_9  and  C8_10 
REMARK    8  A    between atoms: C8_10  and  C9_11 
REMARK    9  A    between atoms: C9_11  and  C10_12 
REMARK   10  A    between atoms: C10_12  and  C11_13 
REMARK   11  A    between atoms: C11_13  and  C12_14 
REMARK   12  A    between atoms: C12_14  and  C13_15 
REMARK   13  A    between atoms: C13_15  and  C14_16 
REMARK   14  A    between atoms: C14_16  and  C15_17 
REMARK   15  A    between atoms: C15_17  and  C16_18 
REMARK   16  A    between atoms: C16_18  and  C17_19 
REMARK   17  A    between atoms: C17_19  and  C18_20 
ROOT
ATOM      1  C10 STE d          -2.932  14.080  18.408  0.00  0.00    -0.065 C 
ATOM      2  H17 STE d          -2.215  14.065  17.574  0.00  0.00     0.033 H 
ATOM      3  H18 STE d          -2.389  13.985  19.360  0.00  0.00     0.033 H 
ENDROOT
BRANCH   1   4
ATOM      4  C9  STE d          -3.938  12.947  18.260  0.00  0.00    -0.065 C 
ATOM      5  H15 STE d          -4.936  13.298  18.562  0.00  0.00     0.033 H 
ATOM      6  H16 STE d          -3.968  12.615  17.211  0.00  0.00     0.033 H 
BRANCH   4   7
ATOM      7  C8  STE d          -3.516  11.788  19.148  0.00  0.00    -0.065 C 
ATOM      8  H13 STE d          -4.333  11.532  19.839  0.00  0.00     0.033 H 
ATOM      9  H14 STE d          -3.273  10.913  18.527  0.00  0.00     0.033 H 
BRANCH   7  10
ATOM     10  C7  STE d          -2.298  12.211  19.932  0.00  0.00    -0.065 C 
ATOM     11  H11 STE d          -1.886  13.129  19.487  0.00  0.00     0.033 H 
ATOM     12  H12 STE d          -2.594  12.409  20.973  0.00  0.00     0.033 H 
BRANCH  10  13
ATOM     13  C6  STE d          -1.226  11.129  19.918  0.00  0.00    -0.065 C 
ATOM     14  H9  STE d          -0.366  11.477  19.327  0.00  0.00     0.033 H 
ATOM     15  H10 STE d          -0.904  10.925  20.950  0.00  0.00     0.033 H 
BRANCH  13  16
ATOM     16  C5  STE d          -1.776   9.848  19.300  0.00  0.00    -0.065 C 
ATOM     17  H7  STE d          -2.872   9.854  19.388  0.00  0.00     0.033 H 
ATOM     18  H8  STE d          -1.493   9.818  18.237  0.00  0.00     0.033 H 
BRANCH  16  19
ATOM     19  C4  STE d          -1.238   8.603  19.985  0.00  0.00    -0.065 C 
ATOM     20  H5  STE d          -0.506   8.120  19.321  0.00  0.00     0.033 H 
ATOM     21  H6  STE d          -0.745   8.897  20.923  0.00  0.00     0.033 H 
BRANCH  19  22
ATOM     22  C3  STE d          -2.350   7.606  20.302  0.00  0.00    -0.056 C 
ATOM     23  H3  STE d          -2.346   6.812  19.541  0.00  0.00     0.033 H 
ATOM     24  H4  STE d          -2.162   7.165  21.293  0.00  0.00     0.033 H 
BRANCH  22  25
ATOM     25  C2  STE d          -3.721   8.278  20.310  0.00  0.00     0.016 C 
ATOM     26  H1  STE d          -4.113   8.301  21.337  0.00  0.00     0.049 H 
ATOM     27  H2  STE d          -3.629   9.305  19.929  0.00  0.00     0.049 H 
BRANCH  25  28
ATOM     28  C1  STE d          -4.657   7.493  19.429  0.00  0.00     0.172 C 
ATOM     29  O1  STE d          -4.210   7.050  18.343  0.00  0.00    -0.648 OA
ATOM     30  O2  STE d          -5.841   7.337  19.800  0.00  0.00    -0.648 OA
ENDBRANCH  25  28
ENDBRANCH  22  25
ENDBRANCH  19  22
ENDBRANCH  16  19
ENDBRANCH  13  16
ENDBRANCH  10  13
ENDBRANCH   7  10
ENDBRANCH   4   7
ENDBRANCH   1   4
BRANCH   1  31
ATOM     31  C11 STE d          -3.735  15.365  18.388  0.00  0.00    -0.065 C 
ATOM     32  H19 STE d          -3.835  15.758  19.410  0.00  0.00     0.033 H 
ATOM     33  H20 STE d          -4.734  15.174  17.969  0.00  0.00     0.033 H 
BRANCH  31  34
ATOM     34  C12 STE d          -3.002  16.367  17.525  0.00  0.00    -0.065 C 
ATOM     35  H21 STE d          -1.943  16.409  17.820  0.00  0.00     0.033 H 
ATOM     36  H22 STE d          -3.456  17.362  17.643  0.00  0.00     0.033 H 
BRANCH  34  37
ATOM     37  C13 STE d          -3.113  15.925  16.094  0.00  0.00    -0.065 C 
ATOM     38  H23 STE d          -2.554  14.986  15.965  0.00  0.00     0.033 H 
ATOM     39  H24 STE d          -2.682  16.702  15.446  0.00  0.00     0.033 H 
BRANCH  37  40
ATOM     40  C14 STE d          -4.561  15.697  15.698  0.00  0.00    -0.065 C 
ATOM     41  H25 STE d          -5.213  16.244  16.394  0.00  0.00     0.033 H 
ATOM     42  H26 STE d          -4.783  14.621  15.757  0.00  0.00     0.033 H 
BRANCH  40  43
ATOM     43  C15 STE d          -4.834  16.182  14.275  0.00  0.00    -0.065 C 
ATOM     44  H27 STE d          -5.608  15.557  13.807  0.00  0.00     0.033 H 
ATOM     45  H28 STE d          -3.912  16.132  13.677  0.00  0.00     0.033 H 
BRANCH  43  46
ATOM     46  C16 STE d          -5.313  17.616  14.367  0.00  0.00    -0.065 C 
ATOM     47  H29 STE d          -6.004  17.702  15.219  0.00  0.00     0.033 H 
ATOM     48  H30 STE d          -5.843  17.871  13.437  0.00  0.00     0.033 H 
BRANCH  46  49
ATOM     49  C17 STE d          -4.184  18.595  14.562  0.00  0.00    -0.069 C 
ATOM     50  H31 STE d          -4.115  19.235  13.669  0.00  0.00     0.032 H 
ATOM     51  H32 STE d          -3.247  18.034  14.684  0.00  0.00     0.032 H 
BRANCH  49  52
ATOM     52  C18 STE d          -4.382  19.478  15.776  0.00  0.00    -0.077 C 
ATOM     53  H33 STE d          -3.482  20.090  15.935  0.00  0.00     0.027 H 
ATOM     54  H34 STE d          -4.558  18.849  16.661  0.00  0.00     0.027 H 
ATOM     55  H35 STE d          -5.249  20.135  15.614  0.00  0.00     0.027 H 
ENDBRANCH  49  52
ENDBRANCH  46  49
ENDBRANCH  43  46
ENDBRANCH  40  43
ENDBRANCH  37  40
ENDBRANCH  34  37
ENDBRANCH  31  34
ENDBRANCH   1  31
TORSDOF 17
ENDMDL
MODEL 3
REMARK VINA RESULT:      -6.5      4.565     10.255
REMARK  17 active torsions:
REMARK  status: ('A' for Active; 'I' for Inactive)
REMARK    1  A    between atoms: C1_1  and  C2_4 
REMARK    2  A    between atoms: C2_4  and  C3_5 
REMARK    3  A    between atoms: C3_5  and  C4_6 
REMARK    4  A    between atoms: C4_6  and  C5_7 
REMARK    5  A    between atoms: C5_7  and  C6_8 
REMARK    6  A    between atoms: C6_8  and  C7_9 
REMARK    7  A    between atoms: C7_9  and  C8_10 
REMARK    8  A    between atoms: C8_10  and  C9_11 
REMARK    9  A    between atoms: C9_11  and  C10_12 
REMARK   10  A    between atoms: C10_12  and  C11_13 
REMARK   11  A    between atoms: C11_13  and  C12_14 
REMARK   12  A    between atoms: C12_14  and  C13_15 
REMARK   13  A    between atoms: C13_15  and  C14_16 
REMARK   14  A    between atoms: C14_16  and  C15_17 
REMARK   15  A    between atoms: C15_17  and  C16_18 
REMARK   16  A    between atoms: C16_18  and  C17_19 
REMARK   17  A    between atoms: C17_19  and  C18_20 
ROOT
ATOM      1  C10 STE d          -1.112  11.478  19.889  0.00  0.00    -0.065 C 
ATOM      2  H17 STE d          -1.300  11.165  20.927  0.00  0.00     0.033 H 
ATOM      3  H18 STE d          -0.048  11.732  19.770  0.00  0.00     0.033 H 
ENDROOT
BRANCH   1   4
ATOM      4  C9  STE d          -1.983  12.675  19.533  0.00  0.00    -0.065 C 
ATOM      5  H15 STE d          -1.875  13.452  20.305  0.00  0.00     0.033 H 
ATOM      6  H16 STE d          -1.671  13.081  18.559  0.00  0.00     0.033 H 
BRANCH   4   7
ATOM      7  C8  STE d          -3.434  12.229  19.457  0.00  0.00    -0.065 C 
ATOM      8  H13 STE d          -3.482  11.168  19.175  0.00  0.00     0.033 H 
ATOM      9  H14 STE d          -3.918  12.373  20.435  0.00  0.00     0.033 H 
BRANCH   7  10
ATOM     10  C7  STE d          -4.132  13.066  18.414  0.00  0.00    -0.065 C 
ATOM     11  H11 STE d          -4.302  12.453  17.517  0.00  0.00     0.033 H 
ATOM     12  H12 STE d          -5.099  13.404  18.815  0.00  0.00     0.033 H 
BRANCH  10  13
ATOM     13  C6  STE d          -3.301  14.284  18.032  0.00  0.00    -0.065 C 
ATOM     14  H9  STE d          -2.492  14.417  18.766  0.00  0.00     0.033 H 
ATOM     15  H10 STE d          -2.869  14.129  17.033  0.00  0.00     0.033 H 
BRANCH  13  16
ATOM     16  C5  STE d          -4.174  15.535  18.015  0.00  0.00    -0.065 C 
ATOM     17  H7  STE d          -4.681  15.599  17.041  0.00  0.00     0.033 H 
ATOM     18  H8  STE d          -4.924  15.454  18.815  0.00  0.00     0.033 H 
BRANCH  16  19
ATOM     19  C4  STE d          -3.364  16.803  18.228  0.00  0.00    -0.065 C 
ATOM     20  H5  STE d          -3.254  16.977  19.308  0.00  0.00     0.033 H 
ATOM     21  H6  STE d          -2.371  16.673  17.774  0.00  0.00     0.033 H 
BRANCH  19  22
ATOM     22  C3  STE d          -4.040  18.019  17.599  0.00  0.00    -0.056 C 
ATOM     23  H3  STE d          -4.329  18.719  18.396  0.00  0.00     0.033 H 
ATOM     24  H4  STE d          -3.328  18.510  16.919  0.00  0.00     0.033 H 
BRANCH  22  25
ATOM     25  C2  STE d          -5.286  17.623  16.811  0.00  0.00     0.016 C 
ATOM     26  H1  STE d          -5.592  16.605  17.092  0.00  0.00     0.049 H 
ATOM     27  H2  STE d          -6.102  18.327  17.034  0.00  0.00     0.049 H 
BRANCH  25  28
ATOM     28  C1  STE d          -4.970  17.666  15.339  0.00  0.00     0.172 C 
ATOM     29  O1  STE d          -3.872  18.164  14.986  0.00  0.00    -0.648 OA
ATOM     30  O2  STE d          -5.819  17.233  14.529  0.00  0.00    -0.648 OA
ENDBRANCH  25  28
ENDBRANCH  22  25
ENDBRANCH  19  22
ENDBRANCH  16  19
ENDBRANCH  13  16
ENDBRANCH  10  13
ENDBRANCH   7  10
ENDBRANCH   4   7
ENDBRANCH   1   4
BRANCH   1  31
ATOM     31  C11 STE d          -1.498  10.371  18.930  0.00  0.00    -0.065 C 
ATOM     32  H19 STE d          -0.846  10.400  18.045  0.00  0.00     0.033 H 
ATOM     33  H20 STE d          -2.546  10.497  18.617  0.00  0.00     0.033 H 
BRANCH  31  34
ATOM     34  C12 STE d          -1.334   9.048  19.642  0.00  0.00    -0.065 C 
ATOM     35  H21 STE d          -0.545   9.131  20.404  0.00  0.00     0.033 H 
ATOM     36  H22 STE d          -1.063   8.266  18.917  0.00  0.00     0.033 H 
BRANCH  34  37
ATOM     37  C13 STE d          -2.639   8.702  20.298  0.00  0.00    -0.065 C 
ATOM     38  H23 STE d          -3.414   9.398  19.944  0.00  0.00     0.033 H 
ATOM     39  H24 STE d          -2.528   8.799  21.388  0.00  0.00     0.033 H 
BRANCH  37  40
ATOM     40  C14 STE d          -3.064   7.282  19.969  0.00  0.00    -0.065 C 
ATOM     41  H25 STE d          -2.473   6.921  19.115  0.00  0.00     0.033 H 
ATOM     42  H26 STE d          -4.132   7.280  19.701  0.00  0.00     0.033 H 
BRANCH  40  43
ATOM     43  C15 STE d          -2.848   6.344  21.155  0.00  0.00    -0.065 C 
ATOM     44  H27 STE d          -3.779   6.250  21.734  0.00  0.00     0.033 H 
ATOM     45  H28 STE d          -2.052   6.736  21.804  0.00  0.00     0.033 H 
BRANCH  43  46
ATOM     46  C16 STE d          -2.444   4.994  20.600  0.00  0.00    -0.065 C 
ATOM     47  H29 STE d          -2.533   5.023  19.504  0.00  0.00     0.033 H 
ATOM     48  H30 STE d          -3.127   4.230  21.003  0.00  0.00     0.033 H 
BRANCH  46  49
ATOM     49  C17 STE d          -1.031   4.615  20.960  0.00  0.00    -0.069 C 
ATOM     50  H31 STE d          -0.810   3.628  20.527  0.00  0.00     0.032 H 
ATOM     51  H32 STE d          -0.948   4.562  22.056  0.00  0.00     0.032 H 
BRANCH  49  52
ATOM     52  C18 STE d          -0.013   5.609  20.444  0.00  0.00    -0.077 C 
ATOM     53  H33 STE d           0.906   5.078  20.157  0.00  0.00     0.027 H 
ATOM     54  H34 STE d           0.218   6.340  21.233  0.00  0.00     0.027 H 
ATOM     55  H35 STE d          -0.423   6.132  19.568  0.00  0.00     0.027 H 
ENDBRANCH  49  52
ENDBRANCH  46  49
ENDBRANCH  43  46
ENDBRANCH  40  43
ENDBRANCH  37  40
ENDBRANCH  34  37
ENDBRANCH  31  34
ENDBRANCH   1  31
TORSDOF 17
ENDMDL
MODEL 4
REMARK VINA RESULT:      -6.4      4.458      9.716
REMARK  17 active torsions:
REMARK  status: ('A' for Active; 'I' for Inactive)
REMARK    1  A    between atoms: C1_1  and  C2_4 
REMARK    2  A    between atoms: C2_4  and  C3_5 
REMARK    3  A    between atoms: C3_5  and  C4_6 
REMARK    4  A    between atoms: C4_6  and  C5_7 
REMARK    5  A    between atoms: C5_7  and  C6_8 
REMARK    6  A    between atoms: C6_8  and  C7_9 
REMARK    7  A    between atoms: C7_9  and  C8_10 
REMARK    8  A    between atoms: C8_10  and  C9_11 
REMARK    9  A    between atoms: C9_11  and  C10_12 
REMARK   10  A    between atoms: C10_12  and  C11_13 
REMARK   11  A    between atoms: C11_13  and  C12_14 
REMARK   12  A    between atoms: C12_14  and  C13_15 
REMARK   13  A    between atoms: C13_15  and  C14_16 
REMARK   14  A    between atoms: C14_16  and  C15_17 
REMARK   15  A    between atoms: C15_17  and  C16_18 
REMARK   16  A    between atoms: C16_18  and  C17_19 
REMARK   17  A    between atoms: C17_19  and  C18_20 
ROOT
ATOM      1  C10 STE d          -1.077  11.431  19.912  0.00  0.00    -0.065 C 
ATOM      2  H17 STE d          -1.194  11.164  20.973  0.00  0.00     0.033 H 
ATOM      3  H18 STE d          -0.021  11.665  19.707  0.00  0.00     0.033 H 
ENDROOT
BRANCH   1   4
ATOM      4  C9  STE d          -1.956  12.625  19.568  0.00  0.00    -0.065 C 
ATOM      5  H15 STE d          -1.794  13.427  20.305  0.00  0.00     0.033 H 
ATOM      6  H16 STE d          -1.701  12.995  18.564  0.00  0.00     0.033 H 
BRANCH   4   7
ATOM      7  C8  STE d          -3.413  12.194  19.597  0.00  0.00    -0.065 C 
ATOM      8  H13 STE d          -3.484  11.111  19.420  0.00  0.00     0.033 H 
ATOM      9  H14 STE d          -3.854  12.436  20.576  0.00  0.00     0.033 H 
BRANCH   7  10
ATOM     10  C7  STE d          -4.149  12.938  18.509  0.00  0.00    -0.065 C 
ATOM     11  H11 STE d          -4.377  12.241  17.690  0.00  0.00     0.033 H 
ATOM     12  H12 STE d          -5.087  13.339  18.921  0.00  0.00     0.033 H 
BRANCH  10  13
ATOM     13  C6  STE d          -3.315  14.089  17.963  0.00  0.00    -0.065 C 
ATOM     14  H9  STE d          -2.371  14.152  18.524  0.00  0.00     0.033 H 
ATOM     15  H10 STE d          -3.098  13.907  16.899  0.00  0.00     0.033 H 
BRANCH  13  16
ATOM     16  C5  STE d          -4.073  15.404  18.103  0.00  0.00    -0.065 C 
ATOM     17  H7  STE d          -4.752  15.516  17.246  0.00  0.00     0.033 H 
ATOM     18  H8  STE d          -4.659  15.377  19.034  0.00  0.00     0.033 H 
BRANCH  16  19
ATOM     19  C4  STE d          -3.140  16.603  18.147  0.00  0.00    -0.065 C 
ATOM     20  H5  STE d          -2.612  16.608  19.112  0.00  0.00     0.033 H 
ATOM     21  H6  STE d          -2.409  16.516  17.330  0.00  0.00     0.033 H 
BRANCH  19  22
ATOM     22  C3  STE d          -3.900  17.918  17.992  0.00  0.00    -0.056 C 
ATOM     23  H3  STE d          -4.303  18.215  18.972  0.00  0.00     0.033 H 
ATOM     24  H4  STE d          -3.205  18.692  17.632  0.00  0.00     0.033 H 
BRANCH  22  25
ATOM     25  C2  STE d          -5.053  17.787  17.001  0.00  0.00     0.016 C 
ATOM     26  H1  STE d          -5.455  16.764  17.038  0.00  0.00     0.049 H 
ATOM     27  H2  STE d          -5.846  18.503  17.262  0.00  0.00     0.049 H 
BRANCH  25  28
ATOM     28  C1  STE d          -4.544  18.080  15.614  0.00  0.00     0.172 C 
ATOM     29  O1  STE d          -4.440  17.121  14.811  0.00  0.00    -0.648 OA
ATOM     30  O2  STE d          -4.222  19.254  15.328  0.00  0.00    -0.648 OA
ENDBRANCH  25  28
ENDBRANCH  22  25
ENDBRANCH  19  22
ENDBRANCH  16  19
ENDBRANCH  13  16
ENDBRANCH  10  13
ENDBRANCH   7  10
ENDBRANCH   4   7
ENDBRANCH   1   4
BRANCH   1  31
ATOM     31  C11 STE d          -1.544  10.292  19.029  0.00  0.00    -0.065 C 
ATOM     32  H19 STE d          -0.919  10.240  18.126  0.00  0.00     0.033 H 
ATOM     33  H20 STE d          -2.594  10.451  18.740  0.00  0.00     0.033 H 
BRANCH  31  34
ATOM     34  C12 STE d          -1.419   9.005  19.812  0.00  0.00    -0.065 C 
ATOM     35  H21 STE d          -0.752   9.156  20.673  0.00  0.00     0.033 H 
ATOM     36  H22 STE d          -1.010   8.215  19.165  0.00  0.00     0.033 H 
BRANCH  34  37
ATOM     37  C13 STE d          -2.786   8.611  20.291  0.00  0.00    -0.065 C 
ATOM     38  H23 STE d          -3.154   9.376  20.991  0.00  0.00     0.033 H 
ATOM     39  H24 STE d          -2.719   7.642  20.807  0.00  0.00     0.033 H 
BRANCH  37  40
ATOM     40  C14 STE d          -3.763   8.489  19.135  0.00  0.00    -0.065 C 
ATOM     41  H25 STE d          -3.207   8.229  18.223  0.00  0.00     0.033 H 
ATOM     42  H26 STE d          -4.271   9.455  18.991  0.00  0.00     0.033 H 
BRANCH  40  43
ATOM     43  C15 STE d          -4.813   7.411  19.401  0.00  0.00    -0.065 C 
ATOM     44  H27 STE d          -5.678   7.558  18.739  0.00  0.00     0.033 H 
ATOM     45  H28 STE d          -5.142   7.459  20.450  0.00  0.00     0.033 H 
BRANCH  43  46
ATOM     46  C16 STE d          -4.168   6.069  19.122  0.00  0.00    -0.065 C 
ATOM     47  H29 STE d          -4.269   5.437  20.017  0.00  0.00     0.033 H 
ATOM     48  H30 STE d          -3.101   6.230  18.906  0.00  0.00     0.033 H 
BRANCH  46  49
ATOM     49  C17 STE d          -4.794   5.354  17.953  0.00  0.00    -0.069 C 
ATOM     50  H31 STE d          -5.228   6.103  17.273  0.00  0.00     0.032 H 
ATOM     51  H32 STE d          -5.591   4.695  18.328  0.00  0.00     0.032 H 
BRANCH  49  52
ATOM     52  C18 STE d          -3.797   4.518  17.180  0.00  0.00    -0.077 C 
ATOM     53  H33 STE d          -2.975   5.159  16.829  0.00  0.00     0.027 H 
ATOM     54  H34 STE d          -4.297   4.058  16.314  0.00  0.00     0.027 H 
ATOM     55  H35 STE d          -3.395   3.730  17.833  0.00  0.00     0.027 H 
ENDBRANCH  49  52
ENDBRANCH  46  49
ENDBRANCH  43  46
ENDBRANCH  40  43
ENDBRANCH  37  40
ENDBRANCH  34  37
ENDBRANCH  31  34
ENDBRANCH   1  31
TORSDOF 17
ENDMDL
MODEL 5
REMARK VINA RESULT:      -6.2      4.449      9.994
REMARK  17 active torsions:
REMARK  status: ('A' for Active; 'I' for Inactive)
REMARK    1  A    between atoms: C1_1  and  C2_4 
REMARK    2  A    between atoms: C2_4  and  C3_5 
REMARK    3  A    between atoms: C3_5  and  C4_6 
REMARK    4  A    between atoms: C4_6  and  C5_7 
REMARK    5  A    between atoms: C5_7  and  C6_8 
REMARK    6  A    between atoms: C6_8  and  C7_9 
REMARK    7  A    between atoms: C7_9  and  C8_10 
REMARK    8  A    between atoms: C8_10  and  C9_11 
REMARK    9  A    between atoms: C9_11  and  C10_12 
REMARK   10  A    between atoms: C10_12  and  C11_13 
REMARK   11  A    between atoms: C11_13  and  C12_14 
REMARK   12  A    between atoms: C12_14  and  C13_15 
REMARK   13  A    between atoms: C13_15  and  C14_16 
REMARK   14  A    between atoms: C14_16  and  C15_17 
REMARK   15  A    between atoms: C15_17  and  C16_18 
REMARK   16  A    between atoms: C16_18  and  C17_19 
REMARK   17  A    between atoms: C17_19  and  C18_20 
ROOT
ATOM      1  C10 STE d          -1.429   9.302  19.852  0.00  0.00    -0.065 C 
ATOM      2  H17 STE d          -0.833   9.442  20.766  0.00  0.00     0.033 H 
ATOM      3  H18 STE d          -1.012   8.468  19.267  0.00  0.00     0.033 H 
ENDROOT
BRANCH   1   4
ATOM      4  C9  STE d          -1.431  10.579  19.022  0.00  0.00    -0.065 C 
ATOM      5  H15 STE d          -0.735  10.470  18.177  0.00  0.00     0.033 H 
ATOM      6  H16 STE d          -2.445  10.768  18.640  0.00  0.00     0.033 H 
BRANCH   4   7
ATOM      7  C8  STE d          -0.992  11.741  19.898  0.00  0.00    -0.065 C 
ATOM      8  H13 STE d          -0.788  11.382  20.917  0.00  0.00     0.033 H 
ATOM      9  H14 STE d          -0.083  12.198  19.480  0.00  0.00     0.033 H 
BRANCH   7  10
ATOM     10  C7  STE d          -2.106  12.758  19.928  0.00  0.00    -0.065 C 
ATOM     11  H11 STE d          -2.646  12.670  20.883  0.00  0.00     0.033 H 
ATOM     12  H12 STE d          -1.673  13.766  19.844  0.00  0.00     0.033 H 
BRANCH  10  13
ATOM     13  C6  STE d          -3.086  12.542  18.783  0.00  0.00    -0.065 C 
ATOM     14  H9  STE d          -2.567  12.047  17.949  0.00  0.00     0.033 H 
ATOM     15  H10 STE d          -3.915  11.906  19.129  0.00  0.00     0.033 H 
BRANCH  13  16
ATOM     16  C5  STE d          -3.644  13.878  18.305  0.00  0.00    -0.065 C 
ATOM     17  H7  STE d          -3.838  13.815  17.224  0.00  0.00     0.033 H 
ATOM     18  H8  STE d          -4.586  14.079  18.836  0.00  0.00     0.033 H 
BRANCH  16  19
ATOM     19  C4  STE d          -2.683  15.027  18.562  0.00  0.00    -0.065 C 
ATOM     20  H5  STE d          -2.458  15.069  19.638  0.00  0.00     0.033 H 
ATOM     21  H6  STE d          -1.754  14.847  18.001  0.00  0.00     0.033 H 
BRANCH  19  22
ATOM     22  C3  STE d          -3.271  16.366  18.127  0.00  0.00    -0.056 C 
ATOM     23  H3  STE d          -4.263  16.487  18.588  0.00  0.00     0.033 H 
ATOM     24  H4  STE d          -2.608  17.175  18.468  0.00  0.00     0.033 H 
BRANCH  22  25
ATOM     25  C2  STE d          -3.416  16.450  16.610  0.00  0.00     0.016 C 
ATOM     26  H1  STE d          -2.446  16.707  16.161  0.00  0.00     0.049 H 
ATOM     27  H2  STE d          -3.757  15.480  16.219  0.00  0.00     0.049 H 
BRANCH  25  28
ATOM     28  C1  STE d          -4.427  17.514  16.271  0.00  0.00     0.172 C 
ATOM     29  O1  STE d          -5.308  17.239  15.420  0.00  0.00    -0.648 OA
ATOM     30  O2  STE d          -4.334  18.630  16.828  0.00  0.00    -0.648 OA
ENDBRANCH  25  28
ENDBRANCH  22  25
ENDBRANCH  19  22
ENDBRANCH  16  19
ENDBRANCH  13  16
ENDBRANCH  10  13
ENDBRANCH   7  10
ENDBRANCH   4   7
ENDBRANCH   1   4
BRANCH   1  31
ATOM     31  C11 STE d          -2.876   9.023  20.206  0.00  0.00    -0.065 C 
ATOM     32  H19 STE d          -3.324   9.914  20.670  0.00  0.00     0.033 H 
ATOM     33  H20 STE d          -2.931   8.177  20.907  0.00  0.00     0.033 H 
BRANCH  31  34
ATOM     34  C12 STE d          -3.618   8.681  18.934  0.00  0.00    -0.065 C 
ATOM     35  H21 STE d          -2.898   8.455  18.133  0.00  0.00     0.033 H 
ATOM     36  H22 STE d          -4.248   9.530  18.632  0.00  0.00     0.033 H 
BRANCH  34  37
ATOM     37  C13 STE d          -4.477   7.479  19.199  0.00  0.00    -0.065 C 
ATOM     38  H23 STE d          -4.249   6.705  18.452  0.00  0.00     0.033 H 
ATOM     39  H24 STE d          -5.534   7.771  19.117  0.00  0.00     0.033 H 
BRANCH  37  40
ATOM     40  C14 STE d          -4.226   6.916  20.587  0.00  0.00    -0.065 C 
ATOM     41  H25 STE d          -5.174   6.900  21.144  0.00  0.00     0.033 H 
ATOM     42  H26 STE d          -3.505   7.562  21.111  0.00  0.00     0.033 H 
BRANCH  40  43
ATOM     43  C15 STE d          -3.664   5.497  20.521  0.00  0.00    -0.065 C 
ATOM     44  H27 STE d          -3.466   5.219  19.475  0.00  0.00     0.033 H 
ATOM     45  H28 STE d          -4.383   4.788  20.958  0.00  0.00     0.033 H 
BRANCH  43  46
ATOM     46  C16 STE d          -2.374   5.480  21.315  0.00  0.00    -0.065 C 
ATOM     47  H29 STE d          -2.537   4.905  22.239  0.00  0.00     0.033 H 
ATOM     48  H30 STE d          -2.105   6.516  21.570  0.00  0.00     0.033 H 
BRANCH  46  49
ATOM     49  C17 STE d          -1.231   4.858  20.556  0.00  0.00    -0.069 C 
ATOM     50  H31 STE d          -1.579   4.601  19.544  0.00  0.00     0.032 H 
ATOM     51  H32 STE d          -0.916   3.944  21.079  0.00  0.00     0.032 H 
BRANCH  49  52
ATOM     52  C18 STE d          -0.039   5.784  20.437  0.00  0.00    -0.077 C 
ATOM     53  H33 STE d           0.557   5.733  21.360  0.00  0.00     0.027 H 
ATOM     54  H34 STE d          -0.390   6.815  20.285  0.00  0.00     0.027 H 
ATOM     55  H35 STE d           0.581   5.476  19.583  0.00  0.00     0.027 H 
ENDBRANCH  49  52
ENDBRANCH  46  49
ENDBRANCH  43  46
ENDBRANCH  40  43
ENDBRANCH  37  40
ENDBRANCH  34  37
ENDBRANCH  31  34
ENDBRANCH   1  31
TORSDOF 17
ENDMDL
MODEL 6
REMARK VINA RESULT:      -6.1      1.717      2.501
REMARK  17 active torsions:
REMARK  status: ('A' for Active; 'I' for Inactive)
REMARK    1  A    between atoms: C1_1  and  C2_4 
REMARK    2  A    between atoms: C2_4  and  C3_5 
REMARK    3  A    between atoms: C3_5  and  C4_6 
REMARK    4  A    between atoms: C4_6  and  C5_7 
REMARK    5  A    between atoms: C5_7  and  C6_8 
REMARK    6  A    between atoms: C6_8  and  C7_9 
REMARK    7  A    between atoms: C7_9  and  C8_10 
REMARK    8  A    between atoms: C8_10  and  C9_11 
REMARK    9  A    between atoms: C9_11  and  C10_12 
REMARK   10  A    between atoms: C10_12  and  C11_13 
REMARK   11  A    between atoms: C11_13  and  C12_14 
REMARK   12  A    between atoms: C12_14  and  C13_15 
REMARK   13  A    between atoms: C13_15  and  C14_16 
REMARK   14  A    between atoms: C14_16  and  C15_17 
REMARK   15  A    between atoms: C15_17  and  C16_18 
REMARK   16  A    between atoms: C16_18  and  C17_19 
REMARK   17  A    between atoms: C17_19  and  C18_20 
ROOT
ATOM      1  C10 STE d          -2.668  12.655  19.905  0.00  0.00    -0.065 C 
ATOM      2  H17 STE d          -3.134  12.926  20.864  0.00  0.00     0.033 H 
ATOM      3  H18 STE d          -3.378  12.065  19.306  0.00  0.00     0.033 H 
ENDROOT
BRANCH   1   4
ATOM      4  C9  STE d          -1.392  11.860  20.144  0.00  0.00    -0.065 C 
ATOM      5  H15 STE d          -0.564  12.550  20.368  0.00  0.00     0.033 H 
ATOM      6  H16 STE d          -1.538  11.175  20.993  0.00  0.00     0.033 H 
BRANCH   4   7
ATOM      7  C8  STE d          -1.063  11.059  18.895  0.00  0.00    -0.065 C 
ATOM      8  H13 STE d          -1.234  11.677  18.002  0.00  0.00     0.033 H 
ATOM      9  H14 STE d          -0.011  10.738  18.925  0.00  0.00     0.033 H 
BRANCH   7  10
ATOM     10  C7  STE d          -1.964   9.849  18.858  0.00  0.00    -0.065 C 
ATOM     11  H11 STE d          -3.002  10.169  19.029  0.00  0.00     0.033 H 
ATOM     12  H12 STE d          -1.885   9.374  17.869  0.00  0.00     0.033 H 
BRANCH  10  13
ATOM     13  C6  STE d          -1.576   8.835  19.927  0.00  0.00    -0.065 C 
ATOM     14  H9  STE d          -0.754   8.208  19.552  0.00  0.00     0.033 H 
ATOM     15  H10 STE d          -1.247   9.369  20.831  0.00  0.00     0.033 H 
BRANCH  13  16
ATOM     16  C5  STE d          -2.768   7.949  20.273  0.00  0.00    -0.065 C 
ATOM     17  H7  STE d          -2.524   6.909  20.010  0.00  0.00     0.033 H 
ATOM     18  H8  STE d          -2.960   8.019  21.354  0.00  0.00     0.033 H 
BRANCH  16  19
ATOM     19  C4  STE d          -4.025   8.359  19.524  0.00  0.00    -0.065 C 
ATOM     20  H5  STE d          -4.744   8.782  20.242  0.00  0.00     0.033 H 
ATOM     21  H6  STE d          -3.762   9.122  18.776  0.00  0.00     0.033 H 
BRANCH  19  22
ATOM     22  C3  STE d          -4.674   7.174  18.815  0.00  0.00    -0.056 C 
ATOM     23  H3  STE d          -5.705   7.059  19.181  0.00  0.00     0.033 H 
ATOM     24  H4  STE d          -4.690   7.371  17.732  0.00  0.00     0.033 H 
BRANCH  22  25
ATOM     25  C2  STE d          -3.909   5.878  19.072  0.00  0.00     0.016 C 
ATOM     26  H1  STE d          -3.745   5.353  18.120  0.00  0.00     0.049 H 
ATOM     27  H2  STE d          -2.939   6.109  19.535  0.00  0.00     0.049 H 
BRANCH  25  28
ATOM     28  C1  STE d          -4.716   5.007  19.997  0.00  0.00     0.172 C 
ATOM     29  O1  STE d          -4.183   4.637  21.072  0.00  0.00    -0.648 OA
ATOM     30  O2  STE d          -5.868   4.667  19.650  0.00  0.00    -0.648 OA
ENDBRANCH  25  28
ENDBRANCH  22  25
ENDBRANCH  19  22
ENDBRANCH  16  19
ENDBRANCH  13  16
ENDBRANCH  10  13
ENDBRANCH   7  10
ENDBRANCH   4   7
ENDBRANCH   1   4
BRANCH   1  31
ATOM     31  C11 STE d          -2.255  13.904  19.152  0.00  0.00    -0.065 C 
ATOM     32  H19 STE d          -1.172  13.883  18.962  0.00  0.00     0.033 H 
ATOM     33  H20 STE d          -2.507  14.796  19.743  0.00  0.00     0.033 H 
BRANCH  31  34
ATOM     34  C12 STE d          -3.003  13.933  17.839  0.00  0.00    -0.065 C 
ATOM     35  H21 STE d          -3.229  12.906  17.516  0.00  0.00     0.033 H 
ATOM     36  H22 STE d          -2.390  14.432  17.073  0.00  0.00     0.033 H 
BRANCH  34  37
ATOM     37  C13 STE d          -4.280  14.695  18.042  0.00  0.00    -0.065 C 
ATOM     38  H23 STE d          -4.596  14.590  19.091  0.00  0.00     0.033 H 
ATOM     39  H24 STE d          -5.054  14.278  17.381  0.00  0.00     0.033 H 
BRANCH  37  40
ATOM     40  C14 STE d          -4.101  16.169  17.726  0.00  0.00    -0.065 C 
ATOM     41  H25 STE d          -3.548  16.647  18.547  0.00  0.00     0.033 H 
ATOM     42  H26 STE d          -5.092  16.638  17.630  0.00  0.00     0.033 H 
BRANCH  40  43
ATOM     43  C15 STE d          -3.328  16.371  16.423  0.00  0.00    -0.065 C 
ATOM     44  H27 STE d          -3.315  15.436  15.845  0.00  0.00     0.033 H 
ATOM     45  H28 STE d          -2.297  16.682  16.643  0.00  0.00     0.033 H 
BRANCH  43  46
ATOM     46  C16 STE d          -4.038  17.455  15.637  0.00  0.00    -0.065 C 
ATOM     47  H29 STE d          -3.296  17.990  15.026  0.00  0.00     0.033 H 
ATOM     48  H30 STE d          -4.504  18.156  16.346  0.00  0.00     0.033 H 
BRANCH  46  49
ATOM     49  C17 STE d          -5.107  16.908  14.727  0.00  0.00    -0.069 C 
ATOM     50  H31 STE d          -5.178  17.554  13.839  0.00  0.00     0.032 H 
ATOM     51  H32 STE d          -6.067  16.916  15.265  0.00  0.00     0.032 H 
BRANCH  49  52
ATOM     52  C18 STE d          -4.818  15.492  14.274  0.00  0.00    -0.077 C 
ATOM     53  H33 STE d          -4.713  15.472  13.179  0.00  0.00     0.027 H 
ATOM     54  H34 STE d          -5.647  14.835  14.574  0.00  0.00     0.027 H 
ATOM     55  H35 STE d          -3.884  15.142  14.738  0.00  0.00     0.027 H 
ENDBRANCH  49  52
ENDBRANCH  46  49
ENDBRANCH  43  46
ENDBRANCH  40  43
ENDBRANCH  37  40
ENDBRANCH  34  37
ENDBRANCH  31  34
ENDBRANCH   1  31
TORSDOF 17
ENDMDL
MODEL 7
REMARK VINA RESULT:      -6.1      4.365      9.581
REMARK  17 active torsions:
REMARK  status: ('A' for Active; 'I' for Inactive)
REMARK    1  A    between atoms: C1_1  and  C2_4 
REMARK    2  A    between atoms: C2_4  and  C3_5 
REMARK    3  A    between atoms: C3_5  and  C4_6 
REMARK    4  A    between atoms: C4_6  and  C5_7 
REMARK    5  A    between atoms: C5_7  and  C6_8 
REMARK    6  A    between atoms: C6_8  and  C7_9 
REMARK    7  A    between atoms: C7_9  and  C8_10 
REMARK    8  A    between atoms: C8_10  and  C9_11 
REMARK    9  A    between atoms: C9_11  and  C10_12 
REMARK   10  A    between atoms: C10_12  and  C11_13 
REMARK   11  A    between atoms: C11_13  and  C12_14 
REMARK   12  A    between atoms: C12_14  and  C13_15 
REMARK   13  A    between atoms: C13_15  and  C14_16 
REMARK   14  A    between atoms: C14_16  and  C15_17 
REMARK   15  A    between atoms: C15_17  and  C16_18 
REMARK   16  A    between atoms: C16_18  and  C17_19 
REMARK   17  A    between atoms: C17_19  and  C18_20 
ROOT
ATOM      1  C10 STE d          -1.498   9.367  19.427  0.00  0.00    -0.065 C 
ATOM      2  H17 STE d          -1.280   9.360  20.505  0.00  0.00     0.033 H 
ATOM      3  H18 STE d          -0.765   8.737  18.901  0.00  0.00     0.033 H 
ENDROOT
BRANCH   1   4
ATOM      4  C9  STE d          -1.451  10.790  18.888  0.00  0.00    -0.065 C 
ATOM      5  H15 STE d          -0.616  10.888  18.178  0.00  0.00     0.033 H 
ATOM      6  H16 STE d          -2.397  11.022  18.376  0.00  0.00     0.033 H 
BRANCH   4   7
ATOM      7  C8  STE d          -1.251  11.754  20.046  0.00  0.00    -0.065 C 
ATOM      8  H13 STE d          -1.156  11.191  20.986  0.00  0.00     0.033 H 
ATOM      9  H14 STE d          -0.340  12.349  19.881  0.00  0.00     0.033 H 
BRANCH   7  10
ATOM     10  C7  STE d          -2.451  12.666  20.117  0.00  0.00    -0.065 C 
ATOM     11  H11 STE d          -3.102  12.339  20.941  0.00  0.00     0.033 H 
ATOM     12  H12 STE d          -2.108  13.694  20.306  0.00  0.00     0.033 H 
BRANCH  10  13
ATOM     13  C6  STE d          -3.245  12.639  18.818  0.00  0.00    -0.065 C 
ATOM     14  H9  STE d          -2.679  12.082  18.057  0.00  0.00     0.033 H 
ATOM     15  H10 STE d          -4.211  12.142  18.993  0.00  0.00     0.033 H 
BRANCH  13  16
ATOM     16  C5  STE d          -3.492  14.059  18.320  0.00  0.00    -0.065 C 
ATOM     17  H7  STE d          -3.741  14.021  17.250  0.00  0.00     0.033 H 
ATOM     18  H8  STE d          -4.339  14.487  18.878  0.00  0.00     0.033 H 
BRANCH  16  19
ATOM     19  C4  STE d          -2.279  14.953  18.509  0.00  0.00    -0.065 C 
ATOM     20  H5  STE d          -1.838  14.752  19.496  0.00  0.00     0.033 H 
ATOM     21  H6  STE d          -1.542  14.725  17.724  0.00  0.00     0.033 H 
BRANCH  19  22
ATOM     22  C3  STE d          -2.647  16.432  18.424  0.00  0.00    -0.056 C 
ATOM     23  H3  STE d          -2.534  16.886  19.420  0.00  0.00     0.033 H 
ATOM     24  H4  STE d          -1.967  16.930  17.717  0.00  0.00     0.033 H 
BRANCH  22  25
ATOM     25  C2  STE d          -4.085  16.627  17.950  0.00  0.00     0.016 C 
ATOM     26  H1  STE d          -4.552  15.647  17.781  0.00  0.00     0.049 H 
ATOM     27  H2  STE d          -4.653  17.178  18.715  0.00  0.00     0.049 H 
BRANCH  25  28
ATOM     28  C1  STE d          -4.076  17.411  16.665  0.00  0.00     0.172 C 
ATOM     29  O1  STE d          -4.362  18.633  16.718  0.00  0.00    -0.648 OA
ATOM     30  O2  STE d          -3.812  16.813  15.599  0.00  0.00    -0.648 OA
ENDBRANCH  25  28
ENDBRANCH  22  25
ENDBRANCH  19  22
ENDBRANCH  16  19
ENDBRANCH  13  16
ENDBRANCH  10  13
ENDBRANCH   7  10
ENDBRANCH   4   7
ENDBRANCH   1   4
BRANCH   1  31
ATOM     31  C11 STE d          -2.904   8.863  19.173  0.00  0.00    -0.065 C 
ATOM     32  H19 STE d          -2.879   8.042  18.442  0.00  0.00     0.033 H 
ATOM     33  H20 STE d          -3.528   9.681  18.784  0.00  0.00     0.033 H 
BRANCH  31  34
ATOM     34  C12 STE d          -3.472   8.364  20.482  0.00  0.00    -0.065 C 
ATOM     35  H21 STE d          -3.956   9.194  21.017  0.00  0.00     0.033 H 
ATOM     36  H22 STE d          -2.665   7.949  21.103  0.00  0.00     0.033 H 
BRANCH  34  37
ATOM     37  C13 STE d          -4.482   7.295  20.180  0.00  0.00    -0.065 C 
ATOM     38  H23 STE d          -4.936   6.956  21.122  0.00  0.00     0.033 H 
ATOM     39  H24 STE d          -3.973   6.451  19.691  0.00  0.00     0.033 H 
BRANCH  37  40
ATOM     40  C14 STE d          -5.575   7.812  19.262  0.00  0.00    -0.065 C 
ATOM     41  H25 STE d          -5.217   8.720  18.755  0.00  0.00     0.033 H 
ATOM     42  H26 STE d          -6.463   8.056  19.865  0.00  0.00     0.033 H 
BRANCH  40  43
ATOM     43  C15 STE d          -5.960   6.773  18.210  0.00  0.00    -0.065 C 
ATOM     44  H27 STE d          -5.097   6.557  17.563  0.00  0.00     0.033 H 
ATOM     45  H28 STE d          -6.792   7.150  17.597  0.00  0.00     0.033 H 
BRANCH  43  46
ATOM     46  C16 STE d          -6.384   5.518  18.944  0.00  0.00    -0.065 C 
ATOM     47  H29 STE d          -7.468   5.380  18.808  0.00  0.00     0.033 H 
ATOM     48  H30 STE d          -6.162   5.645  20.015  0.00  0.00     0.033 H 
BRANCH  46  49
ATOM     49  C17 STE d          -5.675   4.285  18.447  0.00  0.00    -0.069 C 
ATOM     50  H31 STE d          -6.409   3.634  17.949  0.00  0.00     0.032 H 
ATOM     51  H32 STE d          -5.241   3.756  19.308  0.00  0.00     0.032 H 
BRANCH  49  52
ATOM     52  C18 STE d          -4.567   4.606  17.467  0.00  0.00    -0.077 C 
ATOM     53  H33 STE d          -3.613   4.219  17.853  0.00  0.00     0.027 H 
ATOM     54  H34 STE d          -4.495   5.697  17.340  0.00  0.00     0.027 H 
ATOM     55  H35 STE d          -4.788   4.137  16.497  0.00  0.00     0.027 H 
ENDBRANCH  49  52
ENDBRANCH  46  49
ENDBRANCH  43  46
ENDBRANCH  40  43
ENDBRANCH  37  40
ENDBRANCH  34  37
ENDBRANCH  31  34
ENDBRANCH   1  31
TORSDOF 17
ENDMDL
MODEL 8
REMARK VINA RESULT:      -6.0      1.454      2.519
REMARK  17 active torsions:
REMARK  status: ('A' for Active; 'I' for Inactive)
REMARK    1  A    between atoms: C1_1  and  C2_4 
REMARK    2  A    between atoms: C2_4  and  C3_5 
REMARK    3  A    between atoms: C3_5  and  C4_6 
REMARK    4  A    between atoms: C4_6  and  C5_7 
REMARK    5  A    between atoms: C5_7  and  C6_8 
REMARK    6  A    between atoms: C6_8  and  C7_9 
REMARK    7  A    between atoms: C7_9  and  C8_10 
REMARK    8  A    between atoms: C8_10  and  C9_11 
REMARK    9  A    between atoms: C9_11  and  C10_12 
REMARK   10  A    between atoms: C10_12  and  C11_13 
REMARK   11  A    between atoms: C11_13  and  C12_14 
REMARK   12  A    between atoms: C12_14  and  C13_15 
REMARK   13  A    between atoms: C13_15  and  C14_16 
REMARK   14  A    between atoms: C14_16  and  C15_17 
REMARK   15  A    between atoms: C15_17  and  C16_18 
REMARK   16  A    between atoms: C16_18  and  C17_19 
REMARK   17  A    between atoms: C17_19  and  C18_20 
ROOT
ATOM      1  C10 STE d          -2.546  12.587  19.981  0.00  0.00    -0.065 C 
ATOM      2  H17 STE d          -2.550  13.173  20.912  0.00  0.00     0.033 H 
ATOM      3  H18 STE d          -3.474  11.999  19.913  0.00  0.00     0.033 H 
ENDROOT
BRANCH   1   4
ATOM      4  C9  STE d          -1.334  11.666  19.943  0.00  0.00    -0.065 C 
ATOM      5  H15 STE d          -0.419  12.254  20.109  0.00  0.00     0.033 H 
ATOM      6  H16 STE d          -1.427  10.902  20.730  0.00  0.00     0.033 H 
BRANCH   4   7
ATOM      7  C8  STE d          -1.266  10.989  18.584  0.00  0.00    -0.065 C 
ATOM      8  H13 STE d          -1.764  11.616  17.831  0.00  0.00     0.033 H 
ATOM      9  H14 STE d          -0.214  10.836  18.298  0.00  0.00     0.033 H 
BRANCH   7  10
ATOM     10  C7  STE d          -1.966   9.656  18.682  0.00  0.00    -0.065 C 
ATOM     11  H11 STE d          -3.053   9.823  18.699  0.00  0.00     0.033 H 
ATOM     12  H12 STE d          -1.702   9.048  17.805  0.00  0.00     0.033 H 
BRANCH  10  13
ATOM     13  C6  STE d          -1.560   8.908  19.945  0.00  0.00    -0.065 C 
ATOM     14  H9  STE d          -0.777   8.175  19.698  0.00  0.00     0.033 H 
ATOM     15  H10 STE d          -1.171   9.625  20.683  0.00  0.00     0.033 H 
BRANCH  13  16
ATOM     16  C5  STE d          -2.761   8.179  20.537  0.00  0.00    -0.065 C 
ATOM     17  H7  STE d          -2.684   8.201  21.634  0.00  0.00     0.033 H 
ATOM     18  H8  STE d          -3.680   8.698  20.224  0.00  0.00     0.033 H 
BRANCH  16  19
ATOM     19  C4  STE d          -2.837   6.732  20.081  0.00  0.00    -0.065 C 
ATOM     20  H5  STE d          -3.761   6.589  19.501  0.00  0.00     0.033 H 
ATOM     21  H6  STE d          -1.967   6.512  19.444  0.00  0.00     0.033 H 
BRANCH  19  22
ATOM     22  C3  STE d          -2.841   5.765  21.262  0.00  0.00    -0.056 C 
ATOM     23  H3  STE d          -2.995   6.335  22.190  0.00  0.00     0.033 H 
ATOM     24  H4  STE d          -3.664   5.046  21.133  0.00  0.00     0.033 H 
BRANCH  22  25
ATOM     25  C2  STE d          -1.525   4.998  21.365  0.00  0.00     0.016 C 
ATOM     26  H1  STE d          -0.816   5.382  20.616  0.00  0.00     0.049 H 
ATOM     27  H2  STE d          -1.101   5.128  22.371  0.00  0.00     0.049 H 
BRANCH  25  28
ATOM     28  C1  STE d          -1.787   3.537  21.111  0.00  0.00     0.172 C 
ATOM     29  O1  STE d          -2.044   2.805  22.098  0.00  0.00    -0.648 OA
ATOM     30  O2  STE d          -1.712   3.109  19.938  0.00  0.00    -0.648 OA
ENDBRANCH  25  28
ENDBRANCH  22  25
ENDBRANCH  19  22
ENDBRANCH  16  19
ENDBRANCH  13  16
ENDBRANCH  10  13
ENDBRANCH   7  10
ENDBRANCH   4   7
ENDBRANCH   1   4
BRANCH   1  31
ATOM     31  C11 STE d          -2.418  13.505  18.782  0.00  0.00    -0.065 C 
ATOM     32  H19 STE d          -1.753  13.051  18.034  0.00  0.00     0.033 H 
ATOM     33  H20 STE d          -2.006  14.475  19.099  0.00  0.00     0.033 H 
BRANCH  31  34
ATOM     34  C12 STE d          -3.794  13.704  18.189  0.00  0.00    -0.065 C 
ATOM     35  H21 STE d          -4.551  13.250  18.845  0.00  0.00     0.033 H 
ATOM     36  H22 STE d          -3.842  13.235  17.195  0.00  0.00     0.033 H 
BRANCH  34  37
ATOM     37  C13 STE d          -4.045  15.179  18.067  0.00  0.00    -0.065 C 
ATOM     38  H23 STE d          -3.714  15.676  18.991  0.00  0.00     0.033 H 
ATOM     39  H24 STE d          -5.123  15.347  17.926  0.00  0.00     0.033 H 
BRANCH  37  40
ATOM     40  C14 STE d          -3.293  15.772  16.890  0.00  0.00    -0.065 C 
ATOM     41  H25 STE d          -2.382  15.181  16.713  0.00  0.00     0.033 H 
ATOM     42  H26 STE d          -3.015  16.810  17.128  0.00  0.00     0.033 H 
BRANCH  40  43
ATOM     43  C15 STE d          -4.144  15.766  15.621  0.00  0.00    -0.065 C 
ATOM     44  H27 STE d          -5.172  15.454  15.860  0.00  0.00     0.033 H 
ATOM     45  H28 STE d          -3.713  15.074  14.883  0.00  0.00     0.033 H 
BRANCH  43  46
ATOM     46  C16 STE d          -4.147  17.176  15.068  0.00  0.00    -0.065 C 
ATOM     47  H29 STE d          -4.934  17.252  14.302  0.00  0.00     0.033 H 
ATOM     48  H30 STE d          -3.167  17.375  14.608  0.00  0.00     0.033 H 
BRANCH  46  49
ATOM     49  C17 STE d          -4.403  18.217  16.127  0.00  0.00    -0.069 C 
ATOM     50  H31 STE d          -3.636  18.119  16.909  0.00  0.00     0.032 H 
ATOM     51  H32 STE d          -5.397  18.038  16.564  0.00  0.00     0.032 H 
BRANCH  49  52
ATOM     52  C18 STE d          -4.361  19.627  15.580  0.00  0.00    -0.077 C 
ATOM     53  H33 STE d          -4.429  20.345  16.410  0.00  0.00     0.027 H 
ATOM     54  H34 STE d          -5.207  19.780  14.893  0.00  0.00     0.027 H 
ATOM     55  H35 STE d          -3.416  19.782  15.038  0.00  0.00     0.027 H 
ENDBRANCH  49  52
ENDBRANCH  46  49
ENDBRANCH  43  46
ENDBRANCH  40  43
ENDBRANCH  37  40
ENDBRANCH  34  37
ENDBRANCH  31  34
ENDBRANCH   1  31
TORSDOF 17
ENDMDL
MODEL 9
REMARK VINA RESULT:      -5.7      3.993      9.868
REMARK  17 active torsions:
REMARK  status: ('A' for Active; 'I' for Inactive)
REMARK    1  A    between atoms: C1_1  and  C2_4 
REMARK    2  A    between atoms: C2_4  and  C3_5 
REMARK    3  A    between atoms: C3_5  and  C4_6 
REMARK    4  A    between atoms: C4_6  and  C5_7 
REMARK    5  A    between atoms: C5_7  and  C6_8 
REMARK    6  A    between atoms: C6_8  and  C7_9 
REMARK    7  A    between atoms: C7_9  and  C8_10 
REMARK    8  A    between atoms: C8_10  and  C9_11 
REMARK    9  A    between atoms: C9_11  and  C10_12 
REMARK   10  A    between atoms: C10_12  and  C11_13 
REMARK   11  A    between atoms: C11_13  and  C12_14 
REMARK   12  A    between atoms: C12_14  and  C13_15 
REMARK   13  A    between atoms: C13_15  and  C14_16 
REMARK   14  A    between atoms: C14_16  and  C15_17 
REMARK   15  A    between atoms: C15_17  and  C16_18 
REMARK   16  A    between atoms: C16_18  and  C17_19 
REMARK   17  A    between atoms: C17_19  and  C18_20 
ROOT
ATOM      1  C10 STE d          -2.904   8.806  20.286  0.00  0.00    -0.065 C 
ATOM      2  H17 STE d          -3.618   8.855  19.450  0.00  0.00     0.033 H 
ATOM      3  H18 STE d          -3.162   9.571  21.034  0.00  0.00     0.033 H 
ENDROOT
BRANCH   1   4
ATOM      4  C9  STE d          -1.484   9.022  19.781  0.00  0.00    -0.065 C 
ATOM      5  H15 STE d          -0.816   9.217  20.633  0.00  0.00     0.033 H 
ATOM      6  H16 STE d          -1.143   8.123  19.247  0.00  0.00     0.033 H 
BRANCH   4   7
ATOM      7  C8  STE d          -1.467  10.212  18.836  0.00  0.00    -0.065 C 
ATOM      8  H13 STE d          -0.449  10.621  18.772  0.00  0.00     0.033 H 
ATOM      9  H14 STE d          -1.802   9.898  17.836  0.00  0.00     0.033 H 
BRANCH   7  10
ATOM     10  C7  STE d          -2.405  11.262  19.381  0.00  0.00    -0.065 C 
ATOM     11  H11 STE d          -3.342  10.778  19.693  0.00  0.00     0.033 H 
ATOM     12  H12 STE d          -1.934  11.745  20.250  0.00  0.00     0.033 H 
BRANCH  10  13
ATOM     13  C6  STE d          -2.719  12.322  18.333  0.00  0.00    -0.065 C 
ATOM     14  H9  STE d          -1.843  12.462  17.684  0.00  0.00     0.033 H 
ATOM     15  H10 STE d          -3.576  11.990  17.727  0.00  0.00     0.033 H 
BRANCH  13  16
ATOM     16  C5  STE d          -3.062  13.646  19.007  0.00  0.00    -0.065 C 
ATOM     17  H7  STE d          -4.064  13.960  18.681  0.00  0.00     0.033 H 
ATOM     18  H8  STE d          -3.061  13.498  20.098  0.00  0.00     0.033 H 
BRANCH  16  19
ATOM     19  C4  STE d          -2.069  14.742  18.660  0.00  0.00    -0.065 C 
ATOM     20  H5  STE d          -1.341  14.835  19.479  0.00  0.00     0.033 H 
ATOM     21  H6  STE d          -1.544  14.467  17.733  0.00  0.00     0.033 H 
BRANCH  19  22
ATOM     22  C3  STE d          -2.759  16.088  18.456  0.00  0.00    -0.056 C 
ATOM     23  H3  STE d          -2.818  16.609  19.423  0.00  0.00     0.033 H 
ATOM     24  H4  STE d          -2.166  16.690  17.752  0.00  0.00     0.033 H 
BRANCH  22  25
ATOM     25  C2  STE d          -4.169  15.917  17.898  0.00  0.00     0.016 C 
ATOM     26  H1  STE d          -4.439  14.851  17.900  0.00  0.00     0.049 H 
ATOM     27  H2  STE d          -4.882  16.477  18.521  0.00  0.00     0.049 H 
BRANCH  25  28
ATOM     28  C1  STE d          -4.206  16.445  16.488  0.00  0.00     0.172 C 
ATOM     29  O1  STE d          -4.817  17.522  16.279  0.00  0.00    -0.648 OA
ATOM     30  O2  STE d          -3.655  15.781  15.583  0.00  0.00    -0.648 OA
ENDBRANCH  25  28
ENDBRANCH  22  25
ENDBRANCH  19  22
ENDBRANCH  16  19
ENDBRANCH  13  16
ENDBRANCH  10  13
ENDBRANCH   7  10
ENDBRANCH   4   7
ENDBRANCH   1   4
BRANCH   1  31
ATOM     31  C11 STE d          -2.927   7.428  20.916  0.00  0.00    -0.065 C 
ATOM     32  H19 STE d          -3.869   6.920  20.666  0.00  0.00     0.033 H 
ATOM     33  H20 STE d          -2.835   7.516  22.009  0.00  0.00     0.033 H 
BRANCH  31  34
ATOM     34  C12 STE d          -1.760   6.638  20.368  0.00  0.00    -0.065 C 
ATOM     35  H21 STE d          -0.835   6.932  20.885  0.00  0.00     0.033 H 
ATOM     36  H22 STE d          -1.654   6.831  19.290  0.00  0.00     0.033 H 
BRANCH  34  37
ATOM     37  C13 STE d          -2.030   5.180  20.599  0.00  0.00    -0.065 C 
ATOM     38  H23 STE d          -2.889   5.078  21.279  0.00  0.00     0.033 H 
ATOM     39  H24 STE d          -1.142   4.720  21.057  0.00  0.00     0.033 H 
BRANCH  37  40
ATOM     40  C14 STE d          -2.343   4.462  19.298  0.00  0.00    -0.065 C 
ATOM     41  H25 STE d          -1.956   3.435  19.354  0.00  0.00     0.033 H 
ATOM     42  H26 STE d          -1.851   4.994  18.469  0.00  0.00     0.033 H 
BRANCH  40  43
ATOM     43  C15 STE d          -3.847   4.414  19.034  0.00  0.00    -0.065 C 
ATOM     44  H27 STE d          -4.390   4.883  19.867  0.00  0.00     0.033 H 
ATOM     45  H28 STE d          -4.175   3.370  18.923  0.00  0.00     0.033 H 
BRANCH  43  46
ATOM     46  C16 STE d          -4.108   5.177  17.751  0.00  0.00    -0.065 C 
ATOM     47  H29 STE d          -4.787   4.582  17.120  0.00  0.00     0.033 H 
ATOM     48  H30 STE d          -3.152   5.321  17.227  0.00  0.00     0.033 H 
BRANCH  46  49
ATOM     49  C17 STE d          -4.734   6.526  17.994  0.00  0.00    -0.069 C 
ATOM     50  H31 STE d          -4.897   7.018  17.023  0.00  0.00     0.032 H 
ATOM     51  H32 STE d          -4.045   7.130  18.601  0.00  0.00     0.032 H 
BRANCH  49  52
ATOM     52  C18 STE d          -6.061   6.430  18.717  0.00  0.00    -0.077 C 
ATOM     53  H33 STE d          -6.036   7.066  19.614  0.00  0.00     0.027 H 
ATOM     54  H34 STE d          -6.243   5.386  19.012  0.00  0.00     0.027 H 
ATOM     55  H35 STE d          -6.867   6.769  18.050  0.00  0.00     0.027 H 
ENDBRANCH  49  52
ENDBRANCH  46  49
ENDBRANCH  43  46
ENDBRANCH  40  43
ENDBRANCH  37  40
ENDBRANCH  34  37
ENDBRANCH  31  34
ENDBRANCH   1  31
TORSDOF 17
ENDMDL
MODEL 10
REMARK VINA RESULT:      -5.6      2.336      3.116
REMARK  17 active torsions:
REMARK  status: ('A' for Active; 'I' for Inactive)
REMARK    1  A    between atoms: C1_1  and  C2_4 
REMARK    2  A    between atoms: C2_4  and  C3_5 
REMARK    3  A    between atoms: C3_5  and  C4_6 
REMARK    4  A    between atoms: C4_6  and  C5_7 
REMARK    5  A    between atoms: C5_7  and  C6_8 
REMARK    6  A    between atoms: C6_8  and  C7_9 
REMARK    7  A    between atoms: C7_9  and  C8_10 
REMARK    8  A    between atoms: C8_10  and  C9_11 
REMARK    9  A    between atoms: C9_11  and  C10_12 
REMARK   10  A    between atoms: C10_12  and  C11_13 
REMARK   11  A    between atoms: C11_13  and  C12_14 
REMARK   12  A    between atoms: C12_14  and  C13_15 
REMARK   13  A    between atoms: C13_15  and  C14_16 
REMARK   14  A    between atoms: C14_16  and  C15_17 
REMARK   15  A    between atoms: C15_17  and  C16_18 
REMARK   16  A    between atoms: C16_18  and  C17_19 
REMARK   17  A    between atoms: C17_19  and  C18_20 
ROOT
ATOM      1  C10 STE d          -2.487  12.461  18.478  0.00  0.00    -0.065 C 
ATOM      2  H17 STE d          -2.516  12.684  17.401  0.00  0.00     0.033 H 
ATOM      3  H18 STE d          -1.555  11.926  18.716  0.00  0.00     0.033 H 
ENDROOT
BRANCH   1   4
ATOM      4  C9  STE d          -3.693  11.622  18.876  0.00  0.00    -0.065 C 
ATOM      5  H15 STE d          -4.410  12.246  19.429  0.00  0.00     0.033 H 
ATOM      6  H16 STE d          -4.177  11.220  17.973  0.00  0.00     0.033 H 
BRANCH   4   7
ATOM      7  C8  STE d          -3.230  10.474  19.758  0.00  0.00    -0.065 C 
ATOM      8  H13 STE d          -2.956  10.856  20.752  0.00  0.00     0.033 H 
ATOM      9  H14 STE d          -4.038   9.733  19.859  0.00  0.00     0.033 H 
BRANCH   7  10
ATOM     10  C7  STE d          -2.029   9.832  19.109  0.00  0.00    -0.065 C 
ATOM     11  H11 STE d          -2.298   9.513  18.091  0.00  0.00     0.033 H 
ATOM     12  H12 STE d          -1.213  10.568  19.059  0.00  0.00     0.033 H 
BRANCH  10  13
ATOM     13  C6  STE d          -1.554   8.619  19.898  0.00  0.00    -0.065 C 
ATOM     14  H9  STE d          -0.993   7.948  19.230  0.00  0.00     0.033 H 
ATOM     15  H10 STE d          -0.899   8.952  20.717  0.00  0.00     0.033 H 
BRANCH  13  16
ATOM     16  C5  STE d          -2.745   7.868  20.481  0.00  0.00    -0.065 C 
ATOM     17  H7  STE d          -2.582   7.726  21.559  0.00  0.00     0.033 H 
ATOM     18  H8  STE d          -3.654   8.469  20.324  0.00  0.00     0.033 H 
BRANCH  16  19
ATOM     19  C4  STE d          -2.940   6.507  19.833  0.00  0.00    -0.065 C 
ATOM     20  H5  STE d          -3.156   6.650  18.764  0.00  0.00     0.033 H 
ATOM     21  H6  STE d          -2.015   5.923  19.946  0.00  0.00     0.033 H 
BRANCH  19  22
ATOM     22  C3  STE d          -4.092   5.735  20.471  0.00  0.00    -0.056 C 
ATOM     23  H3  STE d          -3.694   5.102  21.278  0.00  0.00     0.033 H 
ATOM     24  H4  STE d          -4.813   6.453  20.891  0.00  0.00     0.033 H 
BRANCH  22  25
ATOM     25  C2  STE d          -4.807   4.851  19.453  0.00  0.00     0.016 C 
ATOM     26  H1  STE d          -4.096   4.533  18.677  0.00  0.00     0.049 H 
ATOM     27  H2  STE d          -5.218   3.965  19.960  0.00  0.00     0.049 H 
BRANCH  25  28
ATOM     28  C1  STE d          -5.927   5.636  18.822  0.00  0.00     0.172 C 
ATOM     29  O1  STE d          -6.368   5.244  17.713  0.00  0.00    -0.648 OA
ATOM     30  O2  STE d          -6.352   6.654  19.409  0.00  0.00    -0.648 OA
ENDBRANCH  25  28
ENDBRANCH  22  25
ENDBRANCH  19  22
ENDBRANCH  16  19
ENDBRANCH  13  16
ENDBRANCH  10  13
ENDBRANCH   7  10
ENDBRANCH   4   7
ENDBRANCH   1   4
BRANCH   1  31
ATOM     31  C11 STE d          -2.578  13.743  19.281  0.00  0.00    -0.065 C 
ATOM     32  H19 STE d          -1.847  13.720  20.102  0.00  0.00     0.033 H 
ATOM     33  H20 STE d          -3.591  13.852  19.695  0.00  0.00     0.033 H 
BRANCH  31  34
ATOM     34  C12 STE d          -2.274  14.902  18.359  0.00  0.00    -0.065 C 
ATOM     35  H21 STE d          -1.589  14.575  17.564  0.00  0.00     0.033 H 
ATOM     36  H22 STE d          -1.810  15.719  18.930  0.00  0.00     0.033 H 
BRANCH  34  37
ATOM     37  C13 STE d          -3.565  15.372  17.755  0.00  0.00    -0.065 C 
ATOM     38  H23 STE d          -3.855  16.324  18.225  0.00  0.00     0.033 H 
ATOM     39  H24 STE d          -4.344  14.618  17.943  0.00  0.00     0.033 H 
BRANCH  37  40
ATOM     40  C14 STE d          -3.431  15.582  16.257  0.00  0.00    -0.065 C 
ATOM     41  H25 STE d          -3.651  14.635  15.743  0.00  0.00     0.033 H 
ATOM     42  H26 STE d          -2.400  15.891  16.030  0.00  0.00     0.033 H 
BRANCH  40  43
ATOM     43  C15 STE d          -4.394  16.656  15.754  0.00  0.00    -0.065 C 
ATOM     44  H27 STE d          -5.343  16.195  15.446  0.00  0.00     0.033 H 
ATOM     45  H28 STE d          -3.950  17.188  14.900  0.00  0.00     0.033 H 
BRANCH  43  46
ATOM     46  C16 STE d          -4.633  17.623  16.896  0.00  0.00    -0.065 C 
ATOM     47  H29 STE d          -3.814  17.519  17.623  0.00  0.00     0.033 H 
ATOM     48  H30 STE d          -5.588  17.365  17.380  0.00  0.00     0.033 H 
BRANCH  46  49
ATOM     49  C17 STE d          -4.696  19.058  16.441  0.00  0.00    -0.069 C 
ATOM     50  H31 STE d          -4.053  19.663  17.097  0.00  0.00     0.032 H 
ATOM     51  H32 STE d          -5.735  19.409  16.520  0.00  0.00     0.032 H 
BRANCH  49  52
ATOM     52  C18 STE d          -4.233  19.235  15.010  0.00  0.00    -0.077 C 
ATOM     53  H33 STE d          -4.658  20.162  14.600  0.00  0.00     0.027 H 
ATOM     54  H34 STE d          -4.570  18.379  14.407  0.00  0.00     0.027 H 
ATOM     55  H35 STE d          -3.135  19.293  14.984  0.00  0.00     0.027 H 
ENDBRANCH  49  52
ENDBRANCH  46  49
ENDBRANCH  43  46
ENDBRANCH  40  43
ENDBRANCH  37  40
ENDBRANCH  34  37
ENDBRANCH  31  34
ENDBRANCH   1  31
TORSDOF 17
ENDMDL
