MODEL 1
REMARK VINA RESULT:      -6.3      0.000      0.000
REMARK  15 active torsions:
REMARK  status: ('A' for Active; 'I' for Inactive)
REMARK    1  A    between atoms: CA_2  and  N_1 
REMARK    2  A    between atoms: C_3  and  CA_2 
REMARK    3  A    between atoms: CA_2  and  CB_5 
REMARK       I    between atoms: N_10  and  C_3 
REMARK    4  A    between atoms: CB_5  and  CG_6 
REMARK    5  A    between atoms: CG_6  and  CD_7 
REMARK    6  A    between atoms: CA_11  and  N_10 
REMARK    7  A    between atoms: C_12  and  CA_11 
REMARK    8  A    between atoms: CA_11  and  CB_14 
REMARK       I    between atoms: C_12  and  N_18 
REMARK    9  A    between atoms: CB_14  and  CG_15 
REMARK   10  A    between atoms: N_18  and  CA_19 
REMARK   11  A    between atoms: CA_19  and  C_20 
REMARK   12  A    between atoms: CA_19  and  CB_22 
REMARK   13  A    between atoms: CB_22  and  CG_23 
REMARK   14  A    between atoms: CG_23  and  CD2_25 
REMARK   15  A    between atoms: CG_23  and  CD1_24 
ROOT
ATOM      1  CA  MOL d           7.901  25.713   3.697  0.00  0.00     0.098 C 
ATOM      2  H10 MOL d           8.316  26.261   2.839  0.00  0.00     0.088 H 
ENDROOT
BRANCH   1   3
ATOM      3  C   MOL d           8.501  26.272   4.975  0.00  0.00     0.241 C 
ATOM      4  O   MOL d           8.348  27.458   5.278  0.00  0.00    -0.271 OA
ATOM      5  N   MOL d           9.141  25.393   5.740  0.00  0.00    -0.345 N 
ATOM      6  H13 MOL d           9.214  24.445   5.430  0.00  0.00     0.163 HD
BRANCH   5   7
ATOM      7  CA  MOL d           9.741  25.764   7.012  0.00  0.00     0.096 C 
ATOM      8  H14 MOL d           9.843  26.860   7.032  0.00  0.00     0.089 H 
BRANCH   7   9
ATOM      9  C   MOL d          11.121  25.167   7.218  0.00  0.00     0.196 C 
ATOM     10  OXT MOL d          12.002  25.421   6.371  0.00  0.00    -0.646 OA
ATOM     11  O   MOL d          11.308  24.451   8.225  0.00  0.00    -0.646 OA
ENDBRANCH   7   9
BRANCH   7  12
ATOM     12  CB  MOL d           8.813  25.344   8.144  0.00  0.00    -0.034 C 
ATOM     13  H15 MOL d           9.377  24.752   8.879  0.00  0.00     0.037 H 
ATOM     14  H16 MOL d           7.991  24.738   7.738  0.00  0.00     0.037 H 
BRANCH  12  15
ATOM     15  CG  MOL d           8.245  26.587   8.820  0.00  0.00    -0.059 C 
ATOM     16  H17 MOL d           8.129  26.376   9.893  0.00  0.00     0.038 H 
BRANCH  15  17
ATOM     17  CD2 MOL d           6.868  26.895   8.252  0.00  0.00    -0.073 C 
ATOM     18  H21 MOL d           6.567  26.091   7.563  0.00  0.00     0.028 H 
ATOM     19  H22 MOL d           6.900  27.851   7.709  0.00  0.00     0.028 H 
ATOM     20  H23 MOL d           6.139  26.966   9.074  0.00  0.00     0.028 H 
ENDBRANCH  15  17
BRANCH  15  21
ATOM     21  CD1 MOL d           9.197  27.736   8.681  0.00  0.00    -0.073 C 
ATOM     22  H18 MOL d           9.097  28.176   7.678  0.00  0.00     0.028 H 
ATOM     23  H19 MOL d          10.227  27.379   8.823  0.00  0.00     0.028 H 
ATOM     24  H20 MOL d           8.965  28.499   9.439  0.00  0.00     0.028 H 
ENDBRANCH  15  21
ENDBRANCH  12  15
ENDBRANCH   7  12
ENDBRANCH   5   7
ENDBRANCH   1   3
BRANCH   1  25
ATOM     25  CB  MOL d           6.381  25.860   3.682  0.00  0.00     0.043 C 
ATOM     26  H11 MOL d           6.061  26.327   4.625  0.00  0.00     0.052 H 
ATOM     27  H12 MOL d           5.929  24.862   3.593  0.00  0.00     0.052 H 
BRANCH  25  28
ATOM     28  CG  MOL d           5.906  26.717   2.526  0.00  0.00     0.175 C 
ATOM     29  OD1 MOL d           4.683  26.749   2.297  0.00  0.00    -0.648 OA
ATOM     30  OD2 MOL d           6.739  27.388   1.876  0.00  0.00    -0.648 OA
ENDBRANCH  25  28
ENDBRANCH   1  25
BRANCH   1  31
ATOM     31  N   MOL d           8.260  24.305   3.585  0.00  0.00    -0.345 N 
ATOM     32  C   MOL d           9.251  23.887   2.807  0.00  0.00     0.249 C 
ATOM     33  O   MOL d           9.911  24.645   2.088  0.00  0.00    -0.271 OA
ATOM     34  H9  MOL d           7.742  23.632   4.112  0.00  0.00     0.163 HD
BRANCH  32  35
ATOM     35  CA  MOL d           9.498  22.379   2.797  0.00  0.00     0.176 C 
ATOM     36  H4  MOL d           8.815  21.911   3.522  0.00  0.00     0.099 H 
BRANCH  35  37
ATOM     37  CB  MOL d          10.935  22.059   3.216  0.00  0.00    -0.021 C 
ATOM     38  H5  MOL d          11.612  22.741   2.681  0.00  0.00     0.037 H 
ATOM     39  H6  MOL d          11.157  21.021   2.927  0.00  0.00     0.037 H 
BRANCH  37  40
ATOM     40  CG  MOL d          11.191  22.204   4.703  0.00  0.00     0.018 C 
ATOM     41  H7  MOL d          10.720  21.357   5.224  0.00  0.00     0.049 H 
ATOM     42  H8  MOL d          10.735  23.145   5.046  0.00  0.00     0.049 H 
BRANCH  40  43
ATOM     43  CD  MOL d          12.666  22.226   5.053  0.00  0.00     0.172 C 
ATOM     44  OE1 MOL d          12.997  22.237   6.261  0.00  0.00    -0.648 OA
ATOM     45  OE2 MOL d          13.493  22.218   4.114  0.00  0.00    -0.648 OA
ENDBRANCH  40  43
ENDBRANCH  37  40
ENDBRANCH  35  37
BRANCH  35  46
ATOM     46  N   MOL d           9.208  21.817   1.450  0.00  0.00    -0.066 N 
ATOM     47  H1  MOL d          10.074  21.588   0.988  0.00  0.00     0.275 HD
ATOM     48  H2  MOL d           8.706  22.499   0.903  0.00  0.00     0.275 HD
ATOM     49  H3  MOL d           8.648  20.984   1.546  0.00  0.00     0.275 HD
ENDBRANCH  35  46
ENDBRANCH  32  35
ENDBRANCH   1  31
TORSDOF 15
ENDMDL
MODEL 2
REMARK VINA RESULT:      -6.1      1.730      5.862
REMARK  15 active torsions:
REMARK  status: ('A' for Active; 'I' for Inactive)
REMARK    1  A    between atoms: CA_2  and  N_1 
REMARK    2  A    between atoms: C_3  and  CA_2 
REMARK    3  A    between atoms: CA_2  and  CB_5 
REMARK       I    between atoms: N_10  and  C_3 
REMARK    4  A    between atoms: CB_5  and  CG_6 
REMARK    5  A    between atoms: CG_6  and  CD_7 
REMARK    6  A    between atoms: CA_11  and  N_10 
REMARK    7  A    between atoms: C_12  and  CA_11 
REMARK    8  A    between atoms: CA_11  and  CB_14 
REMARK       I    between atoms: C_12  and  N_18 
REMARK    9  A    between atoms: CB_14  and  CG_15 
REMARK   10  A    between atoms: N_18  and  CA_19 
REMARK   11  A    between atoms: CA_19  and  C_20 
REMARK   12  A    between atoms: CA_19  and  CB_22 
REMARK   13  A    between atoms: CB_22  and  CG_23 
REMARK   14  A    between atoms: CG_23  and  CD2_25 
REMARK   15  A    between atoms: CG_23  and  CD1_24 
ROOT
ATOM      1  CA  MOL d           9.718  25.883   6.594  0.00  0.00     0.098 C 
ATOM      2  H10 MOL d          10.225  26.667   6.013  0.00  0.00     0.088 H 
ENDROOT
BRANCH   1   3
ATOM      3  C   MOL d          10.473  24.577   6.422  0.00  0.00     0.241 C 
ATOM      4  O   MOL d          10.898  23.959   7.401  0.00  0.00    -0.271 OA
ATOM      5  N   MOL d          10.591  24.145   5.170  0.00  0.00    -0.345 N 
ATOM      6  H13 MOL d          10.210  24.698   4.429  0.00  0.00     0.163 HD
BRANCH   5   7
ATOM      7  CA  MOL d          11.257  22.893   4.842  0.00  0.00     0.096 C 
ATOM      8  H14 MOL d          11.184  22.230   5.717  0.00  0.00     0.089 H 
BRANCH   7   9
ATOM      9  C   MOL d          12.729  23.069   4.515  0.00  0.00     0.196 C 
ATOM     10  OXT MOL d          13.294  24.114   4.898  0.00  0.00    -0.646 OA
ATOM     11  O   MOL d          13.304  22.158   3.881  0.00  0.00    -0.646 OA
ENDBRANCH   7   9
BRANCH   7  12
ATOM     12  CB  MOL d          10.536  22.234   3.674  0.00  0.00    -0.034 C 
ATOM     13  H15 MOL d           9.837  21.476   4.055  0.00  0.00     0.037 H 
ATOM     14  H16 MOL d          11.271  21.754   3.012  0.00  0.00     0.037 H 
BRANCH  12  15
ATOM     15  CG  MOL d           9.764  23.293   2.895  0.00  0.00    -0.059 C 
ATOM     16  H17 MOL d           9.456  24.083   3.596  0.00  0.00     0.038 H 
BRANCH  15  17
ATOM     17  CD2 MOL d           8.504  22.677   2.303  0.00  0.00    -0.073 C 
ATOM     18  H21 MOL d           7.780  23.473   2.074  0.00  0.00     0.028 H 
ATOM     19  H22 MOL d           8.064  21.976   3.028  0.00  0.00     0.028 H 
ATOM     20  H23 MOL d           8.760  22.136   1.379  0.00  0.00     0.028 H 
ENDBRANCH  15  17
BRANCH  15  21
ATOM     21  CD1 MOL d          10.643  23.920   1.856  0.00  0.00    -0.073 C 
ATOM     22  H18 MOL d          10.052  24.623   1.252  0.00  0.00     0.028 H 
ATOM     23  H19 MOL d          11.059  23.137   1.206  0.00  0.00     0.028 H 
ATOM     24  H20 MOL d          11.464  24.462   2.349  0.00  0.00     0.028 H 
ENDBRANCH  15  21
ENDBRANCH  12  15
ENDBRANCH   7  12
ENDBRANCH   5   7
ENDBRANCH   1   3
BRANCH   1  25
ATOM     25  CB  MOL d           9.672  26.313   8.058  0.00  0.00     0.043 C 
ATOM     26  H11 MOL d          10.664  26.691   8.349  0.00  0.00     0.052 H 
ATOM     27  H12 MOL d           9.416  25.439   8.677  0.00  0.00     0.052 H 
BRANCH  25  28
ATOM     28  CG  MOL d           8.645  27.400   8.299  0.00  0.00     0.175 C 
ATOM     29  OD1 MOL d           7.598  27.083   8.894  0.00  0.00    -0.648 OA
ATOM     30  OD2 MOL d           8.896  28.572   7.937  0.00  0.00    -0.648 OA
ENDBRANCH  25  28
ENDBRANCH   1  25
BRANCH   1  31
ATOM     31  N   MOL d           8.362  25.713   6.089  0.00  0.00    -0.345 N 
ATOM     32  C   MOL d           7.813  26.566   5.233  0.00  0.00     0.249 C 
ATOM     33  O   MOL d           8.386  27.586   4.837  0.00  0.00    -0.271 OA
ATOM     34  H9  MOL d           7.827  24.926   6.397  0.00  0.00     0.163 HD
BRANCH  32  35
ATOM     35  CA  MOL d           6.382  26.249   4.802  0.00  0.00     0.176 C 
ATOM     36  H4  MOL d           5.945  25.555   5.536  0.00  0.00     0.099 H 
BRANCH  35  37
ATOM     37  CB  MOL d           6.362  25.570   3.430  0.00  0.00    -0.021 C 
ATOM     38  H5  MOL d           5.595  24.782   3.444  0.00  0.00     0.037 H 
ATOM     39  H6  MOL d           7.349  25.118   3.253  0.00  0.00     0.037 H 
BRANCH  37  40
ATOM     40  CG  MOL d           6.056  26.511   2.281  0.00  0.00     0.018 C 
ATOM     41  H7  MOL d           5.592  27.422   2.688  0.00  0.00     0.049 H 
ATOM     42  H8  MOL d           5.351  26.013   1.599  0.00  0.00     0.049 H 
BRANCH  40  43
ATOM     43  CD  MOL d           7.289  26.908   1.494  0.00  0.00     0.172 C 
ATOM     44  OE1 MOL d           7.758  28.059   1.651  0.00  0.00    -0.648 OA
ATOM     45  OE2 MOL d           7.797  26.058   0.728  0.00  0.00    -0.648 OA
ENDBRANCH  40  43
ENDBRANCH  37  40
ENDBRANCH  35  37
BRANCH  35  46
ATOM     46  N   MOL d           5.561  27.490   4.784  0.00  0.00    -0.066 N 
ATOM     47  H1  MOL d           5.482  27.854   5.720  0.00  0.00     0.275 HD
ATOM     48  H2  MOL d           4.642  27.279   4.426  0.00  0.00     0.275 HD
ATOM     49  H3  MOL d           6.002  28.177   4.193  0.00  0.00     0.275 HD
ENDBRANCH  35  46
ENDBRANCH  32  35
ENDBRANCH   1  31
TORSDOF 15
ENDMDL
MODEL 3
REMARK VINA RESULT:      -6.1      2.203      5.236
REMARK  15 active torsions:
REMARK  status: ('A' for Active; 'I' for Inactive)
REMARK    1  A    between atoms: CA_2  and  N_1 
REMARK    2  A    between atoms: C_3  and  CA_2 
REMARK    3  A    between atoms: CA_2  and  CB_5 
REMARK       I    between atoms: N_10  and  C_3 
REMARK    4  A    between atoms: CB_5  and  CG_6 
REMARK    5  A    between atoms: CG_6  and  CD_7 
REMARK    6  A    between atoms: CA_11  and  N_10 
REMARK    7  A    between atoms: C_12  and  CA_11 
REMARK    8  A    between atoms: CA_11  and  CB_14 
REMARK       I    between atoms: C_12  and  N_18 
REMARK    9  A    between atoms: CB_14  and  CG_15 
REMARK   10  A    between atoms: N_18  and  CA_19 
REMARK   11  A    between atoms: CA_19  and  C_20 
REMARK   12  A    between atoms: CA_19  and  CB_22 
REMARK   13  A    between atoms: CB_22  and  CG_23 
REMARK   14  A    between atoms: CG_23  and  CD2_25 
REMARK   15  A    between atoms: CG_23  and  CD1_24 
ROOT
ATOM      1  CA  MOL d           9.112  25.855   6.039  0.00  0.00     0.098 C 
ATOM      2  H10 MOL d           8.641  24.933   6.412  0.00  0.00     0.088 H 
ENDROOT
BRANCH   1   3
ATOM      3  C   MOL d           8.067  26.683   5.313  0.00  0.00     0.241 C 
ATOM      4  O   MOL d           8.341  27.802   4.874  0.00  0.00    -0.271 OA
ATOM      5  N   MOL d           6.883  26.098   5.152  0.00  0.00    -0.345 N 
ATOM      6  H13 MOL d           6.742  25.182   5.528  0.00  0.00     0.163 HD
BRANCH   5   7
ATOM      7  CA  MOL d           5.788  26.746   4.447  0.00  0.00     0.096 C 
ATOM      8  H14 MOL d           6.092  27.780   4.225  0.00  0.00     0.089 H 
BRANCH   7   9
ATOM      9  C   MOL d           4.507  26.804   5.260  0.00  0.00     0.196 C 
ATOM     10  OXT MOL d           3.421  26.795   4.645  0.00  0.00    -0.646 OA
ATOM     11  O   MOL d           4.603  26.855   6.505  0.00  0.00    -0.646 OA
ENDBRANCH   7   9
BRANCH   7  12
ATOM     12  CB  MOL d           5.541  26.021   3.131  0.00  0.00    -0.034 C 
ATOM     13  H15 MOL d           6.158  26.473   2.342  0.00  0.00     0.037 H 
ATOM     14  H16 MOL d           4.479  26.105   2.859  0.00  0.00     0.037 H 
BRANCH  12  15
ATOM     15  CG  MOL d           5.912  24.550   3.287  0.00  0.00    -0.059 C 
ATOM     16  H17 MOL d           6.446  24.427   4.241  0.00  0.00     0.038 H 
BRANCH  15  17
ATOM     17  CD2 MOL d           6.856  24.138   2.167  0.00  0.00    -0.073 C 
ATOM     18  H21 MOL d           6.433  24.447   1.199  0.00  0.00     0.028 H 
ATOM     19  H22 MOL d           6.984  23.045   2.180  0.00  0.00     0.028 H 
ATOM     20  H23 MOL d           7.833  24.623   2.312  0.00  0.00     0.028 H 
ENDBRANCH  15  17
BRANCH  15  21
ATOM     21  CD1 MOL d           4.677  23.704   3.342  0.00  0.00    -0.073 C 
ATOM     22  H18 MOL d           4.043  23.924   2.471  0.00  0.00     0.028 H 
ATOM     23  H19 MOL d           4.122  23.926   4.265  0.00  0.00     0.028 H 
ATOM     24  H20 MOL d           4.959  22.641   3.331  0.00  0.00     0.028 H 
ENDBRANCH  15  21
ENDBRANCH  12  15
ENDBRANCH   7  12
ENDBRANCH   5   7
ENDBRANCH   1   3
BRANCH   1  25
ATOM     25  CB  MOL d           9.703  26.615   7.223  0.00  0.00     0.043 C 
ATOM     26  H11 MOL d          10.427  27.353   6.846  0.00  0.00     0.052 H 
ATOM     27  H12 MOL d          10.218  25.900   7.883  0.00  0.00     0.052 H 
BRANCH  25  28
ATOM     28  CG  MOL d           8.638  27.339   8.021  0.00  0.00     0.175 C 
ATOM     29  OD1 MOL d           8.689  28.582   8.057  0.00  0.00    -0.648 OA
ATOM     30  OD2 MOL d           7.731  26.677   8.575  0.00  0.00    -0.648 OA
ENDBRANCH  25  28
ENDBRANCH   1  25
BRANCH   1  31
ATOM     31  N   MOL d          10.171  25.506   5.100  0.00  0.00    -0.345 N 
ATOM     32  C   MOL d          10.981  24.473   5.299  0.00  0.00     0.249 C 
ATOM     33  O   MOL d          10.932  23.762   6.308  0.00  0.00    -0.271 OA
ATOM     34  H9  MOL d          10.290  26.062   4.278  0.00  0.00     0.163 HD
BRANCH  32  35
ATOM     35  CA  MOL d          12.042  24.243   4.224  0.00  0.00     0.176 C 
ATOM     36  H4  MOL d          11.655  24.627   3.268  0.00  0.00     0.099 H 
BRANCH  35  37
ATOM     37  CB  MOL d          12.336  22.750   4.058  0.00  0.00    -0.021 C 
ATOM     38  H5  MOL d          11.836  22.206   4.873  0.00  0.00     0.037 H 
ATOM     39  H6  MOL d          13.423  22.601   4.130  0.00  0.00     0.037 H 
BRANCH  37  40
ATOM     40  CG  MOL d          11.862  22.171   2.739  0.00  0.00     0.018 C 
ATOM     41  H7  MOL d          11.980  21.078   2.773  0.00  0.00     0.049 H 
ATOM     42  H8  MOL d          12.485  22.583   1.932  0.00  0.00     0.049 H 
BRANCH  40  43
ATOM     43  CD  MOL d          10.410  22.490   2.437  0.00  0.00     0.172 C 
ATOM     44  OE1 MOL d           9.517  21.803   2.985  0.00  0.00    -0.648 OA
ATOM     45  OE2 MOL d          10.167  23.441   1.661  0.00  0.00    -0.648 OA
ENDBRANCH  40  43
ENDBRANCH  37  40
ENDBRANCH  35  37
BRANCH  35  46
ATOM     46  N   MOL d          13.287  24.987   4.558  0.00  0.00    -0.066 N 
ATOM     47  H1  MOL d          14.053  24.339   4.643  0.00  0.00     0.275 HD
ATOM     48  H2  MOL d          13.161  25.476   5.431  0.00  0.00     0.275 HD
ATOM     49  H3  MOL d          13.488  25.651   3.827  0.00  0.00     0.275 HD
ENDBRANCH  35  46
ENDBRANCH  32  35
ENDBRANCH   1  31
TORSDOF 15
ENDMDL
MODEL 4
REMARK VINA RESULT:      -6.1      2.094      3.347
REMARK  15 active torsions:
REMARK  status: ('A' for Active; 'I' for Inactive)
REMARK    1  A    between atoms: CA_2  and  N_1 
REMARK    2  A    between atoms: C_3  and  CA_2 
REMARK    3  A    between atoms: CA_2  and  CB_5 
REMARK       I    between atoms: N_10  and  C_3 
REMARK    4  A    between atoms: CB_5  and  CG_6 
REMARK    5  A    between atoms: CG_6  and  CD_7 
REMARK    6  A    between atoms: CA_11  and  N_10 
REMARK    7  A    between atoms: C_12  and  CA_11 
REMARK    8  A    between atoms: CA_11  and  CB_14 
REMARK       I    between atoms: C_12  and  N_18 
REMARK    9  A    between atoms: CB_14  and  CG_15 
REMARK   10  A    between atoms: N_18  and  CA_19 
REMARK   11  A    between atoms: CA_19  and  C_20 
REMARK   12  A    between atoms: CA_19  and  CB_22 
REMARK   13  A    between atoms: CB_22  and  CG_23 
REMARK   14  A    between atoms: CG_23  and  CD2_25 
REMARK   15  A    between atoms: CG_23  and  CD1_24 
ROOT
ATOM      1  CA  MOL d           8.054  25.697   3.618  0.00  0.00     0.098 C 
ATOM      2  H10 MOL d           8.346  26.136   2.652  0.00  0.00     0.088 H 
ENDROOT
BRANCH   1   3
ATOM      3  C   MOL d           7.862  26.816   4.627  0.00  0.00     0.241 C 
ATOM      4  O   MOL d           8.249  27.961   4.382  0.00  0.00    -0.271 OA
ATOM      5  N   MOL d           7.218  26.478   5.741  0.00  0.00    -0.345 N 
ATOM      6  H13 MOL d           6.926  25.529   5.861  0.00  0.00     0.163 HD
BRANCH   5   7
ATOM      7  CA  MOL d           6.925  27.443   6.789  0.00  0.00     0.096 C 
ATOM      8  H14 MOL d           6.842  28.436   6.323  0.00  0.00     0.089 H 
BRANCH   7   9
ATOM      9  C   MOL d           8.008  27.518   7.850  0.00  0.00     0.196 C 
ATOM     10  OXT MOL d           8.020  26.642   8.739  0.00  0.00    -0.646 OA
ATOM     11  O   MOL d           8.835  28.452   7.781  0.00  0.00    -0.646 OA
ENDBRANCH   7   9
BRANCH   7  12
ATOM     12  CB  MOL d           5.588  27.096   7.429  0.00  0.00    -0.034 C 
ATOM     13  H15 MOL d           5.493  27.621   8.390  0.00  0.00     0.037 H 
ATOM     14  H16 MOL d           5.533  26.011   7.597  0.00  0.00     0.037 H 
BRANCH  12  15
ATOM     15  CG  MOL d           4.457  27.526   6.500  0.00  0.00    -0.059 C 
ATOM     16  H17 MOL d           4.898  27.858   5.548  0.00  0.00     0.038 H 
BRANCH  15  17
ATOM     17  CD2 MOL d           3.714  28.706   7.109  0.00  0.00    -0.073 C 
ATOM     18  H21 MOL d           2.885  28.336   7.729  0.00  0.00     0.028 H 
ATOM     19  H22 MOL d           3.316  29.342   6.304  0.00  0.00     0.028 H 
ATOM     20  H23 MOL d           4.406  29.293   7.732  0.00  0.00     0.028 H 
ENDBRANCH  15  17
BRANCH  15  21
ATOM     21  CD1 MOL d           3.556  26.365   6.206  0.00  0.00    -0.073 C 
ATOM     22  H18 MOL d           2.521  26.629   6.469  0.00  0.00     0.028 H 
ATOM     23  H19 MOL d           3.873  25.495   6.797  0.00  0.00     0.028 H 
ATOM     24  H20 MOL d           3.610  26.120   5.135  0.00  0.00     0.028 H 
ENDBRANCH  15  21
ENDBRANCH  12  15
ENDBRANCH   7  12
ENDBRANCH   5   7
ENDBRANCH   1   3
BRANCH   1  25
ATOM     25  CB  MOL d           6.770  24.895   3.422  0.00  0.00     0.043 C 
ATOM     26  H11 MOL d           5.990  25.307   4.079  0.00  0.00     0.052 H 
ATOM     27  H12 MOL d           6.962  23.846   3.693  0.00  0.00     0.052 H 
BRANCH  25  28
ATOM     28  CG  MOL d           6.280  24.949   1.989  0.00  0.00     0.175 C 
ATOM     29  OD1 MOL d           6.933  25.636   1.182  0.00  0.00    -0.648 OA
ATOM     30  OD2 MOL d           5.277  24.277   1.658  0.00  0.00    -0.648 OA
ENDBRANCH  25  28
ENDBRANCH   1  25
BRANCH   1  31
ATOM     31  N   MOL d           9.117  24.818   4.086  0.00  0.00    -0.345 N 
ATOM     32  C   MOL d           9.991  24.260   3.257  0.00  0.00     0.249 C 
ATOM     33  O   MOL d           9.944  24.404   2.030  0.00  0.00    -0.271 OA
ATOM     34  H9  MOL d           9.191  24.629   5.065  0.00  0.00     0.163 HD
BRANCH  32  35
ATOM     35  CA  MOL d          11.042  23.360   3.904  0.00  0.00     0.176 C 
ATOM     36  H4  MOL d          11.144  22.451   3.292  0.00  0.00     0.099 H 
BRANCH  35  37
ATOM     37  CB  MOL d          10.611  22.943   5.313  0.00  0.00    -0.021 C 
ATOM     38  H5  MOL d          10.618  21.844   5.366  0.00  0.00     0.037 H 
ATOM     39  H6  MOL d           9.590  23.312   5.485  0.00  0.00     0.037 H 
BRANCH  37  40
ATOM     40  CG  MOL d          11.504  23.478   6.414  0.00  0.00     0.018 C 
ATOM     41  H7  MOL d          12.491  23.708   5.986  0.00  0.00     0.049 H 
ATOM     42  H8  MOL d          11.611  22.703   7.187  0.00  0.00     0.049 H 
BRANCH  40  43
ATOM     43  CD  MOL d          10.958  24.734   7.065  0.00  0.00     0.172 C 
ATOM     44  OE1 MOL d          10.789  25.754   6.356  0.00  0.00    -0.648 OA
ATOM     45  OE2 MOL d          10.684  24.693   8.286  0.00  0.00    -0.648 OA
ENDBRANCH  40  43
ENDBRANCH  37  40
ENDBRANCH  35  37
BRANCH  35  46
ATOM     46  N   MOL d          12.360  24.050   3.943  0.00  0.00    -0.066 N 
ATOM     47  H1  MOL d          12.904  23.781   3.138  0.00  0.00     0.275 HD
ATOM     48  H2  MOL d          12.851  23.788   4.783  0.00  0.00     0.275 HD
ATOM     49  H3  MOL d          12.218  25.048   3.933  0.00  0.00     0.275 HD
ENDBRANCH  35  46
ENDBRANCH  32  35
ENDBRANCH   1  31
TORSDOF 15
ENDMDL
MODEL 5
REMARK VINA RESULT:      -6.0      1.978      5.877
REMARK  15 active torsions:
REMARK  status: ('A' for Active; 'I' for Inactive)
REMARK    1  A    between atoms: CA_2  and  N_1 
REMARK    2  A    between atoms: C_3  and  CA_2 
REMARK    3  A    between atoms: CA_2  and  CB_5 
REMARK       I    between atoms: N_10  and  C_3 
REMARK    4  A    between atoms: CB_5  and  CG_6 
REMARK    5  A    between atoms: CG_6  and  CD_7 
REMARK    6  A    between atoms: CA_11  and  N_10 
REMARK    7  A    between atoms: C_12  and  CA_11 
REMARK    8  A    between atoms: CA_11  and  CB_14 
REMARK       I    between atoms: C_12  and  N_18 
REMARK    9  A    between atoms: CB_14  and  CG_15 
REMARK   10  A    between atoms: N_18  and  CA_19 
REMARK   11  A    between atoms: CA_19  and  C_20 
REMARK   12  A    between atoms: CA_19  and  CB_22 
REMARK   13  A    between atoms: CB_22  and  CG_23 
REMARK   14  A    between atoms: CG_23  and  CD2_25 
REMARK   15  A    between atoms: CG_23  and  CD1_24 
ROOT
ATOM      1  CA  MOL d           9.017  24.211   3.857  0.00  0.00     0.098 C 
ATOM      2  H10 MOL d           9.625  25.073   3.543  0.00  0.00     0.088 H 
ENDROOT
BRANCH   1   3
ATOM      3  C   MOL d           7.563  24.486   3.519  0.00  0.00     0.241 C 
ATOM      4  O   MOL d           6.917  23.699   2.823  0.00  0.00    -0.271 OA
ATOM      5  N   MOL d           7.046  25.585   4.062  0.00  0.00    -0.345 N 
ATOM      6  H13 MOL d           7.632  26.167   4.625  0.00  0.00     0.163 HD
BRANCH   5   7
ATOM      7  CA  MOL d           5.657  25.968   3.863  0.00  0.00     0.096 C 
ATOM      8  H14 MOL d           5.060  25.047   3.778  0.00  0.00     0.089 H 
BRANCH   7   9
ATOM      9  C   MOL d           5.438  26.780   2.599  0.00  0.00     0.196 C 
ATOM     10  OXT MOL d           4.358  26.636   1.989  0.00  0.00    -0.646 OA
ATOM     11  O   MOL d           6.347  27.555   2.233  0.00  0.00    -0.646 OA
ENDBRANCH   7   9
BRANCH   7  12
ATOM     12  CB  MOL d           5.174  26.747   5.078  0.00  0.00    -0.034 C 
ATOM     13  H15 MOL d           5.258  27.825   4.880  0.00  0.00     0.037 H 
ATOM     14  H16 MOL d           5.791  26.486   5.950  0.00  0.00     0.037 H 
BRANCH  12  15
ATOM     15  CG  MOL d           3.718  26.393   5.359  0.00  0.00    -0.059 C 
ATOM     16  H17 MOL d           3.079  27.020   4.720  0.00  0.00     0.038 H 
BRANCH  15  17
ATOM     17  CD2 MOL d           3.384  26.712   6.809  0.00  0.00    -0.073 C 
ATOM     18  H21 MOL d           3.634  25.847   7.442  0.00  0.00     0.028 H 
ATOM     19  H22 MOL d           2.309  26.933   6.897  0.00  0.00     0.028 H 
ATOM     20  H23 MOL d           3.966  27.587   7.136  0.00  0.00     0.028 H 
ENDBRANCH  15  17
BRANCH  15  21
ATOM     21  CD1 MOL d           3.452  24.961   5.007  0.00  0.00    -0.073 C 
ATOM     22  H18 MOL d           4.405  24.413   4.958  0.00  0.00     0.028 H 
ATOM     23  H19 MOL d           2.950  24.911   4.031  0.00  0.00     0.028 H 
ATOM     24  H20 MOL d           2.808  24.507   5.775  0.00  0.00     0.028 H 
ENDBRANCH  15  21
ENDBRANCH  12  15
ENDBRANCH   7  12
ENDBRANCH   5   7
ENDBRANCH   1   3
BRANCH   1  25
ATOM     25  CB  MOL d           9.532  22.965   3.140  0.00  0.00     0.043 C 
ATOM     26  H11 MOL d           8.818  22.691   2.349  0.00  0.00     0.052 H 
ATOM     27  H12 MOL d           9.608  22.143   3.867  0.00  0.00     0.052 H 
BRANCH  25  28
ATOM     28  CG  MOL d          10.892  23.192   2.513  0.00  0.00     0.175 C 
ATOM     29  OD1 MOL d          11.652  22.211   2.413  0.00  0.00    -0.648 OA
ATOM     30  OD2 MOL d          11.188  24.330   2.083  0.00  0.00    -0.648 OA
ENDBRANCH  25  28
ENDBRANCH   1  25
BRANCH   1  31
ATOM     31  N   MOL d           9.141  24.036   5.298  0.00  0.00    -0.345 N 
ATOM     32  C   MOL d          10.200  24.464   5.975  0.00  0.00     0.249 C 
ATOM     33  O   MOL d          11.175  24.997   5.435  0.00  0.00    -0.271 OA
ATOM     34  H9  MOL d           8.404  23.579   5.794  0.00  0.00     0.163 HD
BRANCH  32  35
ATOM     35  CA  MOL d          10.180  24.199   7.479  0.00  0.00     0.176 C 
ATOM     36  H4  MOL d           9.885  23.152   7.643  0.00  0.00     0.099 H 
BRANCH  35  37
ATOM     37  CB  MOL d           9.160  25.101   8.178  0.00  0.00    -0.021 C 
ATOM     38  H5  MOL d           8.970  24.695   9.183  0.00  0.00     0.037 H 
ATOM     39  H6  MOL d           8.228  25.086   7.595  0.00  0.00     0.037 H 
BRANCH  37  40
ATOM     40  CG  MOL d           9.608  26.542   8.324  0.00  0.00     0.018 C 
ATOM     41  H7  MOL d          10.670  26.609   8.047  0.00  0.00     0.049 H 
ATOM     42  H8  MOL d           9.483  26.843   9.375  0.00  0.00     0.049 H 
BRANCH  40  43
ATOM     43  CD  MOL d           8.821  27.500   7.452  0.00  0.00     0.172 C 
ATOM     44  OE1 MOL d           8.672  28.682   7.838  0.00  0.00    -0.648 OA
ATOM     45  OE2 MOL d           8.364  27.069   6.369  0.00  0.00    -0.648 OA
ENDBRANCH  40  43
ENDBRANCH  37  40
ENDBRANCH  35  37
BRANCH  35  46
ATOM     46  N   MOL d          11.537  24.399   8.057  0.00  0.00    -0.066 N 
ATOM     47  H1  MOL d          11.574  25.288   8.529  0.00  0.00     0.275 HD
ATOM     48  H2  MOL d          12.222  24.382   7.317  0.00  0.00     0.275 HD
ATOM     49  H3  MOL d          11.734  23.661   8.715  0.00  0.00     0.275 HD
ENDBRANCH  35  46
ENDBRANCH  32  35
ENDBRANCH   1  31
TORSDOF 15
ENDMDL
MODEL 6
REMARK VINA RESULT:      -6.0      2.295      5.969
REMARK  15 active torsions:
REMARK  status: ('A' for Active; 'I' for Inactive)
REMARK    1  A    between atoms: CA_2  and  N_1 
REMARK    2  A    between atoms: C_3  and  CA_2 
REMARK    3  A    between atoms: CA_2  and  CB_5 
REMARK       I    between atoms: N_10  and  C_3 
REMARK    4  A    between atoms: CB_5  and  CG_6 
REMARK    5  A    between atoms: CG_6  and  CD_7 
REMARK    6  A    between atoms: CA_11  and  N_10 
REMARK    7  A    between atoms: C_12  and  CA_11 
REMARK    8  A    between atoms: CA_11  and  CB_14 
REMARK       I    between atoms: C_12  and  N_18 
REMARK    9  A    between atoms: CB_14  and  CG_15 
REMARK   10  A    between atoms: N_18  and  CA_19 
REMARK   11  A    between atoms: CA_19  and  C_20 
REMARK   12  A    between atoms: CA_19  and  CB_22 
REMARK   13  A    between atoms: CB_22  and  CG_23 
REMARK   14  A    between atoms: CG_23  and  CD2_25 
REMARK   15  A    between atoms: CG_23  and  CD1_24 
ROOT
ATOM      1  CA  MOL d           8.279  25.074   3.862  0.00  0.00     0.098 C 
ATOM      2  H10 MOL d           9.171  25.505   3.384  0.00  0.00     0.088 H 
ENDROOT
BRANCH   1   3
ATOM      3  C   MOL d           7.189  26.131   3.911  0.00  0.00     0.241 C 
ATOM      4  O   MOL d           7.444  27.312   3.667  0.00  0.00    -0.271 OA
ATOM      5  N   MOL d           5.967  25.681   4.183  0.00  0.00    -0.345 N 
ATOM      6  H13 MOL d           5.839  24.705   4.360  0.00  0.00     0.163 HD
BRANCH   5   7
ATOM      7  CA  MOL d           4.810  26.563   4.232  0.00  0.00     0.096 C 
ATOM      8  H14 MOL d           5.134  27.565   3.914  0.00  0.00     0.089 H 
BRANCH   7   9
ATOM      9  C   MOL d           4.214  26.687   5.622  0.00  0.00     0.196 C 
ATOM     10  OXT MOL d           4.336  27.778   6.217  0.00  0.00    -0.646 OA
ATOM     11  O   MOL d           3.630  25.693   6.103  0.00  0.00    -0.646 OA
ENDBRANCH   7   9
BRANCH   7  12
ATOM     12  CB  MOL d           3.758  26.061   3.253  0.00  0.00    -0.034 C 
ATOM     13  H15 MOL d           3.198  26.915   2.846  0.00  0.00     0.037 H 
ATOM     14  H16 MOL d           3.065  25.384   3.774  0.00  0.00     0.037 H 
BRANCH  12  15
ATOM     15  CG  MOL d           4.443  25.312   2.115  0.00  0.00    -0.059 C 
ATOM     16  H17 MOL d           5.462  25.052   2.435  0.00  0.00     0.038 H 
BRANCH  15  17
ATOM     17  CD2 MOL d           4.551  26.218   0.897  0.00  0.00    -0.073 C 
ATOM     18  H21 MOL d           3.561  26.324   0.430  0.00  0.00     0.028 H 
ATOM     19  H22 MOL d           5.254  25.777   0.174  0.00  0.00     0.028 H 
ATOM     20  H23 MOL d           4.919  27.208   1.208  0.00  0.00     0.028 H 
ENDBRANCH  15  17
BRANCH  15  21
ATOM     21  CD1 MOL d           3.716  24.034   1.821  0.00  0.00    -0.073 C 
ATOM     22  H18 MOL d           3.496  23.977   0.745  0.00  0.00     0.028 H 
ATOM     23  H19 MOL d           2.776  24.008   2.390  0.00  0.00     0.028 H 
ATOM     24  H20 MOL d           4.345  23.180   2.111  0.00  0.00     0.028 H 
ENDBRANCH  15  21
ENDBRANCH  12  15
ENDBRANCH   7  12
ENDBRANCH   5   7
ENDBRANCH   1   3
BRANCH   1  25
ATOM     25  CB  MOL d           7.837  23.853   3.059  0.00  0.00     0.043 C 
ATOM     26  H11 MOL d           7.091  24.169   2.314  0.00  0.00     0.052 H 
ATOM     27  H12 MOL d           7.383  23.122   3.746  0.00  0.00     0.052 H 
BRANCH  25  28
ATOM     28  CG  MOL d           8.997  23.195   2.342  0.00  0.00     0.175 C 
ATOM     29  OD1 MOL d           8.984  21.955   2.239  0.00  0.00    -0.648 OA
ATOM     30  OD2 MOL d           9.896  23.911   1.843  0.00  0.00    -0.648 OA
ENDBRANCH  25  28
ENDBRANCH   1  25
BRANCH   1  31
ATOM     31  N   MOL d           8.609  24.675   5.223  0.00  0.00    -0.345 N 
ATOM     32  C   MOL d           9.861  24.626   5.663  0.00  0.00     0.249 C 
ATOM     33  O   MOL d          10.838  24.869   4.945  0.00  0.00    -0.271 OA
ATOM     34  H9  MOL d           7.868  24.430   5.848  0.00  0.00     0.163 HD
BRANCH  32  35
ATOM     35  CA  MOL d          10.041  24.184   7.114  0.00  0.00     0.176 C 
ATOM     36  H4  MOL d           9.720  23.134   7.198  0.00  0.00     0.099 H 
BRANCH  35  37
ATOM     37  CB  MOL d           9.174  25.027   8.053  0.00  0.00    -0.021 C 
ATOM     38  H5  MOL d           9.185  24.558   9.048  0.00  0.00     0.037 H 
ATOM     39  H6  MOL d           8.147  25.034   7.662  0.00  0.00     0.037 H 
BRANCH  37  40
ATOM     40  CG  MOL d           9.640  26.462   8.199  0.00  0.00     0.018 C 
ATOM     41  H7  MOL d          10.565  26.591   7.618  0.00  0.00     0.049 H 
ATOM     42  H8  MOL d           9.843  26.658   9.262  0.00  0.00     0.049 H 
BRANCH  40  43
ATOM     43  CD  MOL d           8.618  27.470   7.709  0.00  0.00     0.172 C 
ATOM     44  OE1 MOL d           8.828  28.688   7.916  0.00  0.00    -0.648 OA
ATOM     45  OE2 MOL d           7.611  27.040   7.103  0.00  0.00    -0.648 OA
ENDBRANCH  40  43
ENDBRANCH  37  40
ENDBRANCH  35  37
BRANCH  35  46
ATOM     46  N   MOL d          11.473  24.269   7.507  0.00  0.00    -0.066 N 
ATOM     47  H1  MOL d          11.945  23.418   7.244  0.00  0.00     0.275 HD
ATOM     48  H2  MOL d          11.541  24.396   8.504  0.00  0.00     0.275 HD
ATOM     49  H3  MOL d          11.905  25.050   7.038  0.00  0.00     0.275 HD
ENDBRANCH  35  46
ENDBRANCH  32  35
ENDBRANCH   1  31
TORSDOF 15
ENDMDL
MODEL 7
REMARK VINA RESULT:      -5.8      1.838      4.721
REMARK  15 active torsions:
REMARK  status: ('A' for Active; 'I' for Inactive)
REMARK    1  A    between atoms: CA_2  and  N_1 
REMARK    2  A    between atoms: C_3  and  CA_2 
REMARK    3  A    between atoms: CA_2  and  CB_5 
REMARK       I    between atoms: N_10  and  C_3 
REMARK    4  A    between atoms: CB_5  and  CG_6 
REMARK    5  A    between atoms: CG_6  and  CD_7 
REMARK    6  A    between atoms: CA_11  and  N_10 
REMARK    7  A    between atoms: C_12  and  CA_11 
REMARK    8  A    between atoms: CA_11  and  CB_14 
REMARK       I    between atoms: C_12  and  N_18 
REMARK    9  A    between atoms: CB_14  and  CG_15 
REMARK   10  A    between atoms: N_18  and  CA_19 
REMARK   11  A    between atoms: CA_19  and  C_20 
REMARK   12  A    between atoms: CA_19  and  CB_22 
REMARK   13  A    between atoms: CB_22  and  CG_23 
REMARK   14  A    between atoms: CG_23  and  CD2_25 
REMARK   15  A    between atoms: CG_23  and  CD1_24 
ROOT
ATOM      1  CA  MOL d           8.994  23.466   3.445  0.00  0.00     0.098 C 
ATOM      2  H10 MOL d           8.031  22.966   3.624  0.00  0.00     0.088 H 
ENDROOT
BRANCH   1   3
ATOM      3  C   MOL d           9.686  23.691   4.777  0.00  0.00     0.241 C 
ATOM      4  O   MOL d          10.180  22.748   5.399  0.00  0.00    -0.271 OA
ATOM      5  N   MOL d           9.756  24.956   5.180  0.00  0.00    -0.345 N 
ATOM      6  H13 MOL d           9.340  25.668   4.614  0.00  0.00     0.163 HD
BRANCH   5   7
ATOM      7  CA  MOL d          10.419  25.340   6.418  0.00  0.00     0.096 C 
ATOM      8  H14 MOL d          10.242  26.414   6.578  0.00  0.00     0.089 H 
BRANCH   7   9
ATOM      9  C   MOL d          11.919  25.118   6.384  0.00  0.00     0.196 C 
ATOM     10  OXT MOL d          12.454  24.572   7.372  0.00  0.00    -0.646 OA
ATOM     11  O   MOL d          12.547  25.490   5.370  0.00  0.00    -0.646 OA
ENDBRANCH   7   9
BRANCH   7  12
ATOM     12  CB  MOL d           9.800  24.570   7.576  0.00  0.00    -0.034 C 
ATOM     13  H15 MOL d          10.559  23.918   8.031  0.00  0.00     0.037 H 
ATOM     14  H16 MOL d           8.966  23.957   7.205  0.00  0.00     0.037 H 
BRANCH  12  15
ATOM     15  CG  MOL d           9.284  25.555   8.619  0.00  0.00    -0.059 C 
ATOM     16  H17 MOL d           9.838  25.391   9.555  0.00  0.00     0.038 H 
BRANCH  15  17
ATOM     17  CD2 MOL d           7.811  25.287   8.894  0.00  0.00    -0.073 C 
ATOM     18  H21 MOL d           7.525  25.757   9.847  0.00  0.00     0.028 H 
ATOM     19  H22 MOL d           7.642  24.201   8.954  0.00  0.00     0.028 H 
ATOM     20  H23 MOL d           7.203  25.707   8.079  0.00  0.00     0.028 H 
ENDBRANCH  15  17
BRANCH  15  21
ATOM     21  CD1 MOL d           9.541  26.964   8.178  0.00  0.00    -0.073 C 
ATOM     22  H18 MOL d           9.557  27.626   9.056  0.00  0.00     0.028 H 
ATOM     23  H19 MOL d           8.744  27.284   7.491  0.00  0.00     0.028 H 
ATOM     24  H20 MOL d          10.512  27.015   7.663  0.00  0.00     0.028 H 
ENDBRANCH  15  21
ENDBRANCH  12  15
ENDBRANCH   7  12
ENDBRANCH   5   7
ENDBRANCH   1   3
BRANCH   1  25
ATOM     25  CB  MOL d           9.835  22.591   2.519  0.00  0.00     0.043 C 
ATOM     26  H11 MOL d           9.368  22.577   1.522  0.00  0.00     0.052 H 
ATOM     27  H12 MOL d           9.862  21.569   2.925  0.00  0.00     0.052 H 
BRANCH  25  28
ATOM     28  CG  MOL d          11.254  23.103   2.387  0.00  0.00     0.175 C 
ATOM     29  OD1 MOL d          12.178  22.328   2.696  0.00  0.00    -0.648 OA
ATOM     30  OD2 MOL d          11.452  24.255   1.939  0.00  0.00    -0.648 OA
ENDBRANCH  25  28
ENDBRANCH   1  25
BRANCH   1  31
ATOM     31  N   MOL d           8.753  24.758   2.816  0.00  0.00    -0.345 N 
ATOM     32  C   MOL d           7.682  24.993   2.067  0.00  0.00     0.249 C 
ATOM     33  O   MOL d           6.837  24.129   1.810  0.00  0.00    -0.271 OA
ATOM     34  H9  MOL d           9.417  25.493   2.953  0.00  0.00     0.163 HD
BRANCH  32  35
ATOM     35  CA  MOL d           7.578  26.398   1.475  0.00  0.00     0.176 C 
ATOM     36  H4  MOL d           8.491  26.596   0.893  0.00  0.00     0.099 H 
BRANCH  35  37
ATOM     37  CB  MOL d           7.476  27.450   2.581  0.00  0.00    -0.021 C 
ATOM     38  H5  MOL d           7.114  28.388   2.135  0.00  0.00     0.037 H 
ATOM     39  H6  MOL d           8.480  27.608   3.002  0.00  0.00     0.037 H 
BRANCH  37  40
ATOM     40  CG  MOL d           6.540  27.069   3.711  0.00  0.00     0.018 C 
ATOM     41  H7  MOL d           6.284  26.003   3.610  0.00  0.00     0.049 H 
ATOM     42  H8  MOL d           5.626  27.675   3.629  0.00  0.00     0.049 H 
BRANCH  40  43
ATOM     43  CD  MOL d           7.144  27.290   5.084  0.00  0.00     0.172 C 
ATOM     44  OE1 MOL d           8.293  27.784   5.164  0.00  0.00    -0.648 OA
ATOM     45  OE2 MOL d           6.458  26.982   6.085  0.00  0.00    -0.648 OA
ENDBRANCH  40  43
ENDBRANCH  37  40
ENDBRANCH  35  37
BRANCH  35  46
ATOM     46  N   MOL d           6.410  26.486   0.558  0.00  0.00    -0.066 N 
ATOM     47  H1  MOL d           5.836  25.665   0.665  0.00  0.00     0.275 HD
ATOM     48  H2  MOL d           6.734  26.548  -0.394  0.00  0.00     0.275 HD
ATOM     49  H3  MOL d           5.867  27.306   0.783  0.00  0.00     0.275 HD
ENDBRANCH  35  46
ENDBRANCH  32  35
ENDBRANCH   1  31
TORSDOF 15
ENDMDL
MODEL 8
REMARK VINA RESULT:      -5.6      1.985      5.183
REMARK  15 active torsions:
REMARK  status: ('A' for Active; 'I' for Inactive)
REMARK    1  A    between atoms: CA_2  and  N_1 
REMARK    2  A    between atoms: C_3  and  CA_2 
REMARK    3  A    between atoms: CA_2  and  CB_5 
REMARK       I    between atoms: N_10  and  C_3 
REMARK    4  A    between atoms: CB_5  and  CG_6 
REMARK    5  A    between atoms: CG_6  and  CD_7 
REMARK    6  A    between atoms: CA_11  and  N_10 
REMARK    7  A    between atoms: C_12  and  CA_11 
REMARK    8  A    between atoms: CA_11  and  CB_14 
REMARK       I    between atoms: C_12  and  N_18 
REMARK    9  A    between atoms: CB_14  and  CG_15 
REMARK   10  A    between atoms: N_18  and  CA_19 
REMARK   11  A    between atoms: CA_19  and  C_20 
REMARK   12  A    between atoms: CA_19  and  CB_22 
REMARK   13  A    between atoms: CB_22  and  CG_23 
REMARK   14  A    between atoms: CG_23  and  CD2_25 
REMARK   15  A    between atoms: CG_23  and  CD1_24 
ROOT
ATOM      1  CA  MOL d           9.016  23.330   3.655  0.00  0.00     0.098 C 
ATOM      2  H10 MOL d           8.032  22.850   3.766  0.00  0.00     0.088 H 
ENDROOT
BRANCH   1   3
ATOM      3  C   MOL d           9.716  23.332   5.003  0.00  0.00     0.241 C 
ATOM      4  O   MOL d          10.294  22.323   5.416  0.00  0.00    -0.271 OA
ATOM      5  N   MOL d           9.698  24.490   5.656  0.00  0.00    -0.345 N 
ATOM      6  H13 MOL d           9.217  25.266   5.250  0.00  0.00     0.163 HD
BRANCH   5   7
ATOM      7  CA  MOL d          10.354  24.664   6.943  0.00  0.00     0.096 C 
ATOM      8  H14 MOL d          10.537  23.666   7.368  0.00  0.00     0.089 H 
BRANCH   7   9
ATOM      9  C   MOL d           9.515  25.445   7.938  0.00  0.00     0.196 C 
ATOM     10  OXT MOL d           9.874  26.607   8.223  0.00  0.00    -0.646 OA
ATOM     11  O   MOL d           8.507  24.888   8.423  0.00  0.00    -0.646 OA
ENDBRANCH   7   9
BRANCH   7  12
ATOM     12  CB  MOL d          11.695  25.353   6.732  0.00  0.00    -0.034 C 
ATOM     13  H15 MOL d          11.771  26.221   7.403  0.00  0.00     0.037 H 
ATOM     14  H16 MOL d          11.774  25.690   5.688  0.00  0.00     0.037 H 
BRANCH  12  15
ATOM     15  CG  MOL d          12.821  24.372   7.037  0.00  0.00    -0.059 C 
ATOM     16  H17 MOL d          13.650  24.928   7.500  0.00  0.00     0.038 H 
BRANCH  15  17
ATOM     17  CD2 MOL d          13.334  23.760   5.742  0.00  0.00    -0.073 C 
ATOM     18  H21 MOL d          13.815  22.795   5.958  0.00  0.00     0.028 H 
ATOM     19  H22 MOL d          14.065  24.440   5.280  0.00  0.00     0.028 H 
ATOM     20  H23 MOL d          12.491  23.605   5.051  0.00  0.00     0.028 H 
ENDBRANCH  15  17
BRANCH  15  21
ATOM     21  CD1 MOL d          12.359  23.339   8.020  0.00  0.00    -0.073 C 
ATOM     22  H18 MOL d          13.230  22.804   8.425  0.00  0.00     0.028 H 
ATOM     23  H19 MOL d          11.692  22.626   7.516  0.00  0.00     0.028 H 
ATOM     24  H20 MOL d          11.817  23.831   8.842  0.00  0.00     0.028 H 
ENDBRANCH  15  21
ENDBRANCH  12  15
ENDBRANCH   7  12
ENDBRANCH   5   7
ENDBRANCH   1   3
BRANCH   1  25
ATOM     25  CB  MOL d           9.819  22.561   2.610  0.00  0.00     0.043 C 
ATOM     26  H11 MOL d           9.289  22.611   1.647  0.00  0.00     0.052 H 
ATOM     27  H12 MOL d           9.904  21.511   2.928  0.00  0.00     0.052 H 
BRANCH  25  28
ATOM     28  CG  MOL d          11.211  23.131   2.431  0.00  0.00     0.175 C 
ATOM     29  OD1 MOL d          12.177  22.375   2.646  0.00  0.00    -0.648 OA
ATOM     30  OD2 MOL d          11.345  24.312   2.036  0.00  0.00    -0.648 OA
ENDBRANCH  25  28
ENDBRANCH   1  25
BRANCH   1  31
ATOM     31  N   MOL d           8.831  24.707   3.219  0.00  0.00    -0.345 N 
ATOM     32  C   MOL d           7.831  25.070   2.425  0.00  0.00     0.249 C 
ATOM     33  O   MOL d           7.013  24.269   1.961  0.00  0.00    -0.271 OA
ATOM     34  H9  MOL d           9.479  25.403   3.528  0.00  0.00     0.163 HD
BRANCH  32  35
ATOM     35  CA  MOL d           7.779  26.552   2.055  0.00  0.00     0.176 C 
ATOM     36  H4  MOL d           8.768  26.993   2.251  0.00  0.00     0.099 H 
BRANCH  35  37
ATOM     37  CB  MOL d           6.745  27.292   2.908  0.00  0.00    -0.021 C 
ATOM     38  H5  MOL d           5.785  27.285   2.371  0.00  0.00     0.037 H 
ATOM     39  H6  MOL d           7.085  28.329   3.039  0.00  0.00     0.037 H 
BRANCH  37  40
ATOM     40  CG  MOL d           6.529  26.683   4.279  0.00  0.00     0.018 C 
ATOM     41  H7  MOL d           6.776  25.612   4.231  0.00  0.00     0.049 H 
ATOM     42  H8  MOL d           5.470  26.804   4.552  0.00  0.00     0.049 H 
BRANCH  40  43
ATOM     43  CD  MOL d           7.381  27.326   5.356  0.00  0.00     0.172 C 
ATOM     44  OE1 MOL d           8.626  27.331   5.215  0.00  0.00    -0.648 OA
ATOM     45  OE2 MOL d           6.798  27.841   6.337  0.00  0.00    -0.648 OA
ENDBRANCH  40  43
ENDBRANCH  37  40
ENDBRANCH  35  37
BRANCH  35  46
ATOM     46  N   MOL d           7.474  26.712   0.607  0.00  0.00    -0.066 N 
ATOM     47  H1  MOL d           7.760  27.629   0.303  0.00  0.00     0.275 HD
ATOM     48  H2  MOL d           6.483  26.602   0.459  0.00  0.00     0.275 HD
ATOM     49  H3  MOL d           7.972  26.013   0.079  0.00  0.00     0.275 HD
ENDBRANCH  35  46
ENDBRANCH  32  35
ENDBRANCH   1  31
TORSDOF 15
ENDMDL
MODEL 9
REMARK VINA RESULT:      -5.6      1.880      5.173
REMARK  15 active torsions:
REMARK  status: ('A' for Active; 'I' for Inactive)
REMARK    1  A    between atoms: CA_2  and  N_1 
REMARK    2  A    between atoms: C_3  and  CA_2 
REMARK    3  A    between atoms: CA_2  and  CB_5 
REMARK       I    between atoms: N_10  and  C_3 
REMARK    4  A    between atoms: CB_5  and  CG_6 
REMARK    5  A    between atoms: CG_6  and  CD_7 
REMARK    6  A    between atoms: CA_11  and  N_10 
REMARK    7  A    between atoms: C_12  and  CA_11 
REMARK    8  A    between atoms: CA_11  and  CB_14 
REMARK       I    between atoms: C_12  and  N_18 
REMARK    9  A    between atoms: CB_14  and  CG_15 
REMARK   10  A    between atoms: N_18  and  CA_19 
REMARK   11  A    between atoms: CA_19  and  C_20 
REMARK   12  A    between atoms: CA_19  and  CB_22 
REMARK   13  A    between atoms: CB_22  and  CG_23 
REMARK   14  A    between atoms: CG_23  and  CD2_25 
REMARK   15  A    between atoms: CG_23  and  CD1_24 
ROOT
ATOM      1  CA  MOL d           9.009  25.167   5.882  0.00  0.00     0.098 C 
ATOM      2  H10 MOL d           8.355  24.292   6.011  0.00  0.00     0.088 H 
ENDROOT
BRANCH   1   3
ATOM      3  C   MOL d           8.214  26.284   5.230  0.00  0.00     0.241 C 
ATOM      4  O   MOL d           8.606  27.452   5.284  0.00  0.00    -0.271 OA
ATOM      5  N   MOL d           7.122  25.903   4.575  0.00  0.00    -0.345 N 
ATOM      6  H13 MOL d           6.876  24.933   4.568  0.00  0.00     0.163 HD
BRANCH   5   7
ATOM      7  CA  MOL d           6.272  26.849   3.868  0.00  0.00     0.096 C 
ATOM      8  H14 MOL d           6.834  27.787   3.750  0.00  0.00     0.089 H 
BRANCH   7   9
ATOM      9  C   MOL d           4.988  27.167   4.611  0.00  0.00     0.196 C 
ATOM     10  OXT MOL d           3.933  27.253   3.949  0.00  0.00    -0.646 OA
ATOM     11  O   MOL d           5.049  27.327   5.849  0.00  0.00    -0.646 OA
ENDBRANCH   7   9
BRANCH   7  12
ATOM     12  CB  MOL d           5.955  26.298   2.484  0.00  0.00    -0.034 C 
ATOM     13  H15 MOL d           5.634  27.120   1.827  0.00  0.00     0.037 H 
ATOM     14  H16 MOL d           5.148  25.555   2.561  0.00  0.00     0.037 H 
BRANCH  12  15
ATOM     15  CG  MOL d           7.202  25.640   1.904  0.00  0.00    -0.059 C 
ATOM     16  H17 MOL d           8.005  25.697   2.654  0.00  0.00     0.038 H 
BRANCH  15  17
ATOM     17  CD2 MOL d           7.658  26.404   0.670  0.00  0.00    -0.073 C 
ATOM     18  H21 MOL d           8.611  25.986   0.312  0.00  0.00     0.028 H 
ATOM     19  H22 MOL d           7.796  27.465   0.927  0.00  0.00     0.028 H 
ATOM     20  H23 MOL d           6.898  26.313  -0.120  0.00  0.00     0.028 H 
ENDBRANCH  15  17
BRANCH  15  21
ATOM     21  CD1 MOL d           6.942  24.191   1.623  0.00  0.00    -0.073 C 
ATOM     22  H18 MOL d           6.111  23.839   2.251  0.00  0.00     0.028 H 
ATOM     23  H19 MOL d           7.846  23.606   1.849  0.00  0.00     0.028 H 
ATOM     24  H20 MOL d           6.679  24.064   0.562  0.00  0.00     0.028 H 
ENDBRANCH  15  21
ENDBRANCH  12  15
ENDBRANCH   7  12
ENDBRANCH   5   7
ENDBRANCH   1   3
BRANCH   1  25
ATOM     25  CB  MOL d           9.541  25.585   7.251  0.00  0.00     0.043 C 
ATOM     26  H11 MOL d           8.913  25.127   8.031  0.00  0.00     0.052 H 
ATOM     27  H12 MOL d           9.488  26.681   7.333  0.00  0.00     0.052 H 
BRANCH  25  28
ATOM     28  CG  MOL d          10.976  25.148   7.460  0.00  0.00     0.175 C 
ATOM     29  OD1 MOL d          11.197  24.292   8.337  0.00  0.00    -0.648 OA
ATOM     30  OD2 MOL d          11.875  25.621   6.728  0.00  0.00    -0.648 OA
ENDBRANCH  25  28
ENDBRANCH   1  25
BRANCH   1  31
ATOM     31  N   MOL d          10.121  24.809   5.011  0.00  0.00    -0.345 N 
ATOM     32  C   MOL d          10.008  23.889   4.061  0.00  0.00     0.249 C 
ATOM     33  O   MOL d           8.976  23.236   3.873  0.00  0.00    -0.271 OA
ATOM     34  H9  MOL d          10.998  25.273   5.132  0.00  0.00     0.163 HD
BRANCH  32  35
ATOM     35  CA  MOL d          11.267  23.626   3.236  0.00  0.00     0.176 C 
ATOM     36  H4  MOL d          11.113  22.704   2.654  0.00  0.00     0.099 H 
BRANCH  35  37
ATOM     37  CB  MOL d          12.483  23.423   4.144  0.00  0.00    -0.021 C 
ATOM     38  H5  MOL d          12.397  24.111   4.997  0.00  0.00     0.037 H 
ATOM     39  H6  MOL d          13.388  23.664   3.568  0.00  0.00     0.037 H 
BRANCH  37  40
ATOM     40  CG  MOL d          12.622  22.012   4.682  0.00  0.00     0.018 C 
ATOM     41  H7  MOL d          13.688  21.741   4.684  0.00  0.00     0.049 H 
ATOM     42  H8  MOL d          12.071  21.329   4.018  0.00  0.00     0.049 H 
BRANCH  40  43
ATOM     43  CD  MOL d          12.081  21.857   6.090  0.00  0.00     0.172 C 
ATOM     44  OE1 MOL d          12.892  21.803   7.043  0.00  0.00    -0.648 OA
ATOM     45  OE2 MOL d          10.839  21.805   6.240  0.00  0.00    -0.648 OA
ENDBRANCH  40  43
ENDBRANCH  37  40
ENDBRANCH  35  37
BRANCH  35  46
ATOM     46  N   MOL d          11.505  24.746   2.285  0.00  0.00    -0.066 N 
ATOM     47  H1  MOL d          11.765  24.374   1.386  0.00  0.00     0.275 HD
ATOM     48  H2  MOL d          12.247  25.331   2.636  0.00  0.00     0.275 HD
ATOM     49  H3  MOL d          10.662  25.291   2.191  0.00  0.00     0.275 HD
ENDBRANCH  35  46
ENDBRANCH  32  35
ENDBRANCH   1  31
TORSDOF 15
ENDMDL
MODEL 10
REMARK VINA RESULT:      -5.4      2.354      5.445
REMARK  15 active torsions:
REMARK  status: ('A' for Active; 'I' for Inactive)
REMARK    1  A    between atoms: CA_2  and  N_1 
REMARK    2  A    between atoms: C_3  and  CA_2 
REMARK    3  A    between atoms: CA_2  and  CB_5 
REMARK       I    between atoms: N_10  and  C_3 
REMARK    4  A    between atoms: CB_5  and  CG_6 
REMARK    5  A    between atoms: CG_6  and  CD_7 
REMARK    6  A    between atoms: CA_11  and  N_10 
REMARK    7  A    between atoms: C_12  and  CA_11 
REMARK    8  A    between atoms: CA_11  and  CB_14 
REMARK       I    between atoms: C_12  and  N_18 
REMARK    9  A    between atoms: CB_14  and  CG_15 
REMARK   10  A    between atoms: N_18  and  CA_19 
REMARK   11  A    between atoms: CA_19  and  C_20 
REMARK   12  A    between atoms: CA_19  and  CB_22 
REMARK   13  A    between atoms: CB_22  and  CG_23 
REMARK   14  A    between atoms: CG_23  and  CD2_25 
REMARK   15  A    between atoms: CG_23  and  CD1_24 
ROOT
ATOM      1  CA  MOL d           8.391  24.677   4.246  0.00  0.00     0.098 C 
ATOM      2  H10 MOL d           8.144  23.617   4.404  0.00  0.00     0.088 H 
ENDROOT
BRANCH   1   3
ATOM      3  C   MOL d           9.009  25.233   5.517  0.00  0.00     0.241 C 
ATOM      4  O   MOL d           9.431  26.390   5.560  0.00  0.00    -0.271 OA
ATOM      5  N   MOL d           9.011  24.408   6.560  0.00  0.00    -0.345 N 
ATOM      6  H13 MOL d           8.640  23.487   6.449  0.00  0.00     0.163 HD
BRANCH   5   7
ATOM      7  CA  MOL d           9.535  24.803   7.859  0.00  0.00     0.096 C 
ATOM      8  H14 MOL d           9.462  23.936   8.532  0.00  0.00     0.089 H 
BRANCH   7   9
ATOM      9  C   MOL d           8.762  25.946   8.491  0.00  0.00     0.196 C 
ATOM     10  OXT MOL d           7.551  25.769   8.738  0.00  0.00    -0.646 OA
ATOM     11  O   MOL d           9.375  27.007   8.735  0.00  0.00    -0.646 OA
ENDBRANCH   7   9
BRANCH   7  12
ATOM     12  CB  MOL d          11.002  25.180   7.713  0.00  0.00    -0.034 C 
ATOM     13  H15 MOL d          11.368  25.604   8.659  0.00  0.00     0.037 H 
ATOM     14  H16 MOL d          11.112  25.925   6.911  0.00  0.00     0.037 H 
BRANCH  12  15
ATOM     15  CG  MOL d          11.812  23.935   7.366  0.00  0.00    -0.059 C 
ATOM     16  H17 MOL d          11.116  23.091   7.251  0.00  0.00     0.038 H 
BRANCH  15  17
ATOM     17  CD2 MOL d          12.761  23.607   8.509  0.00  0.00    -0.073 C 
ATOM     18  H21 MOL d          12.188  23.499   9.442  0.00  0.00     0.028 H 
ATOM     19  H22 MOL d          13.495  24.418   8.620  0.00  0.00     0.028 H 
ATOM     20  H23 MOL d          13.286  22.665   8.290  0.00  0.00     0.028 H 
ENDBRANCH  15  17
BRANCH  15  21
ATOM     21  CD1 MOL d          12.523  24.123   6.060  0.00  0.00    -0.073 C 
ATOM     22  H18 MOL d          12.124  23.414   5.321  0.00  0.00     0.028 H 
ATOM     23  H19 MOL d          13.598  23.943   6.199  0.00  0.00     0.028 H 
ATOM     24  H20 MOL d          12.367  25.152   5.702  0.00  0.00     0.028 H 
ENDBRANCH  15  21
ENDBRANCH  12  15
ENDBRANCH   7  12
ENDBRANCH   5   7
ENDBRANCH   1   3
BRANCH   1  25
ATOM     25  CB  MOL d           9.353  24.784   3.065  0.00  0.00     0.043 C 
ATOM     26  H11 MOL d           9.996  25.665   3.209  0.00  0.00     0.052 H 
ATOM     27  H12 MOL d           8.768  24.903   2.141  0.00  0.00     0.052 H 
BRANCH  25  28
ATOM     28  CG  MOL d          10.229  23.555   2.934  0.00  0.00     0.175 C 
ATOM     29  OD1 MOL d           9.851  22.513   3.501  0.00  0.00    -0.648 OA
ATOM     30  OD2 MOL d          11.266  23.612   2.235  0.00  0.00    -0.648 OA
ENDBRANCH  25  28
ENDBRANCH   1  25
BRANCH   1  31
ATOM     31  N   MOL d           7.170  25.416   3.954  0.00  0.00    -0.345 N 
ATOM     32  C   MOL d           6.138  24.861   3.331  0.00  0.00     0.249 C 
ATOM     33  O   MOL d           6.149  23.698   2.912  0.00  0.00    -0.271 OA
ATOM     34  H9  MOL d           7.107  26.374   4.234  0.00  0.00     0.163 HD
BRANCH  32  35
ATOM     35  CA  MOL d           4.933  25.770   3.096  0.00  0.00     0.176 C 
ATOM     36  H4  MOL d           5.302  26.787   2.892  0.00  0.00     0.099 H 
BRANCH  35  37
ATOM     37  CB  MOL d           4.039  25.824   4.337  0.00  0.00    -0.021 C 
ATOM     38  H5  MOL d           4.333  25.007   5.012  0.00  0.00     0.037 H 
ATOM     39  H6  MOL d           2.997  25.680   4.020  0.00  0.00     0.037 H 
BRANCH  37  40
ATOM     40  CG  MOL d           4.127  27.129   5.104  0.00  0.00     0.018 C 
ATOM     41  H7  MOL d           3.120  27.397   5.457  0.00  0.00     0.049 H 
ATOM     42  H8  MOL d           4.498  27.910   4.425  0.00  0.00     0.049 H 
BRANCH  40  43
ATOM     43  CD  MOL d           5.054  27.053   6.303  0.00  0.00     0.172 C 
ATOM     44  OE1 MOL d           4.597  26.630   7.390  0.00  0.00    -0.648 OA
ATOM     45  OE2 MOL d           6.245  27.403   6.147  0.00  0.00    -0.648 OA
ENDBRANCH  40  43
ENDBRANCH  37  40
ENDBRANCH  35  37
BRANCH  35  46
ATOM     46  N   MOL d           4.158  25.307   1.913  0.00  0.00    -0.066 N 
ATOM     47  H1  MOL d           4.310  25.939   1.144  0.00  0.00     0.275 HD
ATOM     48  H2  MOL d           3.177  25.285   2.143  0.00  0.00     0.275 HD
ATOM     49  H3  MOL d           4.464  24.382   1.652  0.00  0.00     0.275 HD
ENDBRANCH  35  46
ENDBRANCH  32  35
ENDBRANCH   1  31
TORSDOF 15
ENDMDL
