MODEL 1
REMARK VINA RESULT:      -4.9      0.000      0.000
REMARK  6 active torsions:
REMARK  status: ('A' for Active; 'I' for Inactive)
REMARK    1  A    between atoms: N_1  and  CA_2 
REMARK    2  A    between atoms: CA_2  and  C_3 
REMARK    3  A    between atoms: CA_2  and  CB_5 
REMARK    4  A    between atoms: CB_5  and  CG_6 
REMARK    5  A    between atoms: CG_6  and  CD1_7 
REMARK    6  A    between atoms: CG_6  and  CD2_8 
ROOT
ATOM      1  CB  LEU d          33.706  -3.197  37.942  0.00  0.00    -0.026 C 
ATOM      2  H5  LEU d          33.437  -3.472  38.973  0.00  0.00     0.037 H 
ATOM      3  H6  LEU d          34.385  -3.955  37.526  0.00  0.00     0.037 H 
ENDROOT
BRANCH   1   4
ATOM      4  CA  LEU d          34.401  -1.816  37.937  0.00  0.00     0.182 C 
ATOM      5  H4  LEU d          33.887  -1.172  37.209  0.00  0.00     0.101 H 
BRANCH   4   6
ATOM      6  N   LEU d          35.835  -1.934  37.536  0.00  0.00    -0.065 N 
ATOM      7  H1  LEU d          36.163  -2.867  37.731  0.00  0.00     0.275 HD
ATOM      8  H2  LEU d          36.385  -1.269  38.057  0.00  0.00     0.275 HD
ATOM      9  H3  LEU d          35.924  -1.745  36.550  0.00  0.00     0.275 HD
ENDBRANCH   4   6
BRANCH   4  10
ATOM     10  C   LEU d          34.302  -1.170  39.317  0.00  0.00     0.204 C 
ATOM     11  O   LEU d          33.359  -0.410  39.547  0.00  0.00    -0.646 OA
ATOM     12  OXT LEU d          35.229  -1.576  40.090  0.00  0.00    -0.646 OA
ENDBRANCH   4  10
ENDBRANCH   1   4
BRANCH   1  13
ATOM     13  CG  LEU d          32.448  -3.116  37.090  0.00  0.00    -0.059 C 
ATOM     14  H7  LEU d          32.130  -4.150  36.889  0.00  0.00     0.038 H 
BRANCH  13  15
ATOM     15  CD1 LEU d          31.281  -2.437  37.763  0.00  0.00    -0.073 C 
ATOM     16  H8  LEU d          31.445  -2.419  38.851  0.00  0.00     0.028 H 
ATOM     17  H9  LEU d          30.357  -2.989  37.541  0.00  0.00     0.028 H 
ATOM     18  H10 LEU d          31.192  -1.407  37.388  0.00  0.00     0.028 H 
ENDBRANCH  13  15
BRANCH  13  19
ATOM     19  CD2 LEU d          32.791  -2.476  35.752  0.00  0.00    -0.073 C 
ATOM     20  H11 LEU d          32.499  -1.416  35.767  0.00  0.00     0.028 H 
ATOM     21  H12 LEU d          32.250  -2.994  34.947  0.00  0.00     0.028 H 
ATOM     22  H13 LEU d          33.874  -2.555  35.575  0.00  0.00     0.028 H 
ENDBRANCH  13  19
ENDBRANCH   1  13
TORSDOF 6
ENDMDL
MODEL 2
REMARK VINA RESULT:      -4.9      1.129      1.281
REMARK  6 active torsions:
REMARK  status: ('A' for Active; 'I' for Inactive)
REMARK    1  A    between atoms: N_1  and  CA_2 
REMARK    2  A    between atoms: CA_2  and  C_3 
REMARK    3  A    between atoms: CA_2  and  CB_5 
REMARK    4  A    between atoms: CB_5  and  CG_6 
REMARK    5  A    between atoms: CG_6  and  CD1_7 
REMARK    6  A    between atoms: CG_6  and  CD2_8 
ROOT
ATOM      1  CB  LEU d          33.568  -3.342  37.962  0.00  0.00    -0.026 C 
ATOM      2  H5  LEU d          33.370  -3.972  38.842  0.00  0.00     0.037 H 
ATOM      3  H6  LEU d          34.088  -3.936  37.196  0.00  0.00     0.037 H 
ENDROOT
BRANCH   1   4
ATOM      4  CA  LEU d          34.448  -2.139  38.373  0.00  0.00     0.182 C 
ATOM      5  H4  LEU d          33.858  -1.219  38.247  0.00  0.00     0.101 H 
BRANCH   4   6
ATOM      6  N   LEU d          35.666  -2.042  37.514  0.00  0.00    -0.065 N 
ATOM      7  H1  LEU d          36.464  -1.814  38.087  0.00  0.00     0.275 HD
ATOM      8  H2  LEU d          35.533  -1.321  36.823  0.00  0.00     0.275 HD
ATOM      9  H3  LEU d          35.824  -2.924  37.053  0.00  0.00     0.275 HD
ENDBRANCH   4   6
BRANCH   4  10
ATOM     10  C   LEU d          34.859  -2.261  39.839  0.00  0.00     0.204 C 
ATOM     11  O   LEU d          35.793  -1.569  40.249  0.00  0.00    -0.646 OA
ATOM     12  OXT LEU d          34.098  -3.063  40.471  0.00  0.00    -0.646 OA
ENDBRANCH   4  10
ENDBRANCH   1   4
BRANCH   1  13
ATOM     13  CG  LEU d          32.254  -2.821  37.400  0.00  0.00    -0.059 C 
ATOM     14  H7  LEU d          31.541  -3.658  37.422  0.00  0.00     0.038 H 
BRANCH  13  15
ATOM     15  CD1 LEU d          31.629  -1.708  38.204  0.00  0.00    -0.073 C 
ATOM     16  H8  LEU d          32.415  -1.163  38.747  0.00  0.00     0.028 H 
ATOM     17  H9  LEU d          30.914  -2.133  38.923  0.00  0.00     0.028 H 
ATOM     18  H10 LEU d          31.104  -1.018  37.528  0.00  0.00     0.028 H 
ENDBRANCH  13  15
BRANCH  13  19
ATOM     19  CD2 LEU d          32.456  -2.431  35.941  0.00  0.00    -0.073 C 
ATOM     20  H11 LEU d          33.524  -2.493  35.689  0.00  0.00     0.028 H 
ATOM     21  H12 LEU d          32.101  -1.402  35.784  0.00  0.00     0.028 H 
ATOM     22  H13 LEU d          31.887  -3.116  35.297  0.00  0.00     0.028 H 
ENDBRANCH  13  19
ENDBRANCH   1  13
TORSDOF 6
ENDMDL
MODEL 3
REMARK VINA RESULT:      -4.9      1.585      2.173
REMARK  6 active torsions:
REMARK  status: ('A' for Active; 'I' for Inactive)
REMARK    1  A    between atoms: N_1  and  CA_2 
REMARK    2  A    between atoms: CA_2  and  C_3 
REMARK    3  A    between atoms: CA_2  and  CB_5 
REMARK    4  A    between atoms: CB_5  and  CG_6 
REMARK    5  A    between atoms: CG_6  and  CD1_7 
REMARK    6  A    between atoms: CG_6  and  CD2_8 
ROOT
ATOM      1  CB  LEU d          33.505  -2.963  38.155  0.00  0.00    -0.026 C 
ATOM      2  H5  LEU d          32.906  -3.536  38.879  0.00  0.00     0.037 H 
ATOM      3  H6  LEU d          34.153  -3.650  37.591  0.00  0.00     0.037 H 
ENDROOT
BRANCH   1   4
ATOM      4  CA  LEU d          34.374  -1.927  38.904  0.00  0.00     0.182 C 
ATOM      5  H4  LEU d          34.060  -1.909  39.958  0.00  0.00     0.101 H 
BRANCH   4   6
ATOM      6  N   LEU d          34.196  -0.558  38.333  0.00  0.00    -0.065 N 
ATOM      7  H1  LEU d          33.921  -0.631  37.366  0.00  0.00     0.275 HD
ATOM      8  H2  LEU d          35.065  -0.052  38.399  0.00  0.00     0.275 HD
ATOM      9  H3  LEU d          33.483  -0.069  38.850  0.00  0.00     0.275 HD
ENDBRANCH   4   6
BRANCH   4  10
ATOM     10  C   LEU d          35.846  -2.326  38.838  0.00  0.00     0.204 C 
ATOM     11  O   LEU d          36.334  -2.606  37.741  0.00  0.00    -0.646 OA
ATOM     12  OXT LEU d          36.401  -2.255  39.983  0.00  0.00    -0.646 OA
ENDBRANCH   4  10
ENDBRANCH   1   4
BRANCH   1  13
ATOM     13  CG  LEU d          32.581  -2.228  37.196  0.00  0.00    -0.059 C 
ATOM     14  H7  LEU d          32.809  -1.156  37.288  0.00  0.00     0.038 H 
BRANCH  13  15
ATOM     15  CD1 LEU d          32.780  -2.582  35.743  0.00  0.00    -0.073 C 
ATOM     16  H8  LEU d          33.310  -3.543  35.669  0.00  0.00     0.028 H 
ATOM     17  H9  LEU d          33.374  -1.797  35.253  0.00  0.00     0.028 H 
ATOM     18  H10 LEU d          31.801  -2.663  35.249  0.00  0.00     0.028 H 
ENDBRANCH  13  15
BRANCH  13  19
ATOM     19  CD2 LEU d          31.138  -2.427  37.642  0.00  0.00    -0.073 C 
ATOM     20  H11 LEU d          31.056  -3.365  38.210  0.00  0.00     0.028 H 
ATOM     21  H12 LEU d          30.484  -2.474  36.760  0.00  0.00     0.028 H 
ATOM     22  H13 LEU d          30.833  -1.585  38.280  0.00  0.00     0.028 H 
ENDBRANCH  13  19
ENDBRANCH   1  13
TORSDOF 6
ENDMDL
MODEL 4
REMARK VINA RESULT:      -4.2      1.602      1.825
REMARK  6 active torsions:
REMARK  status: ('A' for Active; 'I' for Inactive)
REMARK    1  A    between atoms: N_1  and  CA_2 
REMARK    2  A    between atoms: CA_2  and  C_3 
REMARK    3  A    between atoms: CA_2  and  CB_5 
REMARK    4  A    between atoms: CB_5  and  CG_6 
REMARK    5  A    between atoms: CG_6  and  CD1_7 
REMARK    6  A    between atoms: CG_6  and  CD2_8 
ROOT
ATOM      1  CB  LEU d          33.566  -2.844  37.873  0.00  0.00    -0.026 C 
ATOM      2  H5  LEU d          33.788  -3.894  38.114  0.00  0.00     0.037 H 
ATOM      3  H6  LEU d          34.029  -2.583  36.910  0.00  0.00     0.037 H 
ENDROOT
BRANCH   1   4
ATOM      4  CA  LEU d          34.126  -1.926  38.984  0.00  0.00     0.182 C 
ATOM      5  H4  LEU d          33.378  -1.859  39.787  0.00  0.00     0.101 H 
BRANCH   4   6
ATOM      6  N   LEU d          34.391  -0.550  38.467  0.00  0.00    -0.065 N 
ATOM      7  H1  LEU d          35.269  -0.217  38.833  0.00  0.00     0.275 HD
ATOM      8  H2  LEU d          33.649   0.066  38.759  0.00  0.00     0.275 HD
ATOM      9  H3  LEU d          34.433  -0.572  37.460  0.00  0.00     0.275 HD
ENDBRANCH   4   6
BRANCH   4  10
ATOM     10  C   LEU d          35.411  -2.518  39.559  0.00  0.00     0.204 C 
ATOM     11  O   LEU d          36.406  -2.584  38.835  0.00  0.00    -0.646 OA
ATOM     12  OXT LEU d          35.275  -2.822  40.788  0.00  0.00    -0.646 OA
ENDBRANCH   4  10
ENDBRANCH   1   4
BRANCH   1  13
ATOM     13  CG  LEU d          32.060  -2.647  37.786  0.00  0.00    -0.059 C 
ATOM     14  H7  LEU d          31.593  -3.568  38.166  0.00  0.00     0.038 H 
BRANCH  13  15
ATOM     15  CD1 LEU d          31.528  -1.519  38.634  0.00  0.00    -0.073 C 
ATOM     16  H8  LEU d          31.863  -1.653  39.673  0.00  0.00     0.028 H 
ATOM     17  H9  LEU d          30.429  -1.521  38.600  0.00  0.00     0.028 H 
ATOM     18  H10 LEU d          31.904  -0.561  38.248  0.00  0.00     0.028 H 
ENDBRANCH  13  15
BRANCH  13  19
ATOM     19  CD2 LEU d          31.659  -2.503  36.323  0.00  0.00    -0.073 C 
ATOM     20  H11 LEU d          32.027  -3.370  35.755  0.00  0.00     0.028 H 
ATOM     21  H12 LEU d          32.099  -1.582  35.911  0.00  0.00     0.028 H 
ATOM     22  H13 LEU d          30.564  -2.452  36.246  0.00  0.00     0.028 H 
ENDBRANCH  13  19
ENDBRANCH   1  13
TORSDOF 6
ENDMDL
MODEL 5
REMARK VINA RESULT:      -3.8      2.572      3.790
REMARK  6 active torsions:
REMARK  status: ('A' for Active; 'I' for Inactive)
REMARK    1  A    between atoms: N_1  and  CA_2 
REMARK    2  A    between atoms: CA_2  and  C_3 
REMARK    3  A    between atoms: CA_2  and  CB_5 
REMARK    4  A    between atoms: CB_5  and  CG_6 
REMARK    5  A    between atoms: CG_6  and  CD1_7 
REMARK    6  A    between atoms: CG_6  and  CD2_8 
ROOT
ATOM      1  CB  LEU d          34.044  -1.029  39.048  0.00  0.00    -0.026 C 
ATOM      2  H5  LEU d          34.250  -0.366  39.902  0.00  0.00     0.037 H 
ATOM      3  H6  LEU d          34.124  -0.458  38.112  0.00  0.00     0.037 H 
ENDROOT
BRANCH   1   4
ATOM      4  CA  LEU d          32.619  -1.614  39.179  0.00  0.00     0.182 C 
ATOM      5  H4  LEU d          31.945  -0.815  39.520  0.00  0.00     0.101 H 
BRANCH   4   6
ATOM      6  N   LEU d          32.579  -2.725  40.177  0.00  0.00    -0.065 N 
ATOM      7  H1  LEU d          33.207  -3.460  39.887  0.00  0.00     0.275 HD
ATOM      8  H2  LEU d          31.641  -3.088  40.238  0.00  0.00     0.275 HD
ATOM      9  H3  LEU d          32.864  -2.376  41.078  0.00  0.00     0.275 HD
ENDBRANCH   4   6
BRANCH   4  10
ATOM     10  C   LEU d          32.129  -2.121  37.824  0.00  0.00     0.204 C 
ATOM     11  O   LEU d          32.348  -1.434  36.823  0.00  0.00    -0.646 OA
ATOM     12  OXT LEU d          31.585  -3.268  37.923  0.00  0.00    -0.646 OA
ENDBRANCH   4  10
ENDBRANCH   1   4
BRANCH   1  13
ATOM     13  CG  LEU d          35.046  -2.174  39.036  0.00  0.00    -0.059 C 
ATOM     14  H7  LEU d          34.475  -3.102  39.191  0.00  0.00     0.038 H 
BRANCH  13  15
ATOM     15  CD1 LEU d          35.785  -2.342  37.733  0.00  0.00    -0.073 C 
ATOM     16  H8  LEU d          36.375  -1.436  37.526  0.00  0.00     0.028 H 
ATOM     17  H9  LEU d          35.063  -2.502  36.919  0.00  0.00     0.028 H 
ATOM     18  H10 LEU d          36.457  -3.209  37.802  0.00  0.00     0.028 H 
ENDBRANCH  13  15
BRANCH  13  19
ATOM     19  CD2 LEU d          35.994  -2.019  40.218  0.00  0.00    -0.073 C 
ATOM     20  H11 LEU d          35.412  -1.945  41.148  0.00  0.00     0.028 H 
ATOM     21  H12 LEU d          36.596  -1.107  40.089  0.00  0.00     0.028 H 
ATOM     22  H13 LEU d          36.660  -2.893  40.271  0.00  0.00     0.028 H 
ENDBRANCH  13  19
ENDBRANCH   1  13
TORSDOF 6
ENDMDL
MODEL 6
REMARK VINA RESULT:      -3.3      2.609      3.697
REMARK  6 active torsions:
REMARK  status: ('A' for Active; 'I' for Inactive)
REMARK    1  A    between atoms: N_1  and  CA_2 
REMARK    2  A    between atoms: CA_2  and  C_3 
REMARK    3  A    between atoms: CA_2  and  CB_5 
REMARK    4  A    between atoms: CB_5  and  CG_6 
REMARK    5  A    between atoms: CG_6  and  CD1_7 
REMARK    6  A    between atoms: CG_6  and  CD2_8 
ROOT
ATOM      1  CB  LEU d          34.112  -2.753  38.868  0.00  0.00    -0.026 C 
ATOM      2  H5  LEU d          33.972  -2.977  37.800  0.00  0.00     0.037 H 
ATOM      3  H6  LEU d          34.081  -3.688  39.446  0.00  0.00     0.037 H 
ENDROOT
BRANCH   1   4
ATOM      4  CA  LEU d          32.990  -1.806  39.352  0.00  0.00     0.182 C 
ATOM      5  H4  LEU d          33.449  -0.859  39.671  0.00  0.00     0.101 H 
BRANCH   4   6
ATOM      6  N   LEU d          32.253  -2.389  40.513  0.00  0.00    -0.065 N 
ATOM      7  H1  LEU d          31.271  -2.172  40.431  0.00  0.00     0.275 HD
ATOM      8  H2  LEU d          32.613  -2.000  41.369  0.00  0.00     0.275 HD
ATOM      9  H3  LEU d          32.376  -3.389  40.520  0.00  0.00     0.275 HD
ENDBRANCH   4   6
BRANCH   4  10
ATOM     10  C   LEU d          32.014  -1.518  38.213  0.00  0.00     0.204 C 
ATOM     11  O   LEU d          31.204  -2.391  37.895  0.00  0.00    -0.646 OA
ATOM     12  OXT LEU d          32.151  -0.331  37.771  0.00  0.00    -0.646 OA
ENDBRANCH   4  10
ENDBRANCH   1   4
BRANCH   1  13
ATOM     13  CG  LEU d          35.455  -2.069  39.075  0.00  0.00    -0.059 C 
ATOM     14  H7  LEU d          35.264  -0.985  39.093  0.00  0.00     0.038 H 
BRANCH  13  15
ATOM     15  CD1 LEU d          36.131  -2.403  40.381  0.00  0.00    -0.073 C 
ATOM     16  H8  LEU d          35.835  -1.669  41.146  0.00  0.00     0.028 H 
ATOM     17  H9  LEU d          37.222  -2.373  40.248  0.00  0.00     0.028 H 
ATOM     18  H10 LEU d          35.829  -3.410  40.703  0.00  0.00     0.028 H 
ENDBRANCH  13  15
BRANCH  13  19
ATOM     19  CD2 LEU d          36.350  -2.354  37.876  0.00  0.00    -0.073 C 
ATOM     20  H11 LEU d          36.497  -3.440  37.778  0.00  0.00     0.028 H 
ATOM     21  H12 LEU d          37.324  -1.864  38.020  0.00  0.00     0.028 H 
ATOM     22  H13 LEU d          35.876  -1.965  36.964  0.00  0.00     0.028 H 
ENDBRANCH  13  19
ENDBRANCH   1  13
TORSDOF 6
ENDMDL
MODEL 7
REMARK VINA RESULT:      -2.6      1.602      1.844
REMARK  6 active torsions:
REMARK  status: ('A' for Active; 'I' for Inactive)
REMARK    1  A    between atoms: N_1  and  CA_2 
REMARK    2  A    between atoms: CA_2  and  C_3 
REMARK    3  A    between atoms: CA_2  and  CB_5 
REMARK    4  A    between atoms: CB_5  and  CG_6 
REMARK    5  A    between atoms: CG_6  and  CD1_7 
REMARK    6  A    between atoms: CG_6  and  CD2_8 
ROOT
ATOM      1  CB  LEU d          33.793  -2.119  37.478  0.00  0.00    -0.026 C 
ATOM      2  H5  LEU d          33.918  -3.210  37.542  0.00  0.00     0.037 H 
ATOM      3  H6  LEU d          34.539  -1.704  36.785  0.00  0.00     0.037 H 
ENDROOT
BRANCH   1   4
ATOM      4  CA  LEU d          33.979  -1.492  38.879  0.00  0.00     0.182 C 
ATOM      5  H4  LEU d          32.985  -1.327  39.320  0.00  0.00     0.101 H 
BRANCH   4   6
ATOM      6  N   LEU d          34.683  -0.178  38.794  0.00  0.00    -0.065 N 
ATOM      7  H1  LEU d          35.677  -0.333  38.717  0.00  0.00     0.275 HD
ATOM      8  H2  LEU d          34.491   0.360  39.624  0.00  0.00     0.275 HD
ATOM      9  H3  LEU d          34.358   0.326  37.984  0.00  0.00     0.275 HD
ENDBRANCH   4   6
BRANCH   4  10
ATOM     10  C   LEU d          34.764  -2.441  39.782  0.00  0.00     0.204 C 
ATOM     11  O   LEU d          34.146  -3.116  40.608  0.00  0.00    -0.646 OA
ATOM     12  OXT LEU d          36.005  -2.436  39.497  0.00  0.00    -0.646 OA
ENDBRANCH   4  10
ENDBRANCH   1   4
BRANCH   1  13
ATOM     13  CG  LEU d          32.394  -1.793  36.976  0.00  0.00    -0.059 C 
ATOM     14  H7  LEU d          32.405  -1.929  35.884  0.00  0.00     0.038 H 
BRANCH  13  15
ATOM     15  CD1 LEU d          31.313  -2.701  37.507  0.00  0.00    -0.073 C 
ATOM     16  H8  LEU d          31.155  -2.496  38.577  0.00  0.00     0.028 H 
ATOM     17  H9  LEU d          31.618  -3.750  37.377  0.00  0.00     0.028 H 
ATOM     18  H10 LEU d          30.379  -2.520  36.957  0.00  0.00     0.028 H 
ENDBRANCH  13  15
BRANCH  13  19
ATOM     19  CD2 LEU d          32.095  -0.325  37.249  0.00  0.00    -0.073 C 
ATOM     20  H11 LEU d          31.456  -0.240  38.141  0.00  0.00     0.028 H 
ATOM     21  H12 LEU d          31.576   0.111  36.383  0.00  0.00     0.028 H 
ATOM     22  H13 LEU d          33.038   0.215  37.422  0.00  0.00     0.028 H 
ENDBRANCH  13  19
ENDBRANCH   1  13
TORSDOF 6
ENDMDL
MODEL 8
REMARK VINA RESULT:      -2.3      1.811      2.144
REMARK  6 active torsions:
REMARK  status: ('A' for Active; 'I' for Inactive)
REMARK    1  A    between atoms: N_1  and  CA_2 
REMARK    2  A    between atoms: CA_2  and  C_3 
REMARK    3  A    between atoms: CA_2  and  CB_5 
REMARK    4  A    between atoms: CB_5  and  CG_6 
REMARK    5  A    between atoms: CG_6  and  CD1_7 
REMARK    6  A    between atoms: CG_6  and  CD2_8 
ROOT
ATOM      1  CB  LEU d          33.329  -2.886  36.846  0.00  0.00    -0.026 C 
ATOM      2  H5  LEU d          33.011  -3.733  36.220  0.00  0.00     0.037 H 
ATOM      3  H6  LEU d          34.152  -2.351  36.349  0.00  0.00     0.037 H 
ENDROOT
BRANCH   1   4
ATOM      4  CA  LEU d          33.802  -3.405  38.222  0.00  0.00     0.182 C 
ATOM      5  H4  LEU d          34.216  -4.416  38.088  0.00  0.00     0.101 H 
BRANCH   4   6
ATOM      6  N   LEU d          32.668  -3.483  39.191  0.00  0.00    -0.065 N 
ATOM      7  H1  LEU d          32.525  -4.444  39.464  0.00  0.00     0.275 HD
ATOM      8  H2  LEU d          31.831  -3.128  38.757  0.00  0.00     0.275 HD
ATOM      9  H3  LEU d          32.885  -2.931  40.006  0.00  0.00     0.275 HD
ENDBRANCH   4   6
BRANCH   4  10
ATOM     10  C   LEU d          34.897  -2.499  38.781  0.00  0.00     0.204 C 
ATOM     11  O   LEU d          34.675  -1.879  39.823  0.00  0.00    -0.646 OA
ATOM     12  OXT LEU d          35.959  -2.563  38.081  0.00  0.00    -0.646 OA
ENDBRANCH   4  10
ENDBRANCH   1   4
BRANCH   1  13
ATOM     13  CG  LEU d          32.157  -1.938  37.055  0.00  0.00    -0.059 C 
ATOM     14  H7  LEU d          31.999  -1.408  36.104  0.00  0.00     0.038 H 
BRANCH  13  15
ATOM     15  CD1 LEU d          30.853  -2.620  37.383  0.00  0.00    -0.073 C 
ATOM     16  H8  LEU d          30.905  -3.042  38.398  0.00  0.00     0.028 H 
ATOM     17  H9  LEU d          30.669  -3.428  36.660  0.00  0.00     0.028 H 
ATOM     18  H10 LEU d          30.034  -1.889  37.332  0.00  0.00     0.028 H 
ENDBRANCH  13  15
BRANCH  13  19
ATOM     19  CD2 LEU d          32.539  -0.897  38.100  0.00  0.00    -0.073 C 
ATOM     20  H11 LEU d          32.089  -1.165  39.067  0.00  0.00     0.028 H 
ATOM     21  H12 LEU d          32.169   0.091  37.785  0.00  0.00     0.028 H 
ATOM     22  H13 LEU d          33.633  -0.863  38.201  0.00  0.00     0.028 H 
ENDBRANCH  13  19
ENDBRANCH   1  13
TORSDOF 6
ENDMDL
