MODEL 1
REMARK VINA RESULT:      -7.3      0.000      0.000
REMARK  3 active torsions:
REMARK  status: ('A' for Active; 'I' for Inactive)
REMARK    1  A    between atoms: C2_2  and  C10_10 
REMARK    2  A    between atoms: C12_12  and  N15_15 
REMARK    3  A    between atoms: N13_13  and  C16_16 
ROOT
ATOM      1  C1  MOL d          -0.347  11.322  -6.327  0.00  0.00    -0.036 A 
ATOM      2  C2  MOL d          -0.807  10.118  -5.731  0.00  0.00    -0.003 A 
ATOM      3  C3  MOL d          -1.773  10.141  -4.674  0.00  0.00    -0.068 A 
ATOM      4  C4  MOL d          -2.319  11.326  -4.167  0.00  0.00    -0.047 A 
ATOM      5  C5  MOL d          -1.888  12.509  -4.733  0.00  0.00     0.105 A 
ATOM      6  C6  MOL d          -0.904  12.506  -5.838  0.00  0.00     0.105 A 
ATOM      7  O7  MOL d          -0.682  13.822  -6.175  0.00  0.00    -0.323 OA
ATOM      8  C8  MOL d          -1.589  14.659  -5.407  0.00  0.00     0.115 C 
ATOM      9  O9  MOL d          -2.215  13.813  -4.434  0.00  0.00    -0.323 OA
ATOM     10  H1  MOL d           0.395  11.322  -7.118  0.00  0.00     0.089 H 
ATOM     11  H2  MOL d          -2.095   9.198  -4.247  0.00  0.00     0.085 H 
ATOM     12  H3  MOL d          -3.049  11.316  -3.365  0.00  0.00     0.087 H 
ATOM     13  H4  MOL d          -2.349  15.100  -6.069  0.00  0.00     0.118 H 
ATOM     14  H5  MOL d          -1.029  15.462  -4.905  0.00  0.00     0.118 H 
ENDROOT
BRANCH   2  15
ATOM     15  C10 MOL d          -0.293   8.792  -6.190  0.00  0.00     0.091 A 
ATOM     16  C11 MOL d          -0.080   7.673  -5.363  0.00  0.00    -0.009 A 
ATOM     17  C12 MOL d           0.393   6.664  -6.201  0.00  0.00     0.119 A 
ATOM     18  H6  MOL d          -0.249   7.609  -4.289  0.00  0.00     0.093 H 
ATOM     19  N13 MOL d           0.465   7.093  -7.460  0.00  0.00    -0.258 N 
ATOM     20  N14 MOL d           0.047   8.446  -7.481  0.00  0.00    -0.171 NA
BRANCH  17  21
ATOM     21  N15 MOL d           0.733   5.389  -5.810  0.00  0.00    -0.384 N 
ATOM     22  H7  MOL d           1.648   4.996  -6.073  0.00  0.00     0.157 HD
ATOM     23  H8  MOL d           0.072   4.827  -5.254  0.00  0.00     0.157 HD
ENDBRANCH  17  21
BRANCH  19  24
ATOM     24  C16 MOL d           0.899   6.480  -8.753  0.00  0.00     0.004 C 
ATOM     25  H9  MOL d           1.964   6.211  -8.691  0.00  0.00     0.059 H 
ATOM     26  H10 MOL d           0.751   7.202  -9.569  0.00  0.00     0.059 H 
ATOM     27  H11 MOL d           0.304   5.576  -8.949  0.00  0.00     0.059 H 
ENDBRANCH  19  24
ENDBRANCH   2  15
TORSDOF 3
ENDMDL
MODEL 2
REMARK VINA RESULT:      -6.8      1.250      2.256
REMARK  3 active torsions:
REMARK  status: ('A' for Active; 'I' for Inactive)
REMARK    1  A    between atoms: C2_2  and  C10_10 
REMARK    2  A    between atoms: C12_12  and  N15_15 
REMARK    3  A    between atoms: N13_13  and  C16_16 
ROOT
ATOM      1  C1  MOL d          -1.429  10.833  -5.297  0.00  0.00    -0.036 A 
ATOM      2  C2  MOL d          -0.367  10.267  -6.051  0.00  0.00    -0.003 A 
ATOM      3  C3  MOL d           0.522  11.095  -6.808  0.00  0.00    -0.068 A 
ATOM      4  C4  MOL d           0.409  12.490  -6.856  0.00  0.00    -0.047 A 
ATOM      5  C5  MOL d          -0.615  13.062  -6.128  0.00  0.00     0.105 A 
ATOM      6  C6  MOL d          -1.533  12.226  -5.325  0.00  0.00     0.105 A 
ATOM      7  O7  MOL d          -2.432  13.082  -4.730  0.00  0.00    -0.323 OA
ATOM      8  C8  MOL d          -2.037  14.450  -5.025  0.00  0.00     0.115 C 
ATOM      9  O9  MOL d          -0.991  14.381  -6.003  0.00  0.00    -0.323 OA
ATOM     10  H1  MOL d          -2.120  10.218  -4.731  0.00  0.00     0.089 H 
ATOM     11  H2  MOL d           1.319  10.621  -7.371  0.00  0.00     0.085 H 
ATOM     12  H3  MOL d           1.096  13.094  -7.437  0.00  0.00     0.087 H 
ATOM     13  H4  MOL d          -1.669  14.942  -4.112  0.00  0.00     0.118 H 
ATOM     14  H5  MOL d          -2.893  15.012  -5.425  0.00  0.00     0.118 H 
ENDROOT
BRANCH   2  15
ATOM     15  C10 MOL d          -0.150   8.788  -6.076  0.00  0.00     0.091 A 
ATOM     16  C11 MOL d          -0.288   7.967  -7.211  0.00  0.00    -0.009 A 
ATOM     17  C12 MOL d           0.012   6.674  -6.784  0.00  0.00     0.119 A 
ATOM     18  H6  MOL d          -0.572   8.277  -8.216  0.00  0.00     0.093 H 
ATOM     19  N13 MOL d           0.329   6.667  -5.491  0.00  0.00    -0.258 N 
ATOM     20  N14 MOL d           0.222   7.995  -5.012  0.00  0.00    -0.171 NA
BRANCH  17  21
ATOM     21  N15 MOL d           0.004   5.546  -7.573  0.00  0.00    -0.384 N 
ATOM     22  H7  MOL d           0.444   4.678  -7.235  0.00  0.00     0.157 HD
ATOM     23  H8  MOL d          -0.442   5.569  -8.501  0.00  0.00     0.157 HD
ENDBRANCH  17  21
BRANCH  19  24
ATOM     24  C16 MOL d           0.714   5.605  -4.512  0.00  0.00     0.004 C 
ATOM     25  H9  MOL d           0.142   5.738  -3.582  0.00  0.00     0.059 H 
ATOM     26  H10 MOL d           1.790   5.679  -4.293  0.00  0.00     0.059 H 
ATOM     27  H11 MOL d           0.494   4.615  -4.939  0.00  0.00     0.059 H 
ENDBRANCH  19  24
ENDBRANCH   2  15
TORSDOF 3
ENDMDL
MODEL 3
REMARK VINA RESULT:      -6.2      3.898      6.184
REMARK  3 active torsions:
REMARK  status: ('A' for Active; 'I' for Inactive)
REMARK    1  A    between atoms: C2_2  and  C10_10 
REMARK    2  A    between atoms: C12_12  and  N15_15 
REMARK    3  A    between atoms: N13_13  and  C16_16 
ROOT
ATOM      1  C1  MOL d          -0.180   8.668  -6.710  0.00  0.00    -0.036 A 
ATOM      2  C2  MOL d          -0.166  10.086  -6.784  0.00  0.00    -0.003 A 
ATOM      3  C3  MOL d           0.593  10.764  -7.792  0.00  0.00    -0.068 A 
ATOM      4  C4  MOL d           1.357  10.090  -8.753  0.00  0.00    -0.047 A 
ATOM      5  C5  MOL d           1.356   8.710  -8.700  0.00  0.00     0.105 A 
ATOM      6  C6  MOL d           0.565   7.991  -7.679  0.00  0.00     0.105 A 
ATOM      7  O7  MOL d           0.775   6.646  -7.888  0.00  0.00    -0.323 OA
ATOM      8  C8  MOL d           1.574   6.482  -9.092  0.00  0.00     0.115 C 
ATOM      9  O9  MOL d           2.021   7.788  -9.478  0.00  0.00    -0.323 OA
ATOM     10  H1  MOL d          -0.737   8.140  -5.944  0.00  0.00     0.089 H 
ATOM     11  H2  MOL d           0.576  11.848  -7.812  0.00  0.00     0.085 H 
ATOM     12  H3  MOL d           1.923  10.627  -9.505  0.00  0.00     0.087 H 
ATOM     13  H4  MOL d           0.963   6.039  -9.893  0.00  0.00     0.118 H 
ATOM     14  H5  MOL d           2.437   5.832  -8.886  0.00  0.00     0.118 H 
ENDROOT
BRANCH   2  15
ATOM     15  C10 MOL d          -0.943  10.911  -5.810  0.00  0.00     0.091 A 
ATOM     16  C11 MOL d          -1.702  10.403  -4.739  0.00  0.00    -0.009 A 
ATOM     17  C12 MOL d          -2.245  11.515  -4.096  0.00  0.00     0.119 A 
ATOM     18  H6  MOL d          -1.837   9.357  -4.468  0.00  0.00     0.093 H 
ATOM     19  N13 MOL d          -1.858  12.640  -4.694  0.00  0.00    -0.258 N 
ATOM     20  N14 MOL d          -1.040  12.286  -5.794  0.00  0.00    -0.171 NA
BRANCH  17  21
ATOM     21  N15 MOL d          -3.059  11.483  -2.987  0.00  0.00    -0.384 N 
ATOM     22  H7  MOL d          -4.073  11.633  -3.088  0.00  0.00     0.157 HD
ATOM     23  H8  MOL d          -2.655  11.307  -2.055  0.00  0.00     0.157 HD
ENDBRANCH  17  21
BRANCH  19  24
ATOM     24  C16 MOL d          -2.126  14.093  -4.467  0.00  0.00     0.004 C 
ATOM     25  H9  MOL d          -3.174  14.230  -4.163  0.00  0.00     0.059 H 
ATOM     26  H10 MOL d          -1.938  14.651  -5.396  0.00  0.00     0.059 H 
ATOM     27  H11 MOL d          -1.463  14.469  -3.673  0.00  0.00     0.059 H 
ENDBRANCH  19  24
ENDBRANCH   2  15
TORSDOF 3
ENDMDL
MODEL 4
REMARK VINA RESULT:      -5.9      1.592      2.478
REMARK  3 active torsions:
REMARK  status: ('A' for Active; 'I' for Inactive)
REMARK    1  A    between atoms: C2_2  and  C10_10 
REMARK    2  A    between atoms: C12_12  and  N15_15 
REMARK    3  A    between atoms: N13_13  and  C16_16 
ROOT
ATOM      1  C1  MOL d          -1.101  10.615  -6.135  0.00  0.00    -0.036 A 
ATOM      2  C2  MOL d          -0.104  10.368  -7.115  0.00  0.00    -0.003 A 
ATOM      3  C3  MOL d           0.717  11.430  -7.615  0.00  0.00    -0.068 A 
ATOM      4  C4  MOL d           0.597  12.755  -7.180  0.00  0.00    -0.047 A 
ATOM      5  C5  MOL d          -0.365  13.018  -6.225  0.00  0.00     0.105 A 
ATOM      6  C6  MOL d          -1.212  11.933  -5.683  0.00  0.00     0.105 A 
ATOM      7  O7  MOL d          -2.060  12.511  -4.766  0.00  0.00    -0.323 OA
ATOM      8  C8  MOL d          -1.695  13.910  -4.612  0.00  0.00     0.115 C 
ATOM      9  O9  MOL d          -0.734  14.206  -5.633  0.00  0.00    -0.323 OA
ATOM     10  H1  MOL d          -1.741   9.825  -5.757  0.00  0.00     0.089 H 
ATOM     11  H2  MOL d           1.466  11.197  -8.363  0.00  0.00     0.085 H 
ATOM     12  H3  MOL d           1.231  13.540  -7.575  0.00  0.00     0.087 H 
ATOM     13  H4  MOL d          -1.254  14.078  -3.618  0.00  0.00     0.118 H 
ATOM     14  H5  MOL d          -2.583  14.548  -4.732  0.00  0.00     0.118 H 
ENDROOT
BRANCH   2  15
ATOM     15  C10 MOL d           0.114   8.992  -7.654  0.00  0.00     0.091 A 
ATOM     16  C11 MOL d           1.229   8.584  -8.411  0.00  0.00    -0.009 A 
ATOM     17  C12 MOL d           1.023   7.233  -8.694  0.00  0.00     0.119 A 
ATOM     18  H6  MOL d           2.078   9.196  -8.713  0.00  0.00     0.093 H 
ATOM     19  N13 MOL d          -0.118   6.808  -8.155  0.00  0.00    -0.258 N 
ATOM     20  N14 MOL d          -0.723   7.907  -7.499  0.00  0.00    -0.171 NA
BRANCH  17  21
ATOM     21  N15 MOL d           1.873   6.426  -9.416  0.00  0.00    -0.384 N 
ATOM     22  H7  MOL d           2.674   6.838  -9.915  0.00  0.00     0.157 HD
ATOM     23  H8  MOL d           1.708   5.410  -9.457  0.00  0.00     0.157 HD
ENDBRANCH  17  21
BRANCH  19  24
ATOM     24  C16 MOL d          -0.846   5.502  -8.138  0.00  0.00     0.004 C 
ATOM     25  H9  MOL d          -1.176   5.280  -7.112  0.00  0.00     0.059 H 
ATOM     26  H10 MOL d          -0.175   4.704  -8.488  0.00  0.00     0.059 H 
ATOM     27  H11 MOL d          -1.722   5.562  -8.800  0.00  0.00     0.059 H 
ENDBRANCH  19  24
ENDBRANCH   2  15
TORSDOF 3
ENDMDL
MODEL 5
REMARK VINA RESULT:      -4.4      3.844      6.502
REMARK  3 active torsions:
REMARK  status: ('A' for Active; 'I' for Inactive)
REMARK    1  A    between atoms: C2_2  and  C10_10 
REMARK    2  A    between atoms: C12_12  and  N15_15 
REMARK    3  A    between atoms: N13_13  and  C16_16 
ROOT
ATOM      1  C1  MOL d          -0.518   9.335  -5.725  0.00  0.00    -0.036 A 
ATOM      2  C2  MOL d          -0.507  10.470  -6.577  0.00  0.00    -0.003 A 
ATOM      3  C3  MOL d           0.054  10.398  -7.894  0.00  0.00    -0.068 A 
ATOM      4  C4  MOL d           0.615   9.228  -8.419  0.00  0.00    -0.047 A 
ATOM      5  C5  MOL d           0.612   8.111  -7.608  0.00  0.00     0.105 A 
ATOM      6  C6  MOL d           0.022   8.160  -6.252  0.00  0.00     0.105 A 
ATOM      7  O7  MOL d           0.177   6.905  -5.707  0.00  0.00    -0.323 OA
ATOM      8  C8  MOL d           0.731   6.022  -6.720  0.00  0.00     0.115 C 
ATOM      9  O9  MOL d           1.109   6.845  -7.831  0.00  0.00    -0.323 OA
ATOM     10  H1  MOL d          -0.925   9.377  -4.720  0.00  0.00     0.089 H 
ATOM     11  H2  MOL d           0.043  11.289  -8.511  0.00  0.00     0.085 H 
ATOM     12  H3  MOL d           1.032   9.200  -9.419  0.00  0.00     0.087 H 
ATOM     13  H4  MOL d          -0.024   5.286  -7.034  0.00  0.00     0.118 H 
ATOM     14  H5  MOL d           1.612   5.497  -6.322  0.00  0.00     0.118 H 
ENDROOT
BRANCH   2  15
ATOM     15  C10 MOL d          -1.077  11.775  -6.123  0.00  0.00     0.091 A 
ATOM     16  C11 MOL d          -1.731  12.707  -6.950  0.00  0.00    -0.009 A 
ATOM     17  C12 MOL d          -2.100  13.763  -6.116  0.00  0.00     0.119 A 
ATOM     18  H6  MOL d          -1.911  12.623  -8.021  0.00  0.00     0.093 H 
ATOM     19  N13 MOL d          -1.728  13.523  -4.860  0.00  0.00    -0.258 N 
ATOM     20  N14 MOL d          -1.064  12.272  -4.837  0.00  0.00    -0.171 NA
BRANCH  17  21
ATOM     21  N15 MOL d          -2.769  14.900  -6.508  0.00  0.00    -0.384 N 
ATOM     22  H7  MOL d          -2.961  15.646  -5.825  0.00  0.00     0.157 HD
ATOM     23  H8  MOL d          -3.078  15.004  -7.486  0.00  0.00     0.157 HD
ENDBRANCH  17  21
BRANCH  19  24
ATOM     24  C16 MOL d          -1.837  14.275  -3.573  0.00  0.00     0.004 C 
ATOM     25  H9  MOL d          -2.761  13.982  -3.054  0.00  0.00     0.059 H 
ATOM     26  H10 MOL d          -1.860  15.355  -3.780  0.00  0.00     0.059 H 
ATOM     27  H11 MOL d          -0.970  14.042  -2.937  0.00  0.00     0.059 H 
ENDBRANCH  19  24
ENDBRANCH   2  15
TORSDOF 3
ENDMDL
