MODEL 1
REMARK VINA RESULT:      -6.7      0.000      0.000
REMARK  5 active torsions:
REMARK  status: ('A' for Active; 'I' for Inactive)
REMARK    1  A    between atoms: C1_1  and  C14_14 
REMARK    2  A    between atoms: C2_2  and  C15_15 
REMARK    3  A    between atoms: C3_3  and  C13_13 
REMARK    4  A    between atoms: C8_8  and  C10_10 
REMARK       I    between atoms: C10_10  and  N12_12 
REMARK    5  A    between atoms: C15_15  and  N16_16 
ROOT
ATOM      1  C1  MOL d          48.137  50.406  34.788  0.00  0.00     0.078 A 
ATOM      2  C2  MOL d          47.167  51.078  34.087  0.00  0.00     0.021 A 
ATOM      3  C3  MOL d          47.512  51.637  32.827  0.00  0.00     0.060 A 
ATOM      4  N4  MOL d          48.712  51.604  32.261  0.00  0.00    -0.067 NA
ATOM      5  N5  MOL d          49.385  50.384  34.253  0.00  0.00    -0.150 N 
ATOM      6  C6  MOL d          49.700  50.955  32.988  0.00  0.00     0.734 A 
ATOM      7  N7  MOL d          51.011  50.760  32.666  0.00  0.00    -0.055 NA
ATOM      8  C8  MOL d          51.505  50.054  33.771  0.00  0.00     0.160 A 
ATOM      9  C9  MOL d          50.553  49.811  34.739  0.00  0.00     0.037 A 
ATOM     10  H1  MOL d          50.688  49.284  35.682  0.00  0.00     0.117 H 
ENDROOT
BRANCH   8  11
ATOM     11  C10 MOL d          52.915  49.605  33.841  0.00  0.00     0.274 C 
ATOM     12  O11 MOL d          53.378  48.887  32.931  0.00  0.00    -0.266 OA
ATOM     13  N12 MOL d          53.539  49.704  35.096  0.00  0.00    -0.343 N 
ATOM     14  C24 MOL d          53.478  50.898  35.967  0.00  0.00     0.018 C 
ATOM     15  C28 MOL d          54.712  48.856  35.394  0.00  0.00     0.018 C 
ATOM     16  C25 MOL d          54.798  51.748  35.796  0.00  0.00     0.034 C 
ATOM     17  H13 MOL d          53.380  50.580  37.016  0.00  0.00     0.067 H 
ATOM     18  H14 MOL d          52.609  51.512  35.687  0.00  0.00     0.067 H 
ATOM     19  O26 MOL d          56.005  50.959  35.894  0.00  0.00    -0.388 OA
ATOM     20  H15 MOL d          54.822  52.518  36.580  0.00  0.00     0.076 H 
ATOM     21  H16 MOL d          54.777  52.230  34.808  0.00  0.00     0.076 H 
ATOM     22  C27 MOL d          55.999  49.699  35.176  0.00  0.00     0.034 C 
ATOM     23  H17 MOL d          56.863  49.105  35.511  0.00  0.00     0.076 H 
ATOM     24  H18 MOL d          56.095  49.912  34.101  0.00  0.00     0.076 H 
ATOM     25  H19 MOL d          54.720  47.984  34.723  0.00  0.00     0.067 H 
ATOM     26  H20 MOL d          54.665  48.513  36.438  0.00  0.00     0.067 H 
ENDBRANCH   8  11
BRANCH   1  27
ATOM     27  C14 MOL d          47.957  49.817  36.126  0.00  0.00     0.014 A 
ATOM     28  C17 MOL d          47.437  48.540  36.243  0.00  0.00    -0.068 A 
ATOM     29  C18 MOL d          47.299  47.983  37.509  0.00  0.00    -0.061 A 
ATOM     30  H10 MOL d          47.142  47.983  35.361  0.00  0.00     0.085 H 
ATOM     31  C19 MOL d          47.696  48.724  38.625  0.00  0.00     0.035 A 
ATOM     32  H11 MOL d          46.889  46.987  37.630  0.00  0.00     0.086 H 
ATOM     33  C20 MOL d          48.207  49.983  38.541  0.00  0.00    -0.040 A 
ATOM     34 CL23 MOL d          47.592  48.034  40.173  0.00  0.00    -0.084 Cl
ATOM     35  C21 MOL d          48.341  50.510  37.286  0.00  0.00     0.048 A 
ATOM     36  H12 MOL d          48.494  50.540  39.425  0.00  0.00     0.088 H 
ATOM     37 CL22 MOL d          48.998  52.069  37.171  0.00  0.00    -0.083 Cl
ENDBRANCH   1  27
BRANCH   3  38
ATOM     38  C13 MOL d          46.495  52.373  32.027  0.00  0.00    -0.034 C 
ATOM     39  H2  MOL d          46.142  51.733  31.205  0.00  0.00     0.035 H 
ATOM     40  H3  MOL d          46.946  53.288  31.613  0.00  0.00     0.035 H 
ATOM     41  H4  MOL d          45.646  52.643  32.673  0.00  0.00     0.035 H 
ENDBRANCH   3  38
BRANCH   2  42
ATOM     42  C15 MOL d          45.747  51.141  34.579  0.00  0.00     0.107 C 
ATOM     43  H5  MOL d          45.280  52.081  34.252  0.00  0.00     0.083 H 
ATOM     44  H6  MOL d          45.730  51.084  35.677  0.00  0.00     0.083 H 
BRANCH  42  45
ATOM     45  N16 MOL d          45.035  50.025  34.022  0.00  0.00    -0.075 N 
ATOM     46  H7  MOL d          44.633  49.478  34.767  0.00  0.00     0.274 HD
ATOM     47  H8  MOL d          45.671  49.452  33.490  0.00  0.00     0.274 HD
ATOM     48  H9  MOL d          44.301  50.363  33.419  0.00  0.00     0.274 HD
ENDBRANCH  42  45
ENDBRANCH   2  42
TORSDOF 5
ENDMDL
MODEL 2
REMARK VINA RESULT:      -5.6      2.840      4.346
REMARK  5 active torsions:
REMARK  status: ('A' for Active; 'I' for Inactive)
REMARK    1  A    between atoms: C1_1  and  C14_14 
REMARK    2  A    between atoms: C2_2  and  C15_15 
REMARK    3  A    between atoms: C3_3  and  C13_13 
REMARK    4  A    between atoms: C8_8  and  C10_10 
REMARK       I    between atoms: C10_10  and  N12_12 
REMARK    5  A    between atoms: C15_15  and  N16_16 
ROOT
ATOM      1  C1  MOL d          48.212  50.096  34.838  0.00  0.00     0.078 A 
ATOM      2  C2  MOL d          47.939  50.408  36.147  0.00  0.00     0.021 A 
ATOM      3  C3  MOL d          49.031  50.627  37.028  0.00  0.00     0.060 A 
ATOM      4  N4  MOL d          50.317  50.527  36.717  0.00  0.00    -0.067 NA
ATOM      5  N5  MOL d          49.518  49.952  34.494  0.00  0.00    -0.150 N 
ATOM      6  C6  MOL d          50.591  50.178  35.402  0.00  0.00     0.734 A 
ATOM      7  N7  MOL d          51.800  50.006  34.795  0.00  0.00    -0.055 NA
ATOM      8  C8  MOL d          51.448  49.661  33.483  0.00  0.00     0.160 A 
ATOM      9  C9  MOL d          50.086  49.623  33.271  0.00  0.00     0.037 A 
ATOM     10  H1  MOL d          49.567  49.385  32.344  0.00  0.00     0.117 H 
ENDROOT
BRANCH   8  11
ATOM     11  C10 MOL d          52.473  49.398  32.446  0.00  0.00     0.274 C 
ATOM     12  O11 MOL d          52.540  50.141  31.446  0.00  0.00    -0.266 OA
ATOM     13  N12 MOL d          53.064  48.124  32.463  0.00  0.00    -0.343 N 
ATOM     14  C24 MOL d          53.577  47.457  33.680  0.00  0.00     0.018 C 
ATOM     15  C28 MOL d          53.688  47.595  31.232  0.00  0.00     0.018 C 
ATOM     16  C25 MOL d          55.143  47.640  33.764  0.00  0.00     0.034 C 
ATOM     17  H13 MOL d          53.336  46.384  33.638  0.00  0.00     0.067 H 
ATOM     18  H14 MOL d          53.107  47.904  34.568  0.00  0.00     0.067 H 
ATOM     19  O26 MOL d          55.827  47.315  32.534  0.00  0.00    -0.388 OA
ATOM     20  H15 MOL d          55.529  46.986  34.560  0.00  0.00     0.076 H 
ATOM     21  H16 MOL d          55.359  48.689  34.016  0.00  0.00     0.076 H 
ATOM     22  C27 MOL d          55.223  47.827  31.318  0.00  0.00     0.034 C 
ATOM     23  H17 MOL d          55.697  47.329  30.460  0.00  0.00     0.076 H 
ATOM     24  H18 MOL d          55.413  48.909  31.266  0.00  0.00     0.076 H 
ATOM     25  H19 MOL d          53.282  48.120  30.355  0.00  0.00     0.067 H 
ATOM     26  H20 MOL d          53.480  46.519  31.144  0.00  0.00     0.067 H 
ENDBRANCH   8  11
BRANCH   1  27
ATOM     27  C14 MOL d          47.198  49.789  33.814  0.00  0.00     0.014 A 
ATOM     28  C17 MOL d          46.572  48.555  33.825  0.00  0.00    -0.068 A 
ATOM     29  C18 MOL d          45.595  48.288  32.872  0.00  0.00    -0.061 A 
ATOM     30  H10 MOL d          46.839  47.809  34.565  0.00  0.00     0.085 H 
ATOM     31  C19 MOL d          45.269  49.273  31.938  0.00  0.00     0.035 A 
ATOM     32  H11 MOL d          45.094  47.327  32.855  0.00  0.00     0.086 H 
ATOM     33  C20 MOL d          45.870  50.494  31.900  0.00  0.00    -0.040 A 
ATOM     34 CL23 MOL d          44.035  48.984  30.808  0.00  0.00    -0.084 Cl
ATOM     35  C21 MOL d          46.823  50.740  32.850  0.00  0.00     0.048 A 
ATOM     36  H12 MOL d          45.607  51.235  31.155  0.00  0.00     0.088 H 
ATOM     37 CL22 MOL d          47.561  52.267  32.825  0.00  0.00    -0.083 Cl
ENDBRANCH   1  27
BRANCH   3  38
ATOM     38  C13 MOL d          48.788  50.969  38.456  0.00  0.00    -0.034 C 
ATOM     39  H2  MOL d          47.715  50.877  38.678  0.00  0.00     0.035 H 
ATOM     40  H3  MOL d          49.115  52.003  38.646  0.00  0.00     0.035 H 
ATOM     41  H4  MOL d          49.356  50.281  39.100  0.00  0.00     0.035 H 
ENDBRANCH   3  38
BRANCH   2  42
ATOM     42  C15 MOL d          46.528  50.615  36.625  0.00  0.00     0.107 C 
ATOM     43  H5  MOL d          46.495  50.568  37.723  0.00  0.00     0.083 H 
ATOM     44  H6  MOL d          45.874  49.836  36.206  0.00  0.00     0.083 H 
BRANCH  42  45
ATOM     45  N16 MOL d          46.094  51.908  36.179  0.00  0.00    -0.075 N 
ATOM     46  H7  MOL d          45.632  52.387  36.936  0.00  0.00     0.274 HD
ATOM     47  H8  MOL d          45.453  51.801  35.409  0.00  0.00     0.274 HD
ATOM     48  H9  MOL d          46.892  52.446  35.880  0.00  0.00     0.274 HD
ENDBRANCH  42  45
ENDBRANCH   2  42
TORSDOF 5
ENDMDL
MODEL 3
REMARK VINA RESULT:      -4.7      1.874      2.192
REMARK  5 active torsions:
REMARK  status: ('A' for Active; 'I' for Inactive)
REMARK    1  A    between atoms: C1_1  and  C14_14 
REMARK    2  A    between atoms: C2_2  and  C15_15 
REMARK    3  A    between atoms: C3_3  and  C13_13 
REMARK    4  A    between atoms: C8_8  and  C10_10 
REMARK       I    between atoms: C10_10  and  N12_12 
REMARK    5  A    between atoms: C15_15  and  N16_16 
ROOT
ATOM      1  C1  MOL d          48.075  50.020  33.768  0.00  0.00     0.078 A 
ATOM      2  C2  MOL d          46.989  50.456  33.050  0.00  0.00     0.021 A 
ATOM      3  C3  MOL d          47.076  50.461  31.633  0.00  0.00     0.060 A 
ATOM      4  N4  MOL d          48.136  50.111  30.915  0.00  0.00    -0.067 NA
ATOM      5  N5  MOL d          49.189  49.688  33.065  0.00  0.00    -0.150 N 
ATOM      6  C6  MOL d          49.246  49.704  31.643  0.00  0.00     0.734 A 
ATOM      7  N7  MOL d          50.463  49.288  31.190  0.00  0.00    -0.055 NA
ATOM      8  C8  MOL d          51.164  49.016  32.372  0.00  0.00     0.160 A 
ATOM      9  C9  MOL d          50.426  49.245  33.514  0.00  0.00     0.037 A 
ATOM     10  H1  MOL d          50.744  49.107  34.546  0.00  0.00     0.117 H 
ENDROOT
BRANCH   8  11
ATOM     11  C10 MOL d          52.556  48.508  32.352  0.00  0.00     0.274 C 
ATOM     12  O11 MOL d          53.036  48.071  31.287  0.00  0.00    -0.266 OA
ATOM     13  N12 MOL d          53.126  48.207  33.600  0.00  0.00    -0.343 N 
ATOM     14  C24 MOL d          53.064  49.092  34.784  0.00  0.00     0.018 C 
ATOM     15  C28 MOL d          54.258  47.260  33.673  0.00  0.00     0.018 C 
ATOM     16  C25 MOL d          54.416  49.898  34.915  0.00  0.00     0.034 C 
ATOM     17  H13 MOL d          52.910  48.484  35.687  0.00  0.00     0.067 H 
ATOM     18  H14 MOL d          52.227  49.797  34.669  0.00  0.00     0.067 H 
ATOM     19  O26 MOL d          55.592  49.065  34.815  0.00  0.00    -0.388 OA
ATOM     20  H15 MOL d          54.428  50.402  35.893  0.00  0.00     0.076 H 
ATOM     21  H16 MOL d          54.453  50.651  34.114  0.00  0.00     0.076 H 
ATOM     22  C27 MOL d          55.580  48.074  33.756  0.00  0.00     0.034 C 
ATOM     23  H17 MOL d          56.409  47.373  33.929  0.00  0.00     0.076 H 
ATOM     24  H18 MOL d          55.729  48.591  32.797  0.00  0.00     0.076 H 
ATOM     25  H19 MOL d          54.269  46.625  32.774  0.00  0.00     0.067 H 
ATOM     26  H20 MOL d          54.156  46.627  34.566  0.00  0.00     0.067 H 
ENDBRANCH   8  11
BRANCH   1  27
ATOM     27  C14 MOL d          48.164  50.003  35.238  0.00  0.00     0.014 A 
ATOM     28  C17 MOL d          48.743  51.073  35.897  0.00  0.00    -0.068 A 
ATOM     29  C18 MOL d          48.794  51.059  37.287  0.00  0.00    -0.061 A 
ATOM     30  H10 MOL d          49.150  51.908  35.340  0.00  0.00     0.085 H 
ATOM     31  C19 MOL d          48.253  49.971  37.976  0.00  0.00     0.035 A 
ATOM     32  H11 MOL d          49.248  51.882  37.828  0.00  0.00     0.086 H 
ATOM     33  C20 MOL d          47.681  48.904  37.355  0.00  0.00    -0.040 A 
ATOM     34 CL23 MOL d          48.253  49.969  39.674  0.00  0.00    -0.084 Cl
ATOM     35  C21 MOL d          47.635  48.940  35.989  0.00  0.00     0.048 A 
ATOM     36  H12 MOL d          47.282  48.067  37.915  0.00  0.00     0.088 H 
ATOM     37 CL22 MOL d          46.903  47.625  35.207  0.00  0.00    -0.083 Cl
ENDBRANCH   1  27
BRANCH   3  38
ATOM     38  C13 MOL d          45.925  50.921  30.809  0.00  0.00    -0.034 C 
ATOM     39  H2  MOL d          45.248  51.526  31.431  0.00  0.00     0.035 H 
ATOM     40  H3  MOL d          45.382  50.048  30.417  0.00  0.00     0.035 H 
ATOM     41  H4  MOL d          46.295  51.531  29.971  0.00  0.00     0.035 H 
ENDBRANCH   3  38
BRANCH   2  42
ATOM     42  C15 MOL d          45.698  50.824  33.729  0.00  0.00     0.107 C 
ATOM     43  H5  MOL d          45.470  50.093  34.518  0.00  0.00     0.083 H 
ATOM     44  H6  MOL d          44.880  50.837  32.994  0.00  0.00     0.083 H 
BRANCH  42  45
ATOM     45  N16 MOL d          45.856  52.129  34.306  0.00  0.00    -0.075 N 
ATOM     46  H7  MOL d          46.754  52.505  34.045  0.00  0.00     0.274 HD
ATOM     47  H8  MOL d          45.800  52.062  35.310  0.00  0.00     0.274 HD
ATOM     48  H9  MOL d          45.127  52.736  33.968  0.00  0.00     0.274 HD
ENDBRANCH  42  45
ENDBRANCH   2  42
TORSDOF 5
ENDMDL
MODEL 4
REMARK VINA RESULT:      -4.3      2.758      4.326
REMARK  5 active torsions:
REMARK  status: ('A' for Active; 'I' for Inactive)
REMARK    1  A    between atoms: C1_1  and  C14_14 
REMARK    2  A    between atoms: C2_2  and  C15_15 
REMARK    3  A    between atoms: C3_3  and  C13_13 
REMARK    4  A    between atoms: C8_8  and  C10_10 
REMARK       I    between atoms: C10_10  and  N12_12 
REMARK    5  A    between atoms: C15_15  and  N16_16 
ROOT
ATOM      1  C1  MOL d          47.760  50.011  35.355  0.00  0.00     0.078 A 
ATOM      2  C2  MOL d          47.453  49.861  36.685  0.00  0.00     0.021 A 
ATOM      3  C3  MOL d          48.509  49.937  37.632  0.00  0.00     0.060 A 
ATOM      4  N4  MOL d          49.795  50.109  37.355  0.00  0.00    -0.067 NA
ATOM      5  N5  MOL d          49.071  50.154  35.034  0.00  0.00    -0.150 N 
ATOM      6  C6  MOL d          50.108  50.226  36.007  0.00  0.00     0.734 A 
ATOM      7  N7  MOL d          51.326  50.411  35.424  0.00  0.00    -0.055 NA
ATOM      8  C8  MOL d          51.019  50.449  34.057  0.00  0.00     0.160 A 
ATOM      9  C9  MOL d          49.674  50.300  33.792  0.00  0.00     0.037 A 
ATOM     10  H1  MOL d          49.188  50.296  32.817  0.00  0.00     0.117 H 
ENDROOT
BRANCH   8  11
ATOM     11  C10 MOL d          52.065  50.659  33.029  0.00  0.00     0.274 C 
ATOM     12  O11 MOL d          51.764  51.207  31.949  0.00  0.00    -0.266 OA
ATOM     13  N12 MOL d          53.242  49.906  33.176  0.00  0.00    -0.343 N 
ATOM     14  C24 MOL d          53.985  49.755  34.446  0.00  0.00     0.018 C 
ATOM     15  C28 MOL d          54.099  49.659  31.997  0.00  0.00     0.018 C 
ATOM     16  C25 MOL d          55.209  50.753  34.467  0.00  0.00     0.034 C 
ATOM     17  H13 MOL d          54.353  48.723  34.534  0.00  0.00     0.067 H 
ATOM     18  H14 MOL d          53.316  49.979  35.290  0.00  0.00     0.067 H 
ATOM     19  O26 MOL d          56.007  50.708  33.263  0.00  0.00    -0.388 OA
ATOM     20  H15 MOL d          55.853  50.498  35.321  0.00  0.00     0.076 H 
ATOM     21  H16 MOL d          54.823  51.776  34.590  0.00  0.00     0.076 H 
ATOM     22  C27 MOL d          55.270  50.680  32.014  0.00  0.00     0.034 C 
ATOM     23  H17 MOL d          55.969  50.420  31.205  0.00  0.00     0.076 H 
ATOM     24  H18 MOL d          54.857  51.684  31.833  0.00  0.00     0.076 H 
ATOM     25  H19 MOL d          53.509  49.785  31.077  0.00  0.00     0.067 H 
ATOM     26  H20 MOL d          54.499  48.635  32.038  0.00  0.00     0.067 H 
ENDBRANCH   8  11
BRANCH   1  27
ATOM     27  C14 MOL d          46.793  49.907  34.249  0.00  0.00     0.014 A 
ATOM     28  C17 MOL d          46.288  51.060  33.675  0.00  0.00    -0.068 A 
ATOM     29  C18 MOL d          45.399  50.949  32.612  0.00  0.00    -0.061 A 
ATOM     30  H10 MOL d          46.581  52.034  34.048  0.00  0.00     0.085 H 
ATOM     31  C19 MOL d          45.048  49.679  32.149  0.00  0.00     0.035 A 
ATOM     32  H11 MOL d          44.984  51.837  32.148  0.00  0.00     0.086 H 
ATOM     33  C20 MOL d          45.525  48.527  32.696  0.00  0.00    -0.040 A 
ATOM     34 CL23 MOL d          44.012  49.528  30.812  0.00  0.00    -0.084 Cl
ATOM     35  C21 MOL d          46.403  48.658  33.736  0.00  0.00     0.048 A 
ATOM     36  H12 MOL d          45.224  47.554  32.325  0.00  0.00     0.088 H 
ATOM     37 CL22 MOL d          47.021  47.229  34.408  0.00  0.00    -0.083 Cl
ENDBRANCH   1  27
BRANCH   3  38
ATOM     38  C13 MOL d          48.228  49.783  39.085  0.00  0.00    -0.034 C 
ATOM     39  H2  MOL d          47.299  49.209  39.221  0.00  0.00     0.035 H 
ATOM     40  H3  MOL d          48.117  50.776  39.545  0.00  0.00     0.035 H 
ATOM     41  H4  MOL d          49.062  49.248  39.565  0.00  0.00     0.035 H 
ENDBRANCH   3  38
BRANCH   2  42
ATOM     42  C15 MOL d          46.029  49.721  37.149  0.00  0.00     0.107 C 
ATOM     43  H5  MOL d          46.009  49.362  38.188  0.00  0.00     0.083 H 
ATOM     44  H6  MOL d          45.495  49.008  36.505  0.00  0.00     0.083 H 
BRANCH  42  45
ATOM     45  N16 MOL d          45.407  51.013  37.068  0.00  0.00    -0.075 N 
ATOM     46  H7  MOL d          44.637  50.975  36.419  0.00  0.00     0.274 HD
ATOM     47  H8  MOL d          46.082  51.691  36.750  0.00  0.00     0.274 HD
ATOM     48  H9  MOL d          45.066  51.279  37.979  0.00  0.00     0.274 HD
ENDBRANCH  42  45
ENDBRANCH   2  42
TORSDOF 5
ENDMDL
