MODEL 1
REMARK VINA RESULT:      -9.9      0.000      0.000
REMARK  14 active torsions:
REMARK  status: ('A' for Active; 'I' for Inactive)
REMARK    1  A    between atoms: C1_1  and  C3_3 
REMARK       I    between atoms: N2_9  and  C1_1 
REMARK    2  A    between atoms: C3_3  and  C7_7 
REMARK    3  A    between atoms: C3_3  and  N4_17 
REMARK    4  A    between atoms: C6_6  and  N6_31 
REMARK    5  A    between atoms: C7_7  and  C9_14 
REMARK    6  A    between atoms: C7_7  and  C10_15 
REMARK    7  A    between atoms: C7_7  and  C11_16 
REMARK    8  A    between atoms: S1_18  and  N2_9 
REMARK    9  A    between atoms: C22_26  and  O2_12 
REMARK   10  A    between atoms: O5_21  and  S1_18 
REMARK   11  A    between atoms: C25_22  and  O5_21 
REMARK   12  A    between atoms: C24_23  and  C25_22 
REMARK   13  A    between atoms: C23_24  and  O3_25 
REMARK   14  A    between atoms: C21_27  and  N9_29 
ROOT
ATOM      1  C25 MOL d          13.691  11.304   2.757  0.00  0.00     0.066 C 
ATOM      2  H18 MOL d          13.419  12.355   2.580  0.00  0.00     0.080 H 
ATOM      3  H19 MOL d          13.456  11.035   3.797  0.00  0.00     0.080 H 
ENDROOT
BRANCH   1   4
ATOM      4  O5  MOL d          15.088  11.104   2.498  0.00  0.00    -0.257 OA
BRANCH   4   5
ATOM      5  S1  MOL d          16.167  11.706   3.564  0.00  0.00     0.364 S 
ATOM      6  O1A MOL d          17.432  11.391   2.979  0.00  0.00    -0.175 OA
ATOM      7  O2A MOL d          15.903  13.122   3.621  0.00  0.00    -0.175 OA
BRANCH   5   8
ATOM      8  N2  MOL d          16.077  11.070   4.967  0.00  0.00    -0.230 N 
ATOM      9  C1  MOL d          16.018   9.739   5.246  0.00  0.00     0.264 C 
ATOM     10  O1  MOL d          16.036   8.863   4.381  0.00  0.00    -0.270 OA
ATOM     11  H3  MOL d          16.060  11.696   5.747  0.00  0.00     0.183 HD
BRANCH   9  12
ATOM     12  C3  MOL d          16.005   9.336   6.706  0.00  0.00     0.183 C 
ATOM     13  H2  MOL d          16.546  10.138   7.230  0.00  0.00     0.100 H 
BRANCH  12  14
ATOM     14  C7  MOL d          14.628   9.255   7.389  0.00  0.00    -0.014 C 
BRANCH  14  15
ATOM     15  C9  MOL d          13.711   8.290   6.683  0.00  0.00    -0.067 C 
ATOM     16  H6  MOL d          12.740   8.261   7.200  0.00  0.00     0.028 H 
ATOM     17  H7  MOL d          14.160   7.286   6.689  0.00  0.00     0.028 H 
ATOM     18  H8  MOL d          13.562   8.618   5.643  0.00  0.00     0.028 H 
ENDBRANCH  14  15
BRANCH  14  19
ATOM     19  C10 MOL d          14.815   8.734   8.803  0.00  0.00    -0.067 C 
ATOM     20  H9  MOL d          15.481   9.412   9.358  0.00  0.00     0.028 H 
ATOM     21  H10 MOL d          15.261   7.730   8.768  0.00  0.00     0.028 H 
ATOM     22  H11 MOL d          13.839   8.685   9.308  0.00  0.00     0.028 H 
ENDBRANCH  14  19
BRANCH  14  23
ATOM     23  C11 MOL d          13.921  10.608   7.501  0.00  0.00    -0.067 C 
ATOM     24  H12 MOL d          13.763  11.025   6.496  0.00  0.00     0.028 H 
ATOM     25  H13 MOL d          14.542  11.298   8.091  0.00  0.00     0.028 H 
ATOM     26  H14 MOL d          12.950  10.474   7.999  0.00  0.00     0.028 H 
ENDBRANCH  14  23
ENDBRANCH  12  14
BRANCH  12  27
ATOM     27  N4  MOL d          16.793   8.045   6.958  0.00  0.00    -0.066 N 
ATOM     28  H15 MOL d          17.693   8.107   6.508  0.00  0.00     0.275 HD
ATOM     29  H16 MOL d          16.282   7.261   6.583  0.00  0.00     0.275 HD
ATOM     30  H17 MOL d          16.922   7.918   7.950  0.00  0.00     0.275 HD
ENDBRANCH  12  27
ENDBRANCH   9  12
ENDBRANCH   5   8
ENDBRANCH   4   5
ENDBRANCH   1   4
BRANCH   1  31
ATOM     31  C24 MOL d          12.939  10.403   1.803  0.00  0.00     0.090 C 
ATOM     32  C23 MOL d          13.473   8.978   1.860  0.00  0.00     0.091 C 
ATOM     33  C22 MOL d          14.224   8.812   0.550  0.00  0.00     0.105 C 
ATOM     34  H21 MOL d          14.130   8.824   2.729  0.00  0.00     0.091 H 
ATOM     35  C21 MOL d          13.464   9.776  -0.361  0.00  0.00     0.139 C 
ATOM     36  H23 MOL d          15.267   9.143   0.669  0.00  0.00     0.093 H 
ATOM     37  O4  MOL d          13.172  10.888   0.467  0.00  0.00    -0.353 OA
ATOM     38  H24 MOL d          12.534   9.315  -0.723  0.00  0.00     0.122 H 
ATOM     39  H20 MOL d          11.865  10.415   2.041  0.00  0.00     0.090 H 
BRANCH  32  40
ATOM     40  O3  MOL d          12.387   8.070   1.888  0.00  0.00    -0.390 OA
ATOM     41  H22 MOL d          12.720   7.181   1.924  0.00  0.00     0.210 HD
ENDBRANCH  32  40
BRANCH  33  42
ATOM     42  O2  MOL d          14.245   7.465   0.047  0.00  0.00    -0.388 OA
ATOM     43  H5  MOL d          13.354   7.171  -0.104  0.00  0.00     0.210 HD
ENDBRANCH  33  42
BRANCH  35  44
ATOM     44  N9  MOL d          14.305  10.157  -1.522  0.00  0.00    -0.294 N 
ATOM     45  C4  MOL d          13.936   9.979  -2.792  0.00  0.00     0.167 A 
ATOM     46  C5  MOL d          14.985  10.449  -3.584  0.00  0.00     0.149 A 
ATOM     47  N3  MOL d          12.804   9.442  -3.350  0.00  0.00    -0.222 NA
ATOM     48  C6  MOL d          14.851  10.354  -4.957  0.00  0.00     0.155 A 
ATOM     49  N7  MOL d          15.963  10.918  -2.768  0.00  0.00    -0.236 NA
ATOM     50  N1  MOL d          13.701   9.812  -5.463  0.00  0.00    -0.222 NA
ATOM     51  C2  MOL d          12.702   9.369  -4.681  0.00  0.00     0.091 A 
ATOM     52  H1  MOL d          11.810   8.950  -5.131  0.00  0.00     0.146 H 
ATOM     53  C8  MOL d          15.532  10.729  -1.490  0.00  0.00     0.071 A 
ATOM     54  H4  MOL d          16.083  10.995  -0.589  0.00  0.00     0.144 H 
BRANCH  48  55
ATOM     55  N6  MOL d          15.857  10.774  -5.773  0.00  0.00    -0.382 N 
ATOM     56  H25 MOL d          15.755  10.702  -6.795  0.00  0.00     0.157 HD
ATOM     57  H26 MOL d          16.721  11.163  -5.367  0.00  0.00     0.157 HD
ENDBRANCH  48  55
ENDBRANCH  35  44
ENDBRANCH   1  31
TORSDOF 14
ENDMDL
