MODEL 1
REMARK VINA RESULT:      -9.7      0.000      0.000
REMARK  14 active torsions:
REMARK  status: ('A' for Active; 'I' for Inactive)
REMARK    1  A    between atoms: C1_1  and  C3_3 
REMARK       I    between atoms: N2_9  and  C1_1 
REMARK    2  A    between atoms: C3_3  and  C7_7 
REMARK    3  A    between atoms: C3_3  and  N4_17 
REMARK    4  A    between atoms: C6_6  and  N6_31 
REMARK    5  A    between atoms: C7_7  and  C9_14 
REMARK    6  A    between atoms: C7_7  and  C10_15 
REMARK    7  A    between atoms: C7_7  and  C11_16 
REMARK    8  A    between atoms: S1_18  and  N2_9 
REMARK    9  A    between atoms: C22_26  and  O2_12 
REMARK   10  A    between atoms: O5_21  and  S1_18 
REMARK   11  A    between atoms: C25_22  and  O5_21 
REMARK   12  A    between atoms: C24_23  and  C25_22 
REMARK   13  A    between atoms: C23_24  and  O3_25 
REMARK   14  A    between atoms: C21_27  and  N9_29 
ROOT
ATOM      1  C25 MOL d          13.704  11.129   2.956  0.00  0.00     0.066 C 
ATOM      2  H18 MOL d          13.470  12.189   2.782  0.00  0.00     0.080 H 
ATOM      3  H19 MOL d          13.436  10.859   3.988  0.00  0.00     0.080 H 
ENDROOT
BRANCH   1   4
ATOM      4  O5  MOL d          15.099  10.886   2.727  0.00  0.00    -0.257 OA
BRANCH   4   5
ATOM      5  S1  MOL d          16.174  11.476   3.805  0.00  0.00     0.364 S 
ATOM      6  O1A MOL d          17.438  11.055   3.286  0.00  0.00    -0.175 OA
ATOM      7  O2A MOL d          15.997  12.906   3.781  0.00  0.00    -0.175 OA
BRANCH   5   8
ATOM      8  N2  MOL d          15.994  10.919   5.232  0.00  0.00    -0.230 N 
ATOM      9  C1  MOL d          15.922   9.605   5.582  0.00  0.00     0.264 C 
ATOM     10  O1  MOL d          16.001   8.682   4.771  0.00  0.00    -0.270 OA
ATOM     11  H3  MOL d          15.922  11.587   5.972  0.00  0.00     0.183 HD
BRANCH   9  12
ATOM     12  C3  MOL d          15.813   9.285   7.058  0.00  0.00     0.183 C 
ATOM     13  H2  MOL d          16.425  10.048   7.563  0.00  0.00     0.100 H 
BRANCH  12  14
ATOM     14  C7  MOL d          14.414   9.397   7.689  0.00  0.00    -0.014 C 
BRANCH  14  15
ATOM     15  C9  MOL d          13.352   8.799   6.803  0.00  0.00    -0.067 C 
ATOM     16  H6  MOL d          12.907   7.925   7.301  0.00  0.00     0.028 H 
ATOM     17  H7  MOL d          13.804   8.487   5.850  0.00  0.00     0.028 H 
ATOM     18  H8  MOL d          12.571   9.549   6.610  0.00  0.00     0.028 H 
ENDBRANCH  14  15
BRANCH  14  19
ATOM     19  C10 MOL d          14.401   8.610   8.988  0.00  0.00    -0.067 C 
ATOM     20  H9  MOL d          15.147   7.803   8.936  0.00  0.00     0.028 H 
ATOM     21  H10 MOL d          13.403   8.177   9.145  0.00  0.00     0.028 H 
ATOM     22  H11 MOL d          14.645   9.281   9.825  0.00  0.00     0.028 H 
ENDBRANCH  14  19
BRANCH  14  23
ATOM     23  C11 MOL d          14.012  10.833   8.034  0.00  0.00    -0.067 C 
ATOM     24  H12 MOL d          14.905  11.476   8.027  0.00  0.00     0.028 H 
ATOM     25  H13 MOL d          13.552  10.856   9.032  0.00  0.00     0.028 H 
ATOM     26  H14 MOL d          13.290  11.200   7.290  0.00  0.00     0.028 H 
ENDBRANCH  14  23
ENDBRANCH  12  14
BRANCH  12  27
ATOM     27  N4  MOL d          16.439   7.928   7.405  0.00  0.00    -0.066 N 
ATOM     28  H15 MOL d          16.755   7.479   6.560  0.00  0.00     0.275 HD
ATOM     29  H16 MOL d          15.751   7.347   7.858  0.00  0.00     0.275 HD
ATOM     30  H17 MOL d          17.221   8.068   8.024  0.00  0.00     0.275 HD
ENDBRANCH  12  27
ENDBRANCH   9  12
ENDBRANCH   5   8
ENDBRANCH   4   5
ENDBRANCH   1   4
BRANCH   1  31
ATOM     31  C24 MOL d          12.946  10.260   1.977  0.00  0.00     0.090 C 
ATOM     32  C23 MOL d          13.497   8.841   1.964  0.00  0.00     0.091 C 
ATOM     33  C22 MOL d          14.227   8.741   0.634  0.00  0.00     0.105 C 
ATOM     34  H21 MOL d          14.172   8.658   2.814  0.00  0.00     0.091 H 
ATOM     35  C21 MOL d          13.440   9.733  -0.220  0.00  0.00     0.139 C 
ATOM     36  H23 MOL d          15.268   9.079   0.750  0.00  0.00     0.093 H 
ATOM     37  O4  MOL d          13.149  10.804   0.660  0.00  0.00    -0.353 OA
ATOM     38  H24 MOL d          12.509   9.276  -0.586  0.00  0.00     0.122 H 
ATOM     39  H20 MOL d          11.876  10.248   2.234  0.00  0.00     0.090 H 
BRANCH  32  40
ATOM     40  O3  MOL d          12.423   7.919   1.971  0.00  0.00    -0.390 OA
ATOM     41  H22 MOL d          11.792   8.164   1.305  0.00  0.00     0.210 HD
ENDBRANCH  32  40
BRANCH  33  42
ATOM     42  O2  MOL d          14.255   7.417   0.074  0.00  0.00    -0.388 OA
ATOM     43  H5  MOL d          14.410   6.784   0.765  0.00  0.00     0.210 HD
ENDBRANCH  33  42
BRANCH  35  44
ATOM     44  N9  MOL d          14.255  10.174  -1.379  0.00  0.00    -0.294 N 
ATOM     45  C4  MOL d          13.917   9.947  -2.650  0.00  0.00     0.167 A 
ATOM     46  C5  MOL d          14.929  10.500  -3.438  0.00  0.00     0.149 A 
ATOM     47  N3  MOL d          12.845   9.303  -3.211  0.00  0.00    -0.222 NA
ATOM     48  C6  MOL d          14.819  10.376  -4.811  0.00  0.00     0.155 A 
ATOM     49  N7  MOL d          15.851  11.067  -2.618  0.00  0.00    -0.236 NA
ATOM     50  N1  MOL d          13.728   9.726  -5.320  0.00  0.00    -0.222 NA
ATOM     51  C2  MOL d          12.766   9.204  -4.542  0.00  0.00     0.091 A 
ATOM     52  H1  MOL d          11.920   8.700  -4.995  0.00  0.00     0.146 H 
ATOM     53  C8  MOL d          15.424  10.856  -1.342  0.00  0.00     0.071 A 
ATOM     54  H4  MOL d          15.939  11.182  -0.439  0.00  0.00     0.144 H 
BRANCH  48  55
ATOM     55  N6  MOL d          15.792  10.875  -5.622  0.00  0.00    -0.382 N 
ATOM     56  H25 MOL d          16.273  10.256  -6.290  0.00  0.00     0.157 HD
ATOM     57  H26 MOL d          16.047  11.872  -5.567  0.00  0.00     0.157 HD
ENDBRANCH  48  55
ENDBRANCH  35  44
ENDBRANCH   1  31
TORSDOF 14
ENDMDL
