MODEL 1
REMARK VINA RESULT:     -11.1      0.000      0.000
REMARK  9 active torsions:
REMARK  status: ('A' for Active; 'I' for Inactive)
REMARK    1  A    between atoms: C16_2  and  C17_3 
REMARK       I    between atoms: C16_2  and  N7_10 
REMARK    2  A    between atoms: C40_7  and  C44_8 
REMARK    3  A    between atoms: C8_14  and  C18_30 
REMARK    4  A    between atoms: C14_20  and  C37_21 
REMARK    5  A    between atoms: C14_20  and  C38_22 
REMARK    6  A    between atoms: C6_27  and  O36_28 
REMARK    7  A    between atoms: C21_34  and  O24_37 
REMARK    8  A    between atoms: O24_37  and  C25_38 
REMARK    9  A    between atoms: C25_38  and  C26_39 
ROOT
ATOM      1  O35 XNC d          26.970   6.474  40.242  0.00  0.00    -0.265 OA
ATOM      2  C16 XNC d          28.005   6.101  39.713  0.00  0.00     0.278 C 
ATOM      3  N7  XNC d          28.267   6.341  38.353  0.00  0.00    -0.296 N 
ATOM      4  C4  XNC d          29.566   6.299  37.777  0.00  0.00     0.068 A 
ATOM      5  C3  XNC d          30.579   7.149  38.246  0.00  0.00    -0.054 A 
ATOM      6  C2  XNC d          31.841   7.140  37.669  0.00  0.00    -0.078 A 
ATOM      7  C8  XNC d          27.140   6.647  37.446  0.00  0.00     0.086 C 
ATOM      8  C9  XNC d          26.697   5.376  36.768  0.00  0.00     0.087 C 
ATOM      9  S12 XNC d          24.996   5.206  36.764  0.00  0.00     0.176 S 
ATOM     10  O32 XNC d          24.429   6.386  36.115  0.00  0.00    -0.223 OA
ATOM     11  O33 XNC d          24.467   5.148  38.106  0.00  0.00    -0.223 OA
ATOM     12  C13 XNC d          24.593   3.679  35.891  0.00  0.00     0.040 C 
ATOM     13  C14 XNC d          25.602   3.337  34.799  0.00  0.00    -0.029 C 
ATOM     14  C15 XNC d          26.966   3.211  35.519  0.00  0.00    -0.018 C 
ATOM     15  C10 XNC d          27.515   4.446  36.218  0.00  0.00     0.030 C 
ATOM     16  N11 XNC d          28.902   4.512  36.195  0.00  0.00    -0.354 N 
ATOM     17  C5  XNC d          29.834   5.421  36.721  0.00  0.00     0.093 A 
ATOM     18  C6  XNC d          31.104   5.405  36.173  0.00  0.00     0.094 A 
ATOM     19  C1  XNC d          32.092   6.262  36.645  0.00  0.00    -0.049 A 
ATOM     20  H7  XNC d          30.372   7.823  39.071  0.00  0.00     0.087 H 
ATOM     21  H8  XNC d          32.614   7.813  38.022  0.00  0.00     0.083 H 
ATOM     22  H9  XNC d          26.288   7.013  38.038  0.00  0.00     0.090 H 
ATOM     23  H10 XNC d          23.600   3.790  35.430  0.00  0.00     0.057 H 
ATOM     24  H11 XNC d          24.569   2.854  36.619  0.00  0.00     0.057 H 
ATOM     25  H18 XNC d          27.707   2.904  34.766  0.00  0.00     0.043 H 
ATOM     26  H19 XNC d          26.866   2.422  36.277  0.00  0.00     0.043 H 
ATOM     27  H20 XNC d          29.338   3.729  35.686  0.00  0.00     0.166 HD
ATOM     28  H22 XNC d          33.078   6.235  36.196  0.00  0.00     0.087 H 
ENDROOT
BRANCH   7  29
ATOM     29  C18 XNC d          27.606   7.805  36.532  0.00  0.00     0.009 A 
ATOM     30  C23 XNC d          27.573   7.629  35.155  0.00  0.00     0.127 A 
ATOM     31  F34 XNC d          27.143   6.464  34.676  0.00  0.00    -0.205 F 
ATOM     32  C22 XNC d          27.996   8.640  34.291  0.00  0.00    -0.013 A 
ATOM     33  C21 XNC d          28.456   9.851  34.809  0.00  0.00     0.072 A 
ATOM     34  H23 XNC d          27.966   8.485  33.218  0.00  0.00     0.092 H 
ATOM     35  C20 XNC d          28.485  10.031  36.199  0.00  0.00    -0.050 A 
ATOM     36  C19 XNC d          28.071   9.013  37.050  0.00  0.00    -0.069 A 
ATOM     37  H24 XNC d          28.833  10.971  36.613  0.00  0.00     0.087 H 
ATOM     38  H25 XNC d          28.109   9.160  38.123  0.00  0.00     0.084 H 
BRANCH  33  39
ATOM     39  O24 XNC d          28.844  10.833  33.933  0.00  0.00    -0.347 OA
BRANCH  39  40
ATOM     40  C25 XNC d          27.910  11.736  33.300  0.00  0.00     0.050 C 
ATOM     41  H26 XNC d          28.389  12.716  33.164  0.00  0.00     0.082 H 
ATOM     42  H27 XNC d          27.022  11.846  33.940  0.00  0.00     0.082 H 
BRANCH  40  43
ATOM     43  C26 XNC d          27.486  11.191  31.943  0.00  0.00    -0.034 A 
ATOM     44  C31 XNC d          28.374  10.443  31.192  0.00  0.00    -0.075 A 
ATOM     45  C30 XNC d          27.993   9.906  29.968  0.00  0.00    -0.082 A 
ATOM     46  H28 XNC d          29.379  10.273  31.562  0.00  0.00     0.084 H 
ATOM     47  C29 XNC d          26.713  10.133  29.481  0.00  0.00    -0.083 A 
ATOM     48  H29 XNC d          28.694   9.312  29.394  0.00  0.00     0.083 H 
ATOM     49  C28 XNC d          25.809  10.896  30.237  0.00  0.00    -0.082 A 
ATOM     50  H30 XNC d          26.414   9.724  28.523  0.00  0.00     0.083 H 
ATOM     51  C27 XNC d          26.191  11.417  31.467  0.00  0.00    -0.075 A 
ATOM     52  H31 XNC d          24.809  11.080  29.860  0.00  0.00     0.083 H 
ATOM     53  H32 XNC d          25.488  11.996  32.054  0.00  0.00     0.084 H 
ENDBRANCH  40  43
ENDBRANCH  39  40
ENDBRANCH  33  39
ENDBRANCH   7  29
BRANCH   2  54
ATOM     54  C17 XNC d          28.994   5.395  40.567  0.00  0.00     0.125 A 
ATOM     55  C43 XNC d          29.105   4.015  40.540  0.00  0.00    -0.050 A 
ATOM     56  C42 XNC d          30.049   3.409  41.365  0.00  0.00    -0.079 A 
ATOM     57  H1  XNC d          28.472   3.419  39.892  0.00  0.00     0.087 H 
ATOM     58  C41 XNC d          30.887   4.192  42.179  0.00  0.00    -0.059 A 
ATOM     59  H2  XNC d          30.139   2.328  41.380  0.00  0.00     0.083 H 
ATOM     60  C40 XNC d          30.790   5.575  42.179  0.00  0.00     0.031 A 
ATOM     61  H3  XNC d          31.619   3.708  42.815  0.00  0.00     0.086 H 
ATOM     62  N39 XNC d          29.834   6.163  41.375  0.00  0.00    -0.248 NA
BRANCH  60  63
ATOM     63  C44 XNC d          31.660   6.443  43.048  0.00  0.00    -0.035 C 
ATOM     64  H4  XNC d          32.553   5.878  43.352  0.00  0.00     0.035 H 
ATOM     65  H5  XNC d          31.097   6.747  43.942  0.00  0.00     0.035 H 
ATOM     66  H6  XNC d          31.965   7.337  42.485  0.00  0.00     0.035 H 
ENDBRANCH  60  63
ENDBRANCH   2  54
BRANCH  18  67
ATOM     67  O36 XNC d          31.417   4.566  35.144  0.00  0.00    -0.358 OA
ATOM     68  H21 XNC d          31.371   3.667  35.445  0.00  0.00     0.217 HD
ENDBRANCH  18  67
BRANCH  13  69
ATOM     69  C37 XNC d          25.215   1.971  34.181  0.00  0.00    -0.068 C 
ATOM     70  H12 XNC d          25.371   1.174  34.923  0.00  0.00     0.028 H 
ATOM     71  H13 XNC d          25.842   1.777  33.299  0.00  0.00     0.028 H 
ATOM     72  H14 XNC d          24.156   1.990  33.882  0.00  0.00     0.028 H 
ENDBRANCH  13  69
BRANCH  13  73
ATOM     73  C38 XNC d          25.653   4.425  33.693  0.00  0.00    -0.068 C 
ATOM     74  H15 XNC d          26.690   4.548  33.348  0.00  0.00     0.028 H 
ATOM     75  H16 XNC d          25.287   5.379  34.099  0.00  0.00     0.028 H 
ATOM     76  H17 XNC d          25.019   4.119  32.848  0.00  0.00     0.028 H 
ENDBRANCH  13  73
TORSDOF 9
ENDMDL
MODEL 2
REMARK VINA RESULT:     -10.4      2.599      7.331
REMARK  9 active torsions:
REMARK  status: ('A' for Active; 'I' for Inactive)
REMARK    1  A    between atoms: C16_2  and  C17_3 
REMARK       I    between atoms: C16_2  and  N7_10 
REMARK    2  A    between atoms: C40_7  and  C44_8 
REMARK    3  A    between atoms: C8_14  and  C18_30 
REMARK    4  A    between atoms: C14_20  and  C37_21 
REMARK    5  A    between atoms: C14_20  and  C38_22 
REMARK    6  A    between atoms: C6_27  and  O36_28 
REMARK    7  A    between atoms: C21_34  and  O24_37 
REMARK    8  A    between atoms: O24_37  and  C25_38 
REMARK    9  A    between atoms: C25_38  and  C26_39 
ROOT
ATOM      1  O35 XNC d          29.887   5.300  33.259  0.00  0.00    -0.265 OA
ATOM      2  C16 XNC d          29.235   6.038  33.981  0.00  0.00     0.278 C 
ATOM      3  N7  XNC d          29.079   5.778  35.353  0.00  0.00    -0.296 N 
ATOM      4  C4  XNC d          28.689   6.759  36.305  0.00  0.00     0.068 A 
ATOM      5  C3  XNC d          29.458   7.918  36.488  0.00  0.00    -0.054 A 
ATOM      6  C2  XNC d          29.104   8.867  37.438  0.00  0.00    -0.078 A 
ATOM      7  C8  XNC d          29.321   4.411  35.860  0.00  0.00     0.086 C 
ATOM      8  C9  XNC d          28.008   3.677  35.937  0.00  0.00     0.087 C 
ATOM      9  S12 XNC d          28.114   2.093  35.301  0.00  0.00     0.176 S 
ATOM     10  O32 XNC d          29.166   1.388  36.027  0.00  0.00    -0.223 OA
ATOM     11  O33 XNC d          28.481   2.109  33.904  0.00  0.00    -0.223 OA
ATOM     12  C13 XNC d          26.500   1.309  35.491  0.00  0.00     0.040 C 
ATOM     13  C14 XNC d          25.738   1.811  36.714  0.00  0.00    -0.029 C 
ATOM     14  C15 XNC d          25.584   3.337  36.510  0.00  0.00    -0.018 C 
ATOM     15  C10 XNC d          26.852   4.175  36.439  0.00  0.00     0.030 C 
ATOM     16  N11 XNC d          26.689   5.452  36.961  0.00  0.00    -0.354 N 
ATOM     17  C5  XNC d          27.542   6.561  37.083  0.00  0.00     0.093 A 
ATOM     18  C6  XNC d          27.187   7.526  38.007  0.00  0.00     0.094 A 
ATOM     19  C1  XNC d          27.968   8.664  38.180  0.00  0.00    -0.049 A 
ATOM     20  H7  XNC d          30.341   8.075  35.879  0.00  0.00     0.087 H 
ATOM     21  H8  XNC d          29.713   9.750  37.589  0.00  0.00     0.083 H 
ATOM     22  H9  XNC d          29.955   3.866  35.144  0.00  0.00     0.090 H 
ATOM     23  H10 XNC d          26.647   0.223  35.589  0.00  0.00     0.057 H 
ATOM     24  H11 XNC d          25.900   1.518  34.593  0.00  0.00     0.057 H 
ATOM     25  H18 XNC d          24.983   3.720  37.348  0.00  0.00     0.043 H 
ATOM     26  H19 XNC d          25.037   3.489  35.569  0.00  0.00     0.043 H 
ATOM     27  H20 XNC d          25.745   5.620  37.337  0.00  0.00     0.166 HD
ATOM     28  H22 XNC d          27.673   9.405  38.915  0.00  0.00     0.087 H 
ENDROOT
BRANCH   7  29
ATOM     29  C18 XNC d          30.123   4.558  37.174  0.00  0.00     0.009 A 
ATOM     30  C23 XNC d          31.391   5.124  37.128  0.00  0.00     0.127 A 
ATOM     31  F34 XNC d          31.867   5.515  35.948  0.00  0.00    -0.205 F 
ATOM     32  C22 XNC d          32.158   5.265  38.286  0.00  0.00    -0.013 A 
ATOM     33  C21 XNC d          31.649   4.838  39.514  0.00  0.00     0.072 A 
ATOM     34  H23 XNC d          33.147   5.706  38.232  0.00  0.00     0.092 H 
ATOM     35  C20 XNC d          30.368   4.271  39.561  0.00  0.00    -0.050 A 
ATOM     36  C19 XNC d          29.618   4.127  38.400  0.00  0.00    -0.069 A 
ATOM     37  H24 XNC d          29.960   3.943  40.511  0.00  0.00     0.087 H 
ATOM     38  H25 XNC d          28.633   3.676  38.448  0.00  0.00     0.084 H 
BRANCH  33  39
ATOM     39  O24 XNC d          32.419   5.010  40.636  0.00  0.00    -0.347 OA
BRANCH  39  40
ATOM     40  C25 XNC d          31.975   5.767  41.784  0.00  0.00     0.050 C 
ATOM     41  H26 XNC d          32.801   5.847  42.507  0.00  0.00     0.082 H 
ATOM     42  H27 XNC d          31.127   5.248  42.254  0.00  0.00     0.082 H 
BRANCH  40  43
ATOM     43  C26 XNC d          31.539   7.163  41.362  0.00  0.00    -0.034 A 
ATOM     44  C31 XNC d          30.244   7.582  41.601  0.00  0.00    -0.075 A 
ATOM     45  C30 XNC d          29.837   8.866  41.256  0.00  0.00    -0.082 A 
ATOM     46  H28 XNC d          29.537   6.902  42.063  0.00  0.00     0.084 H 
ATOM     47  C29 XNC d          30.732   9.736  40.650  0.00  0.00    -0.083 A 
ATOM     48  H29 XNC d          28.822   9.187  41.461  0.00  0.00     0.083 H 
ATOM     49  C28 XNC d          32.048   9.314  40.400  0.00  0.00    -0.082 A 
ATOM     50  H30 XNC d          30.418  10.735  40.372  0.00  0.00     0.083 H 
ATOM     51  C27 XNC d          32.452   8.034  40.761  0.00  0.00    -0.075 A 
ATOM     52  H31 XNC d          32.751   9.988  39.923  0.00  0.00     0.083 H 
ATOM     53  H32 XNC d          33.471   7.714  40.578  0.00  0.00     0.084 H 
ENDBRANCH  40  43
ENDBRANCH  39  40
ENDBRANCH  33  39
ENDBRANCH   7  29
BRANCH   2  54
ATOM     54  C17 XNC d          28.619   7.236  33.357  0.00  0.00     0.125 A 
ATOM     55  C43 XNC d          27.340   7.190  32.828  0.00  0.00    -0.050 A 
ATOM     56  C42 XNC d          26.817   8.346  32.254  0.00  0.00    -0.079 A 
ATOM     57  H1  XNC d          26.759   6.275  32.860  0.00  0.00     0.087 H 
ATOM     58  C41 XNC d          27.567   9.535  32.245  0.00  0.00    -0.059 A 
ATOM     59  H2  XNC d          25.827   8.328  31.812  0.00  0.00     0.083 H 
ATOM     60  C40 XNC d          28.835   9.582  32.802  0.00  0.00     0.031 A 
ATOM     61  H3  XNC d          27.147  10.428  31.796  0.00  0.00     0.086 H 
ATOM     62  N39 XNC d          29.352   8.424  33.347  0.00  0.00    -0.248 NA
BRANCH  60  63
ATOM     63  C44 XNC d          29.671  10.833  32.797  0.00  0.00    -0.035 C 
ATOM     64  H4  XNC d          29.012  11.714  32.827  0.00  0.00     0.035 H 
ATOM     65  H5  XNC d          30.280  10.864  31.882  0.00  0.00     0.035 H 
ATOM     66  H6  XNC d          30.331  10.838  33.677  0.00  0.00     0.035 H 
ENDBRANCH  60  63
ENDBRANCH   2  54
BRANCH  18  67
ATOM     67  O36 XNC d          26.078   7.382  38.787  0.00  0.00    -0.358 OA
ATOM     68  H21 XNC d          25.942   8.175  39.291  0.00  0.00     0.217 HD
ENDBRANCH  18  67
BRANCH  13  69
ATOM     69  C37 XNC d          24.340   1.146  36.730  0.00  0.00    -0.068 C 
ATOM     70  H12 XNC d          23.741   1.572  37.549  0.00  0.00     0.028 H 
ATOM     71  H13 XNC d          24.450   0.063  36.883  0.00  0.00     0.028 H 
ATOM     72  H14 XNC d          23.834   1.331  35.771  0.00  0.00     0.028 H 
ENDBRANCH  13  69
BRANCH  13  73
ATOM     73  C38 XNC d          26.491   1.498  38.036  0.00  0.00    -0.068 C 
ATOM     74  H15 XNC d          26.923   2.426  38.439  0.00  0.00     0.028 H 
ATOM     75  H16 XNC d          27.294   0.774  37.839  0.00  0.00     0.028 H 
ATOM     76  H17 XNC d          25.786   1.074  38.767  0.00  0.00     0.028 H 
ENDBRANCH  13  73
TORSDOF 9
ENDMDL
MODEL 3
REMARK VINA RESULT:      -8.9      2.591      7.338
REMARK  9 active torsions:
REMARK  status: ('A' for Active; 'I' for Inactive)
REMARK    1  A    between atoms: C16_2  and  C17_3 
REMARK       I    between atoms: C16_2  and  N7_10 
REMARK    2  A    between atoms: C40_7  and  C44_8 
REMARK    3  A    between atoms: C8_14  and  C18_30 
REMARK    4  A    between atoms: C14_20  and  C37_21 
REMARK    5  A    between atoms: C14_20  and  C38_22 
REMARK    6  A    between atoms: C6_27  and  O36_28 
REMARK    7  A    between atoms: C21_34  and  O24_37 
REMARK    8  A    between atoms: O24_37  and  C25_38 
REMARK    9  A    between atoms: C25_38  and  C26_39 
ROOT
ATOM      1  O35 XNC d          29.869   5.267  33.245  0.00  0.00    -0.265 OA
ATOM      2  C16 XNC d          29.233   6.009  33.976  0.00  0.00     0.278 C 
ATOM      3  N7  XNC d          29.103   5.754  35.352  0.00  0.00    -0.296 N 
ATOM      4  C4  XNC d          28.734   6.740  36.308  0.00  0.00     0.068 A 
ATOM      5  C3  XNC d          29.511   7.896  36.473  0.00  0.00    -0.054 A 
ATOM      6  C2  XNC d          29.179   8.849  37.426  0.00  0.00    -0.078 A 
ATOM      7  C8  XNC d          29.348   4.388  35.859  0.00  0.00     0.086 C 
ATOM      8  C9  XNC d          28.034   3.660  35.963  0.00  0.00     0.087 C 
ATOM      9  S12 XNC d          28.121   2.074  35.330  0.00  0.00     0.176 S 
ATOM     10  O32 XNC d          29.184   1.366  36.039  0.00  0.00    -0.223 OA
ATOM     11  O33 XNC d          28.462   2.083  33.927  0.00  0.00    -0.223 OA
ATOM     12  C13 XNC d          26.508   1.297  35.553  0.00  0.00     0.040 C 
ATOM     13  C14 XNC d          25.772   1.805  36.788  0.00  0.00    -0.029 C 
ATOM     14  C15 XNC d          25.619   3.331  36.583  0.00  0.00    -0.018 C 
ATOM     15  C10 XNC d          26.890   4.164  36.485  0.00  0.00     0.030 C 
ATOM     16  N11 XNC d          26.741   5.443  37.006  0.00  0.00    -0.354 N 
ATOM     17  C5  XNC d          27.601   6.549  37.108  0.00  0.00     0.093 A 
ATOM     18  C6  XNC d          27.268   7.519  38.036  0.00  0.00     0.094 A 
ATOM     19  C1  XNC d          28.056   8.653  38.191  0.00  0.00    -0.049 A 
ATOM     20  H7  XNC d          30.383   8.048  35.847  0.00  0.00     0.087 H 
ATOM     21  H8  XNC d          29.794   9.731  37.564  0.00  0.00     0.083 H 
ATOM     22  H9  XNC d          29.966   3.838  35.133  0.00  0.00     0.090 H 
ATOM     23  H10 XNC d          26.653   0.210  35.652  0.00  0.00     0.057 H 
ATOM     24  H11 XNC d          25.892   1.505  34.666  0.00  0.00     0.057 H 
ATOM     25  H18 XNC d          25.036   3.720  37.431  0.00  0.00     0.043 H 
ATOM     26  H19 XNC d          25.056   3.482  35.651  0.00  0.00     0.043 H 
ATOM     27  H20 XNC d          25.805   5.617  37.399  0.00  0.00     0.166 HD
ATOM     28  H22 XNC d          27.778   9.398  38.928  0.00  0.00     0.087 H 
ENDROOT
BRANCH   7  29
ATOM     29  C18 XNC d          30.176   4.536  37.158  0.00  0.00     0.009 A 
ATOM     30  C23 XNC d          29.664   4.020  38.341  0.00  0.00     0.127 A 
ATOM     31  F34 XNC d          28.477   3.420  38.310  0.00  0.00    -0.205 F 
ATOM     32  C22 XNC d          30.368   4.141  39.541  0.00  0.00    -0.013 A 
ATOM     33  C21 XNC d          31.606   4.785  39.560  0.00  0.00     0.072 A 
ATOM     34  H23 XNC d          29.953   3.736  40.458  0.00  0.00     0.092 H 
ATOM     35  C20 XNC d          32.124   5.301  38.364  0.00  0.00    -0.050 A 
ATOM     36  C19 XNC d          31.410   5.183  37.178  0.00  0.00    -0.069 A 
ATOM     37  H24 XNC d          33.089   5.796  38.366  0.00  0.00     0.087 H 
ATOM     38  H25 XNC d          31.816   5.597  36.262  0.00  0.00     0.084 H 
BRANCH  33  39
ATOM     39  O24 XNC d          32.282   4.868  40.750  0.00  0.00    -0.347 OA
BRANCH  39  40
ATOM     40  C25 XNC d          32.994   6.054  41.169  0.00  0.00     0.050 C 
ATOM     41  H26 XNC d          33.831   6.237  40.480  0.00  0.00     0.082 H 
ATOM     42  H27 XNC d          33.382   5.903  42.186  0.00  0.00     0.082 H 
BRANCH  40  43
ATOM     43  C26 XNC d          32.064   7.259  41.160  0.00  0.00    -0.034 A 
ATOM     44  C31 XNC d          32.331   8.330  40.327  0.00  0.00    -0.075 A 
ATOM     45  C30 XNC d          31.474   9.424  40.278  0.00  0.00    -0.082 A 
ATOM     46  H28 XNC d          33.220   8.318  39.706  0.00  0.00     0.084 H 
ATOM     47  C29 XNC d          30.344   9.453  41.082  0.00  0.00    -0.083 A 
ATOM     48  H29 XNC d          31.689  10.252  39.612  0.00  0.00     0.083 H 
ATOM     49  C28 XNC d          30.070   8.371  41.933  0.00  0.00    -0.082 A 
ATOM     50  H30 XNC d          29.677  10.307  41.054  0.00  0.00     0.083 H 
ATOM     51  C27 XNC d          30.923   7.275  41.966  0.00  0.00    -0.075 A 
ATOM     52  H31 XNC d          29.190   8.390  42.567  0.00  0.00     0.083 H 
ATOM     53  H32 XNC d          30.703   6.435  42.615  0.00  0.00     0.084 H 
ENDBRANCH  40  43
ENDBRANCH  39  40
ENDBRANCH  33  39
ENDBRANCH   7  29
BRANCH   2  54
ATOM     54  C17 XNC d          28.611   7.208  33.360  0.00  0.00     0.125 A 
ATOM     55  C43 XNC d          27.323   7.164  32.851  0.00  0.00    -0.050 A 
ATOM     56  C42 XNC d          26.794   8.320  32.283  0.00  0.00    -0.079 A 
ATOM     57  H1  XNC d          26.741   6.250  32.892  0.00  0.00     0.087 H 
ATOM     58  C41 XNC d          27.547   9.508  32.261  0.00  0.00    -0.059 A 
ATOM     59  H2  XNC d          25.798   8.304  31.856  0.00  0.00     0.083 H 
ATOM     60  C40 XNC d          28.823   9.552  32.799  0.00  0.00     0.031 A 
ATOM     61  H3  XNC d          27.122  10.401  31.818  0.00  0.00     0.086 H 
ATOM     62  N39 XNC d          29.346   8.394  33.338  0.00  0.00    -0.248 NA
BRANCH  60  63
ATOM     63  C44 XNC d          29.661  10.802  32.780  0.00  0.00    -0.035 C 
ATOM     64  H4  XNC d          29.177  11.559  32.145  0.00  0.00     0.035 H 
ATOM     65  H5  XNC d          30.658  10.570  32.377  0.00  0.00     0.035 H 
ATOM     66  H6  XNC d          29.762  11.193  33.803  0.00  0.00     0.035 H 
ENDBRANCH  60  63
ENDBRANCH   2  54
BRANCH  18  67
ATOM     67  O36 XNC d          26.173   7.382  38.836  0.00  0.00    -0.358 OA
ATOM     68  H21 XNC d          25.681   6.614  38.570  0.00  0.00     0.217 HD
ENDBRANCH  18  67
BRANCH  13  69
ATOM     69  C37 XNC d          24.371   1.146  36.833  0.00  0.00    -0.068 C 
ATOM     70  H12 XNC d          23.792   1.571  37.667  0.00  0.00     0.028 H 
ATOM     71  H13 XNC d          24.481   0.062  36.979  0.00  0.00     0.028 H 
ATOM     72  H14 XNC d          23.845   1.338  35.887  0.00  0.00     0.028 H 
ENDBRANCH  13  69
BRANCH  13  73
ATOM     73  C38 XNC d          26.548   1.494  38.097  0.00  0.00    -0.068 C 
ATOM     74  H15 XNC d          27.341   2.242  38.239  0.00  0.00     0.028 H 
ATOM     75  H16 XNC d          26.996   0.492  38.029  0.00  0.00     0.028 H 
ATOM     76  H17 XNC d          25.855   1.527  38.951  0.00  0.00     0.028 H 
ENDBRANCH  13  73
TORSDOF 9
ENDMDL
MODEL 4
REMARK VINA RESULT:      -8.1      2.363      7.763
REMARK  9 active torsions:
REMARK  status: ('A' for Active; 'I' for Inactive)
REMARK    1  A    between atoms: C16_2  and  C17_3 
REMARK       I    between atoms: C16_2  and  N7_10 
REMARK    2  A    between atoms: C40_7  and  C44_8 
REMARK    3  A    between atoms: C8_14  and  C18_30 
REMARK    4  A    between atoms: C14_20  and  C37_21 
REMARK    5  A    between atoms: C14_20  and  C38_22 
REMARK    6  A    between atoms: C6_27  and  O36_28 
REMARK    7  A    between atoms: C21_34  and  O24_37 
REMARK    8  A    between atoms: O24_37  and  C25_38 
REMARK    9  A    between atoms: C25_38  and  C26_39 
ROOT
ATOM      1  O35 XNC d          27.104  10.144  35.865  0.00  0.00    -0.265 OA
ATOM      2  C16 XNC d          27.712   9.307  35.217  0.00  0.00     0.278 C 
ATOM      3  N7  XNC d          27.955   8.017  35.721  0.00  0.00    -0.296 N 
ATOM      4  C4  XNC d          28.289   6.900  34.909  0.00  0.00     0.068 A 
ATOM      5  C3  XNC d          27.418   6.472  33.896  0.00  0.00    -0.054 A 
ATOM      6  C2  XNC d          27.719   5.362  33.118  0.00  0.00    -0.078 A 
ATOM      7  C8  XNC d          27.873   7.786  37.179  0.00  0.00     0.086 C 
ATOM      8  C9  XNC d          29.254   7.888  37.770  0.00  0.00     0.087 C 
ATOM      9  S12 XNC d          29.277   8.824  39.202  0.00  0.00     0.176 S 
ATOM     10  O32 XNC d          28.334   8.225  40.143  0.00  0.00    -0.223 OA
ATOM     11  O33 XNC d          28.848  10.179  38.953  0.00  0.00    -0.223 OA
ATOM     12  C13 XNC d          30.967   8.833  39.833  0.00  0.00     0.040 C 
ATOM     13  C14 XNC d          31.730   7.554  39.501  0.00  0.00    -0.029 C 
ATOM     14  C15 XNC d          31.724   7.454  37.957  0.00  0.00    -0.018 C 
ATOM     15  C10 XNC d          30.377   7.326  37.260  0.00  0.00     0.030 C 
ATOM     16  N11 XNC d          30.436   6.566  36.100  0.00  0.00    -0.354 N 
ATOM     17  C5  XNC d          29.484   6.206  35.132  0.00  0.00     0.093 A 
ATOM     18  C6  XNC d          29.782   5.117  34.333  0.00  0.00     0.094 A 
ATOM     19  C1  XNC d          28.902   4.702  33.340  0.00  0.00    -0.049 A 
ATOM     20  H7  XNC d          26.497   7.015  33.718  0.00  0.00     0.087 H 
ATOM     21  H8  XNC d          27.033   5.022  32.351  0.00  0.00     0.083 H 
ATOM     22  H9  XNC d          27.264   8.580  37.638  0.00  0.00     0.090 H 
ATOM     23  H10 XNC d          30.933   8.948  40.926  0.00  0.00     0.057 H 
ATOM     24  H11 XNC d          31.503   9.686  39.390  0.00  0.00     0.057 H 
ATOM     25  H18 XNC d          32.321   6.572  37.683  0.00  0.00     0.043 H 
ATOM     26  H19 XNC d          32.209   8.360  37.567  0.00  0.00     0.043 H 
ATOM     27  H20 XNC d          31.375   6.187  35.908  0.00  0.00     0.166 HD
ATOM     28  H22 XNC d          29.155   3.843  32.730  0.00  0.00     0.087 H 
ENDROOT
BRANCH   7  29
ATOM     29  C18 XNC d          27.120   6.449  37.376  0.00  0.00     0.009 A 
ATOM     30  C23 XNC d          25.835   6.320  36.867  0.00  0.00     0.127 A 
ATOM     31  F34 XNC d          25.299   7.359  36.229  0.00  0.00    -0.205 F 
ATOM     32  C22 XNC d          25.111   5.138  37.032  0.00  0.00    -0.013 A 
ATOM     33  C21 XNC d          25.682   4.062  37.714  0.00  0.00     0.072 A 
ATOM     34  H23 XNC d          24.107   5.055  36.630  0.00  0.00     0.092 H 
ATOM     35  C20 XNC d          26.981   4.190  38.225  0.00  0.00    -0.050 A 
ATOM     36  C19 XNC d          27.688   5.376  38.062  0.00  0.00    -0.069 A 
ATOM     37  H24 XNC d          27.437   3.359  38.750  0.00  0.00     0.087 H 
ATOM     38  H25 XNC d          28.687   5.468  38.472  0.00  0.00     0.084 H 
BRANCH  33  39
ATOM     39  O24 XNC d          24.953   2.907  37.841  0.00  0.00    -0.347 OA
BRANCH  39  40
ATOM     40  C25 XNC d          24.797   1.954  36.766  0.00  0.00     0.050 C 
ATOM     41  H26 XNC d          24.090   2.356  36.025  0.00  0.00     0.082 H 
ATOM     42  H27 XNC d          24.405   1.010  37.172  0.00  0.00     0.082 H 
BRANCH  40  43
ATOM     43  C26 XNC d          26.137   1.693  36.092  0.00  0.00    -0.034 A 
ATOM     44  C31 XNC d          26.253   1.810  34.719  0.00  0.00    -0.075 A 
ATOM     45  C30 XNC d          27.476   1.612  34.089  0.00  0.00    -0.082 A 
ATOM     46  H28 XNC d          25.379   2.059  34.127  0.00  0.00     0.084 H 
ATOM     47  C29 XNC d          28.594   1.277  34.840  0.00  0.00    -0.083 A 
ATOM     48  H29 XNC d          27.556   1.718  33.014  0.00  0.00     0.083 H 
ATOM     49  C28 XNC d          28.482   1.152  36.234  0.00  0.00    -0.082 A 
ATOM     50  H30 XNC d          29.548   1.113  34.353  0.00  0.00     0.083 H 
ATOM     51  C27 XNC d          27.259   1.366  36.858  0.00  0.00    -0.075 A 
ATOM     52  H31 XNC d          29.351   0.887  36.825  0.00  0.00     0.083 H 
ATOM     53  H32 XNC d          27.177   1.281  37.936  0.00  0.00     0.084 H 
ENDBRANCH  40  43
ENDBRANCH  39  40
ENDBRANCH  33  39
ENDBRANCH   7  29
BRANCH   2  54
ATOM     54  C17 XNC d          28.178   9.695  33.862  0.00  0.00     0.125 A 
ATOM     55  C43 XNC d          29.408  10.305  33.675  0.00  0.00    -0.050 A 
ATOM     56  C42 XNC d          29.788  10.648  32.381  0.00  0.00    -0.079 A 
ATOM     57  H1  XNC d          30.059  10.510  34.517  0.00  0.00     0.087 H 
ATOM     58  C41 XNC d          28.949  10.350  31.292  0.00  0.00    -0.059 A 
ATOM     59  H2  XNC d          30.736  11.148  32.211  0.00  0.00     0.083 H 
ATOM     60  C40 XNC d          27.733   9.714  31.483  0.00  0.00     0.031 A 
ATOM     61  H3  XNC d          29.258  10.622  30.289  0.00  0.00     0.086 H 
ATOM     62  N39 XNC d          27.356   9.400  32.773  0.00  0.00    -0.248 NA
BRANCH  60  63
ATOM     63  C44 XNC d          26.805   9.394  30.343  0.00  0.00    -0.035 C 
ATOM     64  H4  XNC d          27.350   9.478  29.392  0.00  0.00     0.035 H 
ATOM     65  H5  XNC d          25.962  10.100  30.346  0.00  0.00     0.035 H 
ATOM     66  H6  XNC d          26.423   8.368  30.457  0.00  0.00     0.035 H 
ENDBRANCH  60  63
ENDBRANCH   2  54
BRANCH  18  67
ATOM     67  O36 XNC d          30.935   4.409  34.508  0.00  0.00    -0.358 OA
ATOM     68  H21 XNC d          30.781   3.497  34.291  0.00  0.00     0.217 HD
ENDBRANCH  18  67
BRANCH  13  69
ATOM     69  C37 XNC d          33.187   7.704  40.004  0.00  0.00    -0.068 C 
ATOM     70  H12 XNC d          33.432   8.771  40.105  0.00  0.00     0.028 H 
ATOM     71  H13 XNC d          33.874   7.237  39.284  0.00  0.00     0.028 H 
ATOM     72  H14 XNC d          33.290   7.211  40.982  0.00  0.00     0.028 H 
ENDBRANCH  13  69
BRANCH  13  73
ATOM     73  C38 XNC d          31.073   6.301  40.143  0.00  0.00    -0.068 C 
ATOM     74  H15 XNC d          30.560   5.717  39.365  0.00  0.00     0.028 H 
ATOM     75  H16 XNC d          30.344   6.618  40.903  0.00  0.00     0.028 H 
ATOM     76  H17 XNC d          31.849   5.682  40.615  0.00  0.00     0.028 H 
ENDBRANCH  13  73
TORSDOF 9
ENDMDL
