MODEL 1
REMARK VINA RESULT:      -7.6      0.000      0.000
REMARK  10 active torsions:
REMARK  status: ('A' for Active; 'I' for Inactive)
REMARK    1  A    between atoms: C1_1  and  O8_8 
REMARK    2  A    between atoms: C2_2  and  O9_9 
REMARK    3  A    between atoms: C3_3  and  N7_7 
REMARK    4  A    between atoms: C5_5  and  C6_6 
REMARK    5  A    between atoms: C10_10  and  C11_11 
REMARK    6  A    between atoms: C11_11  and  N12_12 
REMARK       I    between atoms: N12_12  and  C13_13 
REMARK    7  A    between atoms: C13_13  and  C14_14 
REMARK    8  A    between atoms: C15_15  and  O21_21 
REMARK    9  A    between atoms: C16_16  and  O22_22 
REMARK   10  A    between atoms: C18_18  and  N20_20 
ROOT
ATOM      1  C6  OZZ d          35.081  -3.600 -11.590  0.00  0.00    -0.075 C 
ATOM      2  C10 OZZ d          34.708  -4.836 -11.333  0.00  0.00    -0.087 C 
ATOM      3  H5  OZZ d          35.144  -2.894 -10.763  0.00  0.00     0.080 H 
ATOM      4  H8  OZZ d          34.651  -5.540 -12.162  0.00  0.00     0.079 H 
ENDROOT
BRANCH   1   5
ATOM      5  C5  OZZ d          35.421  -3.124 -12.957  0.00  0.00     0.084 C 
ATOM      6  C1  OZZ d          36.974  -2.779 -13.018  0.00  0.00     0.092 C 
ATOM      7  C2  OZZ d          36.862  -1.293 -12.685  0.00  0.00     0.105 C 
ATOM      8  H1  OZZ d          37.583  -3.347 -12.299  0.00  0.00     0.091 H 
ATOM      9  C3  OZZ d          35.648  -0.848 -13.552  0.00  0.00     0.137 C 
ATOM     10  H2  OZZ d          36.648  -1.175 -11.612  0.00  0.00     0.093 H 
ATOM     11  O4  OZZ d          34.707  -1.919 -13.250  0.00  0.00    -0.352 OA
ATOM     12  H3  OZZ d          35.939  -0.848 -14.613  0.00  0.00     0.122 H 
ATOM     13  H4  OZZ d          35.173  -3.901 -13.694  0.00  0.00     0.093 H 
BRANCH   6  14
ATOM     14  O8  OZZ d          37.454  -2.954 -14.357  0.00  0.00    -0.390 OA
ATOM     15  H6  OZZ d          36.776  -2.696 -14.972  0.00  0.00     0.210 HD
ENDBRANCH   6  14
BRANCH   7  16
ATOM     16  O9  OZZ d          38.001  -0.457 -13.015  0.00  0.00    -0.388 OA
ATOM     17  H7  OZZ d          37.896   0.396 -12.609  0.00  0.00     0.210 HD
ENDBRANCH   7  16
BRANCH   9  18
ATOM     18  N7  OZZ d          35.008   0.392 -13.275  0.00  0.00    -0.337 N 
ATOM     19  C26 OZZ d          33.953   0.831 -14.141  0.00  0.00    -0.014 A 
ATOM     20  C27 OZZ d          33.316   2.028 -13.935  0.00  0.00    -0.020 A 
ATOM     21  H16 OZZ d          33.652   0.202 -14.978  0.00  0.00     0.111 H 
ATOM     22  C28 OZZ d          33.650   2.868 -12.800  0.00  0.00     0.174 A 
ATOM     23  H17 OZZ d          32.548   2.353 -14.634  0.00  0.00     0.091 H 
ATOM     24  C30 OZZ d          34.773   2.397 -11.958  0.00  0.00    -0.020 A 
ATOM     25  O31 OZZ d          33.000   3.873 -12.543  0.00  0.00    -0.288 OA
ATOM     26  C29 OZZ d          35.368   1.236 -12.244  0.00  0.00    -0.014 A 
ATOM     27  H19 OZZ d          35.113   2.993 -11.112  0.00  0.00     0.091 H 
ATOM     28  H18 OZZ d          36.203   0.932 -11.615  0.00  0.00     0.111 H 
ENDBRANCH   9  18
ENDBRANCH   1   5
BRANCH   2  29
ATOM     29  C11 OZZ d          34.359  -5.325  -9.967  0.00  0.00     0.010 C 
ATOM     30  H9  OZZ d          34.225  -6.417  -9.988  0.00  0.00     0.070 H 
ATOM     31  H10 OZZ d          33.427  -4.848  -9.631  0.00  0.00     0.070 H 
BRANCH  29  32
ATOM     32  N12 OZZ d          35.427  -4.986  -9.068  0.00  0.00    -0.353 N 
ATOM     33  C13 OZZ d          35.713  -5.688  -7.978  0.00  0.00     0.254 C 
ATOM     34  O23 OZZ d          35.059  -6.770  -7.756  0.00  0.00    -0.268 OA
ATOM     35  H11 OZZ d          35.983  -4.181  -9.273  0.00  0.00     0.163 HD
BRANCH  33  36
ATOM     36  C14 OZZ d          36.750  -5.236  -7.037  0.00  0.00     0.070 A 
ATOM     37  C15 OZZ d          37.502  -6.142  -6.208  0.00  0.00     0.114 A 
ATOM     38  C16 OZZ d          38.493  -5.562  -5.388  0.00  0.00     0.102 A 
ATOM     39  C17 OZZ d          38.808  -4.209  -5.311  0.00  0.00    -0.016 A 
ATOM     40  C18 OZZ d          38.053  -3.364  -6.208  0.00  0.00     0.106 A 
ATOM     41  H12 OZZ d          39.560  -3.820  -4.634  0.00  0.00     0.091 H 
ATOM     42  C19 OZZ d          37.053  -3.921  -7.013  0.00  0.00    -0.033 A 
ATOM     43  H13 OZZ d          36.488  -3.256  -7.656  0.00  0.00     0.089 H 
BRANCH  37  44
ATOM     44  O21 OZZ d          37.229  -7.415  -6.185  0.00  0.00    -0.357 OA
ATOM     45  H14 OZZ d          37.299  -7.737  -5.294  0.00  0.00     0.217 HD
ENDBRANCH  37  44
BRANCH  38  46
ATOM     46  O22 OZZ d          39.186  -6.458  -4.569  0.00  0.00    -0.358 OA
ATOM     47  H15 OZZ d          38.731  -7.292  -4.558  0.00  0.00     0.217 HD
ENDBRANCH  38  46
BRANCH  40  48
ATOM     48  N20 OZZ d          38.336  -1.943  -6.153  0.00  0.00    -0.116 N 
ATOM     49  O24 OZZ d          39.270  -1.489  -6.725  0.00  0.00    -0.532 OA
ATOM     50  O25 OZZ d          37.583  -1.234  -5.507  0.00  0.00    -0.532 OA
ENDBRANCH  40  48
ENDBRANCH  33  36
ENDBRANCH  29  32
ENDBRANCH   2  29
TORSDOF 10
ENDMDL
MODEL 2
REMARK VINA RESULT:      -7.6      1.395      2.105
REMARK  10 active torsions:
REMARK  status: ('A' for Active; 'I' for Inactive)
REMARK    1  A    between atoms: C1_1  and  O8_8 
REMARK    2  A    between atoms: C2_2  and  O9_9 
REMARK    3  A    between atoms: C3_3  and  N7_7 
REMARK    4  A    between atoms: C5_5  and  C6_6 
REMARK    5  A    between atoms: C10_10  and  C11_11 
REMARK    6  A    between atoms: C11_11  and  N12_12 
REMARK       I    between atoms: N12_12  and  C13_13 
REMARK    7  A    between atoms: C13_13  and  C14_14 
REMARK    8  A    between atoms: C15_15  and  O21_21 
REMARK    9  A    between atoms: C16_16  and  O22_22 
REMARK   10  A    between atoms: C18_18  and  N20_20 
ROOT
ATOM      1  C6  OZZ d          34.565  -4.255 -11.963  0.00  0.00    -0.075 C 
ATOM      2  C10 OZZ d          34.757  -5.429 -11.398  0.00  0.00    -0.087 C 
ATOM      3  H5  OZZ d          33.688  -3.677 -11.674  0.00  0.00     0.080 H 
ATOM      4  H8  OZZ d          35.636  -6.002 -11.686  0.00  0.00     0.079 H 
ENDROOT
BRANCH   1   5
ATOM      5  C5  OZZ d          35.489  -3.683 -12.977  0.00  0.00     0.084 C 
ATOM      6  C1  OZZ d          36.899  -3.398 -12.296  0.00  0.00     0.092 C 
ATOM      7  C2  OZZ d          36.646  -1.941 -11.917  0.00  0.00     0.105 C 
ATOM      8  H1  OZZ d          37.115  -4.047 -11.434  0.00  0.00     0.091 H 
ATOM      9  C3  OZZ d          35.959  -1.377 -13.195  0.00  0.00     0.137 C 
ATOM     10  H2  OZZ d          35.967  -1.901 -11.052  0.00  0.00     0.093 H 
ATOM     11  O4  OZZ d          34.985  -2.430 -13.451  0.00  0.00    -0.352 OA
ATOM     12  H3  OZZ d          36.701  -1.303 -14.004  0.00  0.00     0.122 H 
ATOM     13  H4  OZZ d          35.604  -4.387 -13.814  0.00  0.00     0.093 H 
BRANCH   6  14
ATOM     14  O8  OZZ d          37.936  -3.482 -13.282  0.00  0.00    -0.390 OA
ATOM     15  H6  OZZ d          37.958  -2.677 -13.787  0.00  0.00     0.210 HD
ENDBRANCH   6  14
BRANCH   7  16
ATOM     16  O9  OZZ d          37.811  -1.127 -11.617  0.00  0.00    -0.388 OA
ATOM     17  H7  OZZ d          38.207  -0.831 -12.429  0.00  0.00     0.210 HD
ENDBRANCH   7  16
BRANCH   9  18
ATOM     18  N7  OZZ d          35.262  -0.139 -13.127  0.00  0.00    -0.337 N 
ATOM     19  C26 OZZ d          35.589   0.778 -12.075  0.00  0.00    -0.014 A 
ATOM     20  C27 OZZ d          34.935   1.976 -11.947  0.00  0.00    -0.020 A 
ATOM     21  H16 OZZ d          36.372   0.517 -11.363  0.00  0.00     0.111 H 
ATOM     22  C28 OZZ d          33.926   2.384 -12.907  0.00  0.00     0.174 A 
ATOM     23  H17 OZZ d          35.177   2.633 -11.113  0.00  0.00     0.091 H 
ATOM     24  C30 OZZ d          33.589   1.388 -13.950  0.00  0.00    -0.020 A 
ATOM     25  O31 OZZ d          33.430   3.502 -12.868  0.00  0.00    -0.288 OA
ATOM     26  C29 OZZ d          34.247   0.227 -13.987  0.00  0.00    -0.014 A 
ATOM     27  H19 OZZ d          32.811   1.601 -14.682  0.00  0.00     0.091 H 
ATOM     28  H18 OZZ d          33.959  -0.488 -14.757  0.00  0.00     0.111 H 
ENDBRANCH   9  18
ENDBRANCH   1   5
BRANCH   2  29
ATOM     29  C11 OZZ d          33.834  -6.015 -10.383  0.00  0.00     0.010 C 
ATOM     30  H9  OZZ d          33.285  -6.860 -10.826  0.00  0.00     0.070 H 
ATOM     31  H10 OZZ d          33.119  -5.250 -10.047  0.00  0.00     0.070 H 
BRANCH  29  32
ATOM     32  N12 OZZ d          34.609  -6.476  -9.265  0.00  0.00    -0.353 N 
ATOM     33  C13 OZZ d          35.113  -5.663  -8.343  0.00  0.00     0.254 C 
ATOM     34  O23 OZZ d          34.829  -4.414  -8.405  0.00  0.00    -0.268 OA
ATOM     35  H11 OZZ d          34.777  -7.457  -9.175  0.00  0.00     0.163 HD
BRANCH  33  36
ATOM     36  C14 OZZ d          35.988  -6.178  -7.277  0.00  0.00     0.070 A 
ATOM     37  C15 OZZ d          35.886  -7.521  -6.765  0.00  0.00     0.114 A 
ATOM     38  C16 OZZ d          36.823  -7.883  -5.774  0.00  0.00     0.102 A 
ATOM     39  C17 OZZ d          37.825  -7.070  -5.253  0.00  0.00    -0.016 A 
ATOM     40  C18 OZZ d          37.903  -5.756  -5.848  0.00  0.00     0.106 A 
ATOM     41  H12 OZZ d          38.494  -7.396  -4.465  0.00  0.00     0.091 H 
ATOM     42  C19 OZZ d          36.970  -5.374  -6.820  0.00  0.00    -0.033 A 
ATOM     43  H13 OZZ d          37.040  -4.373  -7.228  0.00  0.00     0.089 H 
BRANCH  37  44
ATOM     44  O21 OZZ d          34.942  -8.323  -7.165  0.00  0.00    -0.357 OA
ATOM     45  H14 OZZ d          34.716  -8.121  -8.065  0.00  0.00     0.217 HD
ENDBRANCH  37  44
BRANCH  38  46
ATOM     46  O22 OZZ d          36.683  -9.179  -5.270  0.00  0.00    -0.358 OA
ATOM     47  H15 OZZ d          36.893  -9.181  -4.343  0.00  0.00     0.217 HD
ENDBRANCH  38  46
BRANCH  40  48
ATOM     48  N20 OZZ d          38.923  -4.866  -5.328  0.00  0.00    -0.116 N 
ATOM     49  O24 OZZ d          38.817  -3.691  -5.442  0.00  0.00    -0.532 OA
ATOM     50  O25 OZZ d          39.886  -5.364  -4.769  0.00  0.00    -0.532 OA
ENDBRANCH  40  48
ENDBRANCH  33  36
ENDBRANCH  29  32
ENDBRANCH   2  29
TORSDOF 10
ENDMDL
MODEL 3
REMARK VINA RESULT:      -7.3      1.642      2.765
REMARK  10 active torsions:
REMARK  status: ('A' for Active; 'I' for Inactive)
REMARK    1  A    between atoms: C1_1  and  O8_8 
REMARK    2  A    between atoms: C2_2  and  O9_9 
REMARK    3  A    between atoms: C3_3  and  N7_7 
REMARK    4  A    between atoms: C5_5  and  C6_6 
REMARK    5  A    between atoms: C10_10  and  C11_11 
REMARK    6  A    between atoms: C11_11  and  N12_12 
REMARK       I    between atoms: N12_12  and  C13_13 
REMARK    7  A    between atoms: C13_13  and  C14_14 
REMARK    8  A    between atoms: C15_15  and  O21_21 
REMARK    9  A    between atoms: C16_16  and  O22_22 
REMARK   10  A    between atoms: C18_18  and  N20_20 
ROOT
ATOM      1  C6  OZZ d          34.542  -4.033 -11.940  0.00  0.00    -0.075 C 
ATOM      2  C10 OZZ d          34.853  -5.168 -11.349  0.00  0.00    -0.087 C 
ATOM      3  H5  OZZ d          33.674  -3.482 -11.581  0.00  0.00     0.080 H 
ATOM      4  H8  OZZ d          35.724  -5.714 -11.708  0.00  0.00     0.079 H 
ENDROOT
BRANCH   1   5
ATOM      5  C5  OZZ d          35.322  -3.469 -13.073  0.00  0.00     0.084 C 
ATOM      6  C1  OZZ d          36.824  -3.228 -12.605  0.00  0.00     0.092 C 
ATOM      7  C2  OZZ d          36.667  -1.771 -12.177  0.00  0.00     0.105 C 
ATOM      8  H1  OZZ d          37.147  -3.895 -11.791  0.00  0.00     0.091 H 
ATOM      9  C3  OZZ d          35.815  -1.173 -13.334  0.00  0.00     0.137 C 
ATOM     10  H2  OZZ d          36.124  -1.727 -11.221  0.00  0.00     0.093 H 
ATOM     11  O4  OZZ d          34.787  -2.198 -13.455  0.00  0.00    -0.352 OA
ATOM     12  H3  OZZ d          36.431  -1.105 -14.243  0.00  0.00     0.122 H 
ATOM     13  H4  OZZ d          35.294  -4.164 -13.926  0.00  0.00     0.093 H 
BRANCH   6  14
ATOM     14  O8  OZZ d          37.702  -3.324 -13.734  0.00  0.00    -0.390 OA
ATOM     15  H6  OZZ d          37.258  -2.994 -14.507  0.00  0.00     0.210 HD
ENDBRANCH   6  14
BRANCH   7  16
ATOM     16  O9  OZZ d          37.884  -0.990 -12.044  0.00  0.00    -0.388 OA
ATOM     17  H7  OZZ d          37.670  -0.064 -12.075  0.00  0.00     0.210 HD
ENDBRANCH   7  16
BRANCH   9  18
ATOM     18  N7  OZZ d          35.168   0.081 -13.151  0.00  0.00    -0.337 N 
ATOM     19  C26 OZZ d          34.103   0.442 -14.039  0.00  0.00    -0.014 A 
ATOM     20  C27 OZZ d          33.459   1.648 -13.923  0.00  0.00    -0.020 A 
ATOM     21  H16 OZZ d          33.800  -0.253 -14.821  0.00  0.00     0.111 H 
ATOM     22  C28 OZZ d          33.795   2.577 -12.861  0.00  0.00     0.174 A 
ATOM     23  H17 OZZ d          32.683   1.911 -14.639  0.00  0.00     0.091 H 
ATOM     24  C30 OZZ d          34.929   2.182 -11.995  0.00  0.00    -0.020 A 
ATOM     25  O31 OZZ d          33.141   3.595 -12.679  0.00  0.00    -0.288 OA
ATOM     26  C29 OZZ d          35.530   1.007 -12.193  0.00  0.00    -0.014 A 
ATOM     27  H19 OZZ d          35.271   2.846 -11.201  0.00  0.00     0.091 H 
ATOM     28  H18 OZZ d          36.372   0.759 -11.549  0.00  0.00     0.111 H 
ENDBRANCH   9  18
ENDBRANCH   1   5
BRANCH   2  29
ATOM     29  C11 OZZ d          34.076  -5.747 -10.215  0.00  0.00     0.010 C 
ATOM     30  H9  OZZ d          33.602  -6.688 -10.533  0.00  0.00     0.070 H 
ATOM     31  H10 OZZ d          33.299  -5.035  -9.898  0.00  0.00     0.070 H 
BRANCH  29  32
ATOM     32  N12 OZZ d          34.973  -6.002  -9.122  0.00  0.00    -0.353 N 
ATOM     33  C13 OZZ d          35.459  -5.044  -8.340  0.00  0.00     0.254 C 
ATOM     34  O23 OZZ d          35.047  -3.842  -8.514  0.00  0.00    -0.268 OA
ATOM     35  H11 OZZ d          35.244  -6.946  -8.941  0.00  0.00     0.163 HD
BRANCH  33  36
ATOM     36  C14 OZZ d          36.456  -5.351  -7.302  0.00  0.00     0.070 A 
ATOM     37  C15 OZZ d          37.493  -4.428  -6.919  0.00  0.00     0.114 A 
ATOM     38  C16 OZZ d          38.348  -4.847  -5.877  0.00  0.00     0.102 A 
ATOM     39  C17 OZZ d          38.279  -6.057  -5.193  0.00  0.00    -0.016 A 
ATOM     40  C18 OZZ d          37.184  -6.911  -5.591  0.00  0.00     0.106 A 
ATOM     41  H12 OZZ d          38.989  -6.336  -4.423  0.00  0.00     0.091 H 
ATOM     42  C19 OZZ d          36.339  -6.518  -6.636  0.00  0.00    -0.033 A 
ATOM     43  H13 OZZ d          35.542  -7.193  -6.927  0.00  0.00     0.089 H 
BRANCH  37  44
ATOM     44  O21 OZZ d          37.655  -3.300  -7.548  0.00  0.00    -0.357 OA
ATOM     45  H14 OZZ d          38.547  -2.996  -7.427  0.00  0.00     0.217 HD
ENDBRANCH  37  44
BRANCH  38  46
ATOM     46  O22 OZZ d          39.366  -3.948  -5.546  0.00  0.00    -0.358 OA
ATOM     47  H15 OZZ d          39.588  -4.047  -4.627  0.00  0.00     0.217 HD
ENDBRANCH  38  46
BRANCH  40  48
ATOM     48  N20 OZZ d          37.079  -8.190  -4.917  0.00  0.00    -0.116 N 
ATOM     49  O24 OZZ d          36.050  -8.779  -4.892  0.00  0.00    -0.532 OA
ATOM     50  O25 OZZ d          38.079  -8.639  -4.382  0.00  0.00    -0.532 OA
ENDBRANCH  40  48
ENDBRANCH  33  36
ENDBRANCH  29  32
ENDBRANCH   2  29
TORSDOF 10
ENDMDL
MODEL 4
REMARK VINA RESULT:      -4.9      2.099      9.120
REMARK  10 active torsions:
REMARK  status: ('A' for Active; 'I' for Inactive)
REMARK    1  A    between atoms: C1_1  and  O8_8 
REMARK    2  A    between atoms: C2_2  and  O9_9 
REMARK    3  A    between atoms: C3_3  and  N7_7 
REMARK    4  A    between atoms: C5_5  and  C6_6 
REMARK    5  A    between atoms: C10_10  and  C11_11 
REMARK    6  A    between atoms: C11_11  and  N12_12 
REMARK       I    between atoms: N12_12  and  C13_13 
REMARK    7  A    between atoms: C13_13  and  C14_14 
REMARK    8  A    between atoms: C15_15  and  O21_21 
REMARK    9  A    between atoms: C16_16  and  O22_22 
REMARK   10  A    between atoms: C18_18  and  N20_20 
ROOT
ATOM      1  C6  OZZ d          36.241  -3.145  -8.770  0.00  0.00    -0.075 C 
ATOM      2  C10 OZZ d          35.462  -4.141  -9.136  0.00  0.00    -0.087 C 
ATOM      3  H5  OZZ d          36.633  -2.482  -9.540  0.00  0.00     0.080 H 
ATOM      4  H8  OZZ d          35.069  -4.798  -8.362  0.00  0.00     0.079 H 
ENDROOT
BRANCH   1   5
ATOM      5  C5  OZZ d          36.610  -2.882  -7.353  0.00  0.00     0.084 C 
ATOM      6  C1  OZZ d          38.172  -2.588  -7.266  0.00  0.00     0.092 C 
ATOM      7  C2  OZZ d          38.626  -4.015  -6.968  0.00  0.00     0.105 C 
ATOM      8  H1  OZZ d          38.597  -2.174  -8.192  0.00  0.00     0.091 H 
ATOM      9  C3  OZZ d          37.581  -4.485  -5.914  0.00  0.00     0.137 C 
ATOM     10  H2  OZZ d          38.562  -4.618  -7.886  0.00  0.00     0.093 H 
ATOM     11  O4  OZZ d          36.350  -4.040  -6.554  0.00  0.00    -0.352 OA
ATOM     12  H3  OZZ d          37.760  -3.959  -4.965  0.00  0.00     0.122 H 
ATOM     13  H4  OZZ d          36.037  -2.023  -6.973  0.00  0.00     0.093 H 
BRANCH   6  14
ATOM     14  O8  OZZ d          38.440  -1.736  -6.145  0.00  0.00    -0.390 OA
ATOM     15  H6  OZZ d          37.673  -1.702  -5.584  0.00  0.00     0.210 HD
ENDBRANCH   6  14
BRANCH   7  16
ATOM     16  O9  OZZ d          39.956  -4.179  -6.410  0.00  0.00    -0.388 OA
ATOM     17  H7  OZZ d          40.585  -3.715  -6.950  0.00  0.00     0.210 HD
ENDBRANCH   7  16
BRANCH   9  18
ATOM     18  N7  OZZ d          37.452  -5.872  -5.627  0.00  0.00    -0.337 N 
ATOM     19  C26 OZZ d          38.576  -6.567  -5.071  0.00  0.00    -0.014 A 
ATOM     20  C27 OZZ d          38.516  -7.909  -4.794  0.00  0.00    -0.020 A 
ATOM     21  H16 OZZ d          39.494  -6.019  -4.863  0.00  0.00     0.111 H 
ATOM     22  C28 OZZ d          37.294  -8.663  -5.004  0.00  0.00     0.174 A 
ATOM     23  H17 OZZ d          39.399  -8.417  -4.411  0.00  0.00     0.091 H 
ATOM     24  C30 OZZ d          36.174  -7.916  -5.620  0.00  0.00    -0.020 A 
ATOM     25  O31 OZZ d          37.199  -9.828  -4.643  0.00  0.00    -0.288 OA
ATOM     26  C29 OZZ d          36.321  -6.617  -5.894  0.00  0.00    -0.014 A 
ATOM     27  H19 OZZ d          35.237  -8.422  -5.850  0.00  0.00     0.091 H 
ATOM     28  H18 OZZ d          35.483  -6.106  -6.365  0.00  0.00     0.111 H 
ENDBRANCH   9  18
ENDBRANCH   1   5
BRANCH   2  29
ATOM     29  C11 OZZ d          35.089  -4.418 -10.553  0.00  0.00     0.010 C 
ATOM     30  H9  OZZ d          34.027  -4.700 -10.608  0.00  0.00     0.070 H 
ATOM     31  H10 OZZ d          35.707  -5.239 -10.945  0.00  0.00     0.070 H 
BRANCH  29  32
ATOM     32  N12 OZZ d          35.315  -3.231 -11.331  0.00  0.00    -0.353 N 
ATOM     33  C13 OZZ d          36.379  -3.058 -12.106  0.00  0.00     0.254 C 
ATOM     34  O23 OZZ d          37.208  -4.028 -12.234  0.00  0.00    -0.268 OA
ATOM     35  H11 OZZ d          34.636  -2.498 -11.286  0.00  0.00     0.163 HD
BRANCH  33  36
ATOM     36  C14 OZZ d          36.611  -1.780 -12.798  0.00  0.00     0.070 A 
ATOM     37  C15 OZZ d          37.868  -1.444 -13.417  0.00  0.00     0.114 A 
ATOM     38  C16 OZZ d          37.924  -0.200 -14.080  0.00  0.00     0.102 A 
ATOM     39  C17 OZZ d          36.886   0.720 -14.191  0.00  0.00    -0.016 A 
ATOM     40  C18 OZZ d          35.641   0.296 -13.594  0.00  0.00     0.106 A 
ATOM     41  H12 OZZ d          37.002   1.678 -14.685  0.00  0.00     0.091 H 
ATOM     42  C19 OZZ d          35.573  -0.926 -12.916  0.00  0.00    -0.033 A 
ATOM     43  H13 OZZ d          34.631  -1.203 -12.457  0.00  0.00     0.089 H 
BRANCH  37  44
ATOM     44  O21 OZZ d          38.900  -2.230 -13.310  0.00  0.00    -0.357 OA
ATOM     45  H14 OZZ d          38.820  -2.943 -13.933  0.00  0.00     0.217 HD
ENDBRANCH  37  44
BRANCH  38  46
ATOM     46  O22 OZZ d          39.163   0.117 -14.644  0.00  0.00    -0.358 OA
ATOM     47  H15 OZZ d          39.162   1.028 -14.915  0.00  0.00     0.217 HD
ENDBRANCH  38  46
BRANCH  40  48
ATOM     48  N20 OZZ d          34.533   1.229 -13.671  0.00  0.00    -0.116 N 
ATOM     49  O24 OZZ d          33.724   1.138 -14.533  0.00  0.00    -0.532 OA
ATOM     50  O25 OZZ d          34.459   2.102 -12.822  0.00  0.00    -0.532 OA
ENDBRANCH  40  48
ENDBRANCH  33  36
ENDBRANCH  29  32
ENDBRANCH   2  29
TORSDOF 10
ENDMDL
