REMARK  4 active torsions:
REMARK  status: ('A' for Active; 'I' for Inactive)
REMARK    1  A    between atoms: CAS_21  and  CAD_10 
REMARK    2  A    between atoms: NAQ_19  and  CAT_22 
REMARK    3  A    between atoms: CAV_24  and  NAQ_19 
REMARK    4  A    between atoms: CAR_20  and  CAU_23 
ROOT
ATOM      1  CAA E1B d          23.775 -30.387  20.422  0.00  0.00    -0.149 C 
ATOM      2  CAD E1B d          23.393 -29.468  19.747  0.00  0.00    -0.078 C 
ATOM      3  H3  E1B d          24.110 -31.194  21.015  0.00  0.00     0.166 H 
ENDROOT
BRANCH   2   4
ATOM      4  CAS E1B d          22.920 -28.337  18.913  0.00  0.00     0.019 A 
ATOM      5  CAG E1B d          22.381 -27.186  19.465  0.00  0.00    -0.065 A 
ATOM      6  CAE E1B d          21.958 -26.161  18.636  0.00  0.00    -0.079 A 
ATOM      7  H5  E1B d          22.291 -27.089  20.541  0.00  0.00     0.085 H 
ATOM      8  CAH E1B d          22.054 -26.279  17.257  0.00  0.00    -0.057 A 
ATOM      9  H4  E1B d          21.547 -25.256  19.069  0.00  0.00     0.083 H 
ATOM     10  CAT E1B d          22.585 -27.439  16.727  0.00  0.00     0.035 A 
ATOM     11  H6  E1B d          21.719 -25.477  16.609  0.00  0.00     0.086 H 
ATOM     12  CAL E1B d          23.015 -28.462  17.548  0.00  0.00    -0.039 A 
ATOM     13  H9  E1B d          23.428 -29.366  17.115  0.00  0.00     0.089 H 
BRANCH  10  14
ATOM     14  NAQ E1B d          22.731 -27.688  15.348  0.00  0.00    -0.339 N 
ATOM     15  H11 E1B d          22.788 -26.770  14.885  0.00  0.00     0.167 HD
BRANCH  14  16
ATOM     16  CAV E1B d          22.832 -28.663  14.332  0.00  0.00     0.158 A 
ATOM     17  C4  E1B d          23.047 -28.383  12.944  0.00  0.00     0.116 A 
ATOM     18  N3  E1B d          23.205 -27.094  12.463  0.00  0.00    -0.237 NA
ATOM     19  C5  E1B d          23.088 -29.449  12.065  0.00  0.00     0.027 A 
ATOM     20  C2  E1B d          23.400 -26.869  11.151  0.00  0.00     0.087 A 
ATOM     21  N1  E1B d          23.442 -27.890  10.261  0.00  0.00    -0.253 NA
ATOM     22  H1  E1B d          23.526 -25.852  10.799  0.00  0.00     0.146 H 
ATOM     23  C6  E1B d          23.297 -29.172  10.678  0.00  0.00     0.017 A 
ATOM     24  H2  E1B d          23.339 -29.985   9.962  0.00  0.00     0.116 H 
ATOM     25  CAY E1B d          22.910 -30.809  12.613  0.00  0.00     0.007 A 
ATOM     26  CAJ E1B d          22.955 -31.942  11.751  0.00  0.00    -0.069 A 
ATOM     27  CAW E1B d          22.726 -31.004  13.965  0.00  0.00     0.071 A 
ATOM     28  CAI E1B d          22.788 -33.218  12.302  0.00  0.00    -0.066 A 
ATOM     29  H8  E1B d          23.116 -31.818  10.686  0.00  0.00     0.085 H 
ATOM     30  CAU E1B d          22.600 -33.411  13.686  0.00  0.00     0.043 A 
ATOM     31  H7  E1B d          22.804 -34.081  11.647  0.00  0.00     0.085 H 
ATOM     32  CAM E1B d          22.558 -32.303  14.530  0.00  0.00    -0.038 A 
ATOM     33  H10 E1B d          22.401 -32.426  15.595  0.00  0.00     0.088 H 
ATOM     34  NAP E1B d          22.691 -29.908  14.793  0.00  0.00    -0.228 NA
BRANCH  30  35
ATOM     35  CAR E1B d          22.410 -34.787  14.244  0.00  0.00     0.209 C 
ATOM     36  OAB E1B d          22.501 -34.780  15.499  0.00  0.00    -0.644 OA
ATOM     37  OAC E1B d          22.112 -35.584  13.321  0.00  0.00    -0.644 OA
ENDBRANCH  30  35
ENDBRANCH  14  16
ENDBRANCH  10  14
ENDBRANCH   2   4
TORSDOF 4
