MODEL 1
REMARK VINA RESULT:      -9.9      0.000      0.000
REMARK  4 active torsions:
REMARK  status: ('A' for Active; 'I' for Inactive)
REMARK    1  A    between atoms: CAS_21  and  CAD_10 
REMARK    2  A    between atoms: NAQ_19  and  CAT_22 
REMARK    3  A    between atoms: CAV_24  and  NAQ_19 
REMARK    4  A    between atoms: CAR_20  and  CAU_23 
ROOT
ATOM      1  CAA E1B d          22.976 -30.824  20.328  0.00  0.00    -0.149 C 
ATOM      2  CAD E1B d          22.792 -29.786  19.748  0.00  0.00    -0.078 C 
ATOM      3  H3  E1B d          23.136 -31.735  20.837  0.00  0.00     0.166 H 
ENDROOT
BRANCH   2   4
ATOM      4  CAS E1B d          22.567 -28.509  19.030  0.00  0.00     0.019 A 
ATOM      5  CAG E1B d          22.077 -27.380  19.666  0.00  0.00    -0.065 A 
ATOM      6  CAE E1B d          21.889 -26.213  18.944  0.00  0.00    -0.079 A 
ATOM      7  H5  E1B d          21.843 -27.409  20.724  0.00  0.00     0.085 H 
ATOM      8  CAH E1B d          22.172 -26.166  17.587  0.00  0.00    -0.057 A 
ATOM      9  H4  E1B d          21.517 -25.327  19.445  0.00  0.00     0.083 H 
ATOM     10  CAT E1B d          22.650 -27.306  16.970  0.00  0.00     0.035 A 
ATOM     11  H6  E1B d          22.021 -25.253  17.022  0.00  0.00     0.086 H 
ATOM     12  CAL E1B d          22.846 -28.470  17.685  0.00  0.00    -0.039 A 
ATOM     13  H9  E1B d          23.220 -29.356  17.185  0.00  0.00     0.089 H 
BRANCH  10  14
ATOM     14  NAQ E1B d          22.967 -27.394  15.600  0.00  0.00    -0.339 N 
ATOM     15  H11 E1B d          23.281 -26.458  15.307  0.00  0.00     0.167 HD
BRANCH  14  16
ATOM     16  CAV E1B d          23.038 -28.222  14.459  0.00  0.00     0.158 A 
ATOM     17  C4  E1B d          23.216 -27.756  13.116  0.00  0.00     0.116 A 
ATOM     18  N3  E1B d          23.364 -26.414  12.811  0.00  0.00    -0.237 NA
ATOM     19  C5  E1B d          23.230 -28.693  12.100  0.00  0.00     0.027 A 
ATOM     20  C2  E1B d          23.524 -26.013  11.536  0.00  0.00     0.087 A 
ATOM     21  N1  E1B d          23.539 -26.904  10.515  0.00  0.00    -0.253 NA
ATOM     22  H1  E1B d          23.643 -24.957  11.322  0.00  0.00     0.146 H 
ATOM     23  C6  E1B d          23.402 -28.231  10.758  0.00  0.00     0.017 A 
ATOM     24  H2  E1B d          23.423 -28.939   9.938  0.00  0.00     0.116 H 
ATOM     25  CAY E1B d          23.064 -30.115  12.463  0.00  0.00     0.007 A 
ATOM     26  CAJ E1B d          23.083 -31.121  11.455  0.00  0.00    -0.069 A 
ATOM     27  CAW E1B d          22.916 -30.492  13.781  0.00  0.00     0.071 A 
ATOM     28  CAI E1B d          22.928 -32.460  11.832  0.00  0.00    -0.066 A 
ATOM     29  H8  E1B d          23.215 -30.853  10.412  0.00  0.00     0.085 H 
ATOM     30  CAU E1B d          22.777 -32.839  13.182  0.00  0.00     0.043 A 
ATOM     31  H7  E1B d          22.924 -33.226  11.066  0.00  0.00     0.085 H 
ATOM     32  CAM E1B d          22.761 -31.856  14.169  0.00  0.00    -0.038 A 
ATOM     33  H10 E1B d          22.632 -32.122  15.211  0.00  0.00     0.088 H 
ATOM     34  NAP E1B d          22.907 -29.519  14.751  0.00  0.00    -0.228 NA
BRANCH  30  35
ATOM     35  CAR E1B d          22.599 -34.278  13.553  0.00  0.00     0.209 C 
ATOM     36  OAB E1B d          23.063 -34.508  14.700  0.00  0.00    -0.644 OA
ATOM     37  OAC E1B d          21.943 -34.871  12.661  0.00  0.00    -0.644 OA
ENDBRANCH  30  35
ENDBRANCH  14  16
ENDBRANCH  10  14
ENDBRANCH   2   4
TORSDOF 4
ENDMDL
MODEL 2
REMARK VINA RESULT:      -9.5      3.496      8.157
REMARK  4 active torsions:
REMARK  status: ('A' for Active; 'I' for Inactive)
REMARK    1  A    between atoms: CAS_21  and  CAD_10 
REMARK    2  A    between atoms: NAQ_19  and  CAT_22 
REMARK    3  A    between atoms: CAV_24  and  NAQ_19 
REMARK    4  A    between atoms: CAR_20  and  CAU_23 
ROOT
ATOM      1  CAA E1B d          23.364 -29.123  10.631  0.00  0.00    -0.149 C 
ATOM      2  CAD E1B d          23.151 -30.131  11.251  0.00  0.00    -0.078 C 
ATOM      3  H3  E1B d          23.551 -28.238  10.086  0.00  0.00     0.166 H 
ENDROOT
BRANCH   2   4
ATOM      4  CAS E1B d          22.887 -31.375  12.013  0.00  0.00     0.019 A 
ATOM      5  CAG E1B d          22.918 -32.627  11.420  0.00  0.00    -0.065 A 
ATOM      6  CAE E1B d          22.665 -33.754  12.183  0.00  0.00    -0.079 A 
ATOM      7  H5  E1B d          23.139 -32.722  10.362  0.00  0.00     0.085 H 
ATOM      8  CAH E1B d          22.367 -33.644  13.533  0.00  0.00    -0.057 A 
ATOM      9  H4  E1B d          22.701 -34.734  11.720  0.00  0.00     0.083 H 
ATOM     10  CAT E1B d          22.331 -32.386  14.103  0.00  0.00     0.035 A 
ATOM     11  H6  E1B d          22.166 -34.527  14.128  0.00  0.00     0.086 H 
ATOM     12  CAL E1B d          22.589 -31.258  13.349  0.00  0.00    -0.039 A 
ATOM     13  H9  E1B d          22.555 -30.279  13.813  0.00  0.00     0.089 H 
BRANCH  10  14
ATOM     14  NAQ E1B d          22.034 -32.136  15.457  0.00  0.00    -0.339 N 
ATOM     15  H11 E1B d          21.445 -32.915  15.781  0.00  0.00     0.167 HD
BRANCH  14  16
ATOM     16  CAV E1B d          22.203 -31.268  16.558  0.00  0.00     0.158 A 
ATOM     17  C4  E1B d          22.333 -31.688  17.921  0.00  0.00     0.116 A 
ATOM     18  N3  E1B d          22.331 -33.023  18.290  0.00  0.00    -0.237 NA
ATOM     19  C5  E1B d          22.457 -30.713  18.893  0.00  0.00     0.027 A 
ATOM     20  C2  E1B d          22.450 -33.380  19.582  0.00  0.00     0.087 A 
ATOM     21  N1  E1B d          22.569 -32.450  20.560  0.00  0.00    -0.253 NA
ATOM     22  H1  E1B d          22.451 -34.431  19.845  0.00  0.00     0.146 H 
ATOM     23  C6  E1B d          22.581 -31.129  20.255  0.00  0.00     0.017 A 
ATOM     24  H2  E1B d          22.685 -30.390  21.041  0.00  0.00     0.116 H 
ATOM     25  CAY E1B d          22.449 -29.299  18.463  0.00  0.00     0.007 A 
ATOM     26  CAJ E1B d          22.585 -28.256  19.424  0.00  0.00    -0.069 A 
ATOM     27  CAW E1B d          22.339 -28.970  17.129  0.00  0.00     0.071 A 
ATOM     28  CAI E1B d          22.580 -26.927  18.984  0.00  0.00    -0.066 A 
ATOM     29  H8  E1B d          22.691 -28.488  20.477  0.00  0.00     0.085 H 
ATOM     30  CAU E1B d          22.467 -26.597  17.618  0.00  0.00     0.043 A 
ATOM     31  H7  E1B d          22.665 -26.131  19.713  0.00  0.00     0.085 H 
ATOM     32  CAM E1B d          22.336 -27.617  16.678  0.00  0.00    -0.038 A 
ATOM     33  H10 E1B d          22.234 -27.387  15.624  0.00  0.00     0.088 H 
ATOM     34  NAP E1B d          22.216 -29.981  16.206  0.00  0.00    -0.228 NA
BRANCH  30  35
ATOM     35  CAR E1B d          22.449 -25.166  17.179  0.00  0.00     0.209 C 
ATOM     36  OAB E1B d          22.938 -25.043  16.026  0.00  0.00    -0.644 OA
ATOM     37  OAC E1B d          21.862 -24.464  18.039  0.00  0.00    -0.644 OA
ENDBRANCH  30  35
ENDBRANCH  14  16
ENDBRANCH  10  14
ENDBRANCH   2   4
TORSDOF 4
ENDMDL
MODEL 3
REMARK VINA RESULT:      -9.2      2.052      6.304
REMARK  4 active torsions:
REMARK  status: ('A' for Active; 'I' for Inactive)
REMARK    1  A    between atoms: CAS_21  and  CAD_10 
REMARK    2  A    between atoms: NAQ_19  and  CAT_22 
REMARK    3  A    between atoms: CAV_24  and  NAQ_19 
REMARK    4  A    between atoms: CAR_20  and  CAU_23 
ROOT
ATOM      1  CAA E1B d          22.636 -33.713  12.281  0.00  0.00    -0.149 C 
ATOM      2  CAD E1B d          22.664 -32.538  12.025  0.00  0.00    -0.078 C 
ATOM      3  H3  E1B d          22.610 -34.744  12.505  0.00  0.00     0.166 H 
ENDROOT
BRANCH   2   4
ATOM      4  CAS E1B d          22.701 -31.090  11.707  0.00  0.00     0.019 A 
ATOM      5  CAG E1B d          22.649 -30.618  10.405  0.00  0.00    -0.065 A 
ATOM      6  CAE E1B d          22.684 -29.254  10.169  0.00  0.00    -0.079 A 
ATOM      7  H5  E1B d          22.581 -31.313   9.576  0.00  0.00     0.085 H 
ATOM      8  CAH E1B d          22.786 -28.355  11.220  0.00  0.00    -0.057 A 
ATOM      9  H4  E1B d          22.632 -28.884   9.151  0.00  0.00     0.083 H 
ATOM     10  CAT E1B d          22.847 -28.847  12.510  0.00  0.00     0.035 A 
ATOM     11  H6  E1B d          22.818 -27.287  11.034  0.00  0.00     0.086 H 
ATOM     12  CAL E1B d          22.805 -30.205  12.753  0.00  0.00    -0.039 A 
ATOM     13  H9  E1B d          22.855 -30.575  13.771  0.00  0.00     0.089 H 
BRANCH  10  14
ATOM     14  NAQ E1B d          22.959 -28.045  13.662  0.00  0.00    -0.339 N 
ATOM     15  H11 E1B d          23.328 -27.134  13.355  0.00  0.00     0.167 HD
BRANCH  14  16
ATOM     16  CAV E1B d          22.780 -27.960  15.060  0.00  0.00     0.158 A 
ATOM     17  C4  E1B d          22.720 -26.740  15.808  0.00  0.00     0.116 A 
ATOM     18  N3  E1B d          22.810 -25.496  15.206  0.00  0.00    -0.237 NA
ATOM     19  C5  E1B d          22.574 -26.826  17.180  0.00  0.00     0.027 A 
ATOM     20  C2  E1B d          22.754 -24.371  15.942  0.00  0.00     0.087 A 
ATOM     21  N1  E1B d          22.616 -24.418  17.289  0.00  0.00    -0.253 NA
ATOM     22  H1  E1B d          22.822 -23.409  15.448  0.00  0.00     0.146 H 
ATOM     23  C6  E1B d          22.520 -25.610  17.929  0.00  0.00     0.017 A 
ATOM     24  H2  E1B d          22.402 -25.640  19.007  0.00  0.00     0.116 H 
ATOM     25  CAY E1B d          22.487 -28.169  17.787  0.00  0.00     0.007 A 
ATOM     26  CAJ E1B d          22.326 -28.312  19.195  0.00  0.00    -0.069 A 
ATOM     27  CAW E1B d          22.533 -29.301  17.001  0.00  0.00     0.071 A 
ATOM     28  CAI E1B d          22.242 -29.599  19.739  0.00  0.00    -0.066 A 
ATOM     29  H8  E1B d          22.269 -27.438  19.834  0.00  0.00     0.085 H 
ATOM     30  CAU E1B d          22.289 -30.752  18.930  0.00  0.00     0.043 A 
ATOM     31  H7  E1B d          22.136 -29.711  20.812  0.00  0.00     0.085 H 
ATOM     32  CAM E1B d          22.445 -30.614  17.552  0.00  0.00    -0.038 A 
ATOM     33  H10 E1B d          22.498 -31.486  16.912  0.00  0.00     0.088 H 
ATOM     34  NAP E1B d          22.682 -29.157  15.643  0.00  0.00    -0.228 NA
BRANCH  30  35
ATOM     35  CAR E1B d          22.211 -32.116  19.543  0.00  0.00     0.209 C 
ATOM     36  OAB E1B d          21.511 -32.887  18.837  0.00  0.00    -0.644 OA
ATOM     37  OAC E1B d          22.945 -32.169  20.560  0.00  0.00    -0.644 OA
ENDBRANCH  30  35
ENDBRANCH  14  16
ENDBRANCH  10  14
ENDBRANCH   2   4
TORSDOF 4
ENDMDL
MODEL 4
REMARK VINA RESULT:      -8.9      2.983      5.131
REMARK  4 active torsions:
REMARK  status: ('A' for Active; 'I' for Inactive)
REMARK    1  A    between atoms: CAS_21  and  CAD_10 
REMARK    2  A    between atoms: NAQ_19  and  CAT_22 
REMARK    3  A    between atoms: CAV_24  and  NAQ_19 
REMARK    4  A    between atoms: CAR_20  and  CAU_23 
ROOT
ATOM      1  CAA E1B d          22.249 -26.008  18.990  0.00  0.00    -0.149 C 
ATOM      2  CAD E1B d          22.315 -27.203  19.109  0.00  0.00    -0.078 C 
ATOM      3  H3  E1B d          22.191 -24.959  18.885  0.00  0.00     0.166 H 
ENDROOT
BRANCH   2   4
ATOM      4  CAS E1B d          22.393 -28.676  19.256  0.00  0.00     0.019 A 
ATOM      5  CAG E1B d          22.581 -29.289  20.484  0.00  0.00    -0.065 A 
ATOM      6  CAE E1B d          22.644 -30.670  20.560  0.00  0.00    -0.079 A 
ATOM      7  H5  E1B d          22.679 -28.689  21.382  0.00  0.00     0.085 H 
ATOM      8  CAH E1B d          22.535 -31.448  19.417  0.00  0.00    -0.057 A 
ATOM      9  H4  E1B d          22.780 -31.148  21.523  0.00  0.00     0.083 H 
ATOM     10  CAT E1B d          22.358 -30.817  18.201  0.00  0.00     0.035 A 
ATOM     11  H6  E1B d          22.588 -32.529  19.477  0.00  0.00     0.086 H 
ATOM     12  CAL E1B d          22.288 -29.441  18.119  0.00  0.00    -0.039 A 
ATOM     13  H9  E1B d          22.150 -28.962  17.156  0.00  0.00     0.089 H 
BRANCH  10  14
ATOM     14  NAQ E1B d          22.241 -31.488  16.967  0.00  0.00    -0.339 N 
ATOM     15  H11 E1B d          21.890 -32.434  17.176  0.00  0.00     0.167 HD
BRANCH  14  16
ATOM     16  CAV E1B d          22.401 -31.414  15.567  0.00  0.00     0.158 A 
ATOM     17  C4  E1B d          22.414 -32.539  14.681  0.00  0.00     0.116 A 
ATOM     18  N3  E1B d          22.240 -33.838  15.129  0.00  0.00    -0.237 NA
ATOM     19  C5  E1B d          22.616 -32.303  13.334  0.00  0.00     0.027 A 
ATOM     20  C2  E1B d          22.263 -34.871  14.267  0.00  0.00     0.087 A 
ATOM     21  N1  E1B d          22.462 -34.676  12.941  0.00  0.00    -0.253 NA
ATOM     22  H1  E1B d          22.120 -35.878  14.641  0.00  0.00     0.146 H 
ATOM     23  C6  E1B d          22.634 -33.425  12.448  0.00  0.00     0.017 A 
ATOM     24  H2  E1B d          22.786 -33.276  11.385  0.00  0.00     0.116 H 
ATOM     25  CAY E1B d          22.803 -30.906  12.893  0.00  0.00     0.007 A 
ATOM     26  CAJ E1B d          23.003 -30.608  11.515  0.00  0.00    -0.069 A 
ATOM     27  CAW E1B d          22.759 -29.870  13.802  0.00  0.00     0.071 A 
ATOM     28  CAI E1B d          23.172 -29.273  11.129  0.00  0.00    -0.066 A 
ATOM     29  H8  E1B d          23.024 -31.403  10.777  0.00  0.00     0.085 H 
ATOM     30  CAU E1B d          23.127 -28.218  12.063  0.00  0.00     0.043 A 
ATOM     31  H7  E1B d          23.342 -29.045  10.083  0.00  0.00     0.085 H 
ATOM     32  CAM E1B d          22.929 -28.509  13.411  0.00  0.00    -0.038 A 
ATOM     33  H10 E1B d          22.904 -27.715  14.149  0.00  0.00     0.088 H 
ATOM     34  NAP E1B d          22.558 -30.162  15.129  0.00  0.00    -0.228 NA
BRANCH  30  35
ATOM     35  CAR E1B d          23.325 -26.802  11.622  0.00  0.00     0.209 C 
ATOM     36  OAB E1B d          23.113 -26.001  12.569  0.00  0.00    -0.644 OA
ATOM     37  OAC E1B d          23.748 -26.778  10.440  0.00  0.00    -0.644 OA
ENDBRANCH  30  35
ENDBRANCH  14  16
ENDBRANCH  10  14
ENDBRANCH   2   4
TORSDOF 4
ENDMDL
MODEL 5
REMARK VINA RESULT:      -8.1      2.979      6.615
REMARK  4 active torsions:
REMARK  status: ('A' for Active; 'I' for Inactive)
REMARK    1  A    between atoms: CAS_21  and  CAD_10 
REMARK    2  A    between atoms: NAQ_19  and  CAT_22 
REMARK    3  A    between atoms: CAV_24  and  NAQ_19 
REMARK    4  A    between atoms: CAR_20  and  CAU_23 
ROOT
ATOM      1  CAA E1B d          23.159 -34.683  14.484  0.00  0.00    -0.149 C 
ATOM      2  CAD E1B d          23.061 -33.753  13.727  0.00  0.00    -0.078 C 
ATOM      3  H3  E1B d          23.245 -35.500  15.147  0.00  0.00     0.166 H 
ENDROOT
BRANCH   2   4
ATOM      4  CAS E1B d          22.942 -32.607  12.793  0.00  0.00     0.019 A 
ATOM      5  CAG E1B d          23.317 -32.697  11.463  0.00  0.00    -0.065 A 
ATOM      6  CAE E1B d          23.182 -31.594  10.636  0.00  0.00    -0.079 A 
ATOM      7  H5  E1B d          23.715 -33.626  11.070  0.00  0.00     0.085 H 
ATOM      8  CAH E1B d          22.688 -30.395  11.130  0.00  0.00    -0.057 A 
ATOM      9  H4  E1B d          23.465 -31.668   9.592  0.00  0.00     0.083 H 
ATOM     10  CAT E1B d          22.330 -30.324  12.462  0.00  0.00     0.035 A 
ATOM     11  H6  E1B d          22.586 -29.531  10.482  0.00  0.00     0.086 H 
ATOM     12  CAL E1B d          22.456 -31.422  13.290  0.00  0.00    -0.039 A 
ATOM     13  H9  E1B d          22.171 -31.349  14.333  0.00  0.00     0.089 H 
BRANCH  10  14
ATOM     14  NAQ E1B d          21.824 -29.168  13.088  0.00  0.00    -0.339 N 
ATOM     15  H11 E1B d          20.822 -29.119  12.855  0.00  0.00     0.167 HD
BRANCH  14  16
ATOM     16  CAV E1B d          22.108 -28.049  13.900  0.00  0.00     0.158 A 
ATOM     17  C4  E1B d          22.609 -26.795  13.422  0.00  0.00     0.116 A 
ATOM     18  N3  E1B d          22.843 -26.552  12.079  0.00  0.00    -0.237 NA
ATOM     19  C5  E1B d          22.871 -25.804  14.350  0.00  0.00     0.027 A 
ATOM     20  C2  E1B d          23.319 -25.363  11.667  0.00  0.00     0.087 A 
ATOM     21  N1  E1B d          23.590 -24.371  12.550  0.00  0.00    -0.253 NA
ATOM     22  H1  E1B d          23.489 -25.195  10.610  0.00  0.00     0.146 H 
ATOM     23  C6  E1B d          23.377 -24.553  13.876  0.00  0.00     0.017 A 
ATOM     24  H2  E1B d          23.589 -23.753  14.576  0.00  0.00     0.116 H 
ATOM     25  CAY E1B d          22.616 -26.100  15.774  0.00  0.00     0.007 A 
ATOM     26  CAJ E1B d          22.859 -25.110  16.768  0.00  0.00    -0.069 A 
ATOM     27  CAW E1B d          22.114 -27.325  16.158  0.00  0.00     0.071 A 
ATOM     28  CAI E1B d          22.602 -25.420  18.109  0.00  0.00    -0.066 A 
ATOM     29  H8  E1B d          23.237 -24.132  16.491  0.00  0.00     0.085 H 
ATOM     30  CAU E1B d          22.089 -26.675  18.496  0.00  0.00     0.043 A 
ATOM     31  H7  E1B d          22.802 -24.675  18.870  0.00  0.00     0.085 H 
ATOM     32  CAM E1B d          21.849 -27.643  17.523  0.00  0.00    -0.038 A 
ATOM     33  H10 E1B d          21.468 -28.620  17.799  0.00  0.00     0.088 H 
ATOM     34  NAP E1B d          21.875 -28.274  15.194  0.00  0.00    -0.228 NA
BRANCH  30  35
ATOM     35  CAR E1B d          21.837 -26.982  19.939  0.00  0.00     0.209 C 
ATOM     36  OAB E1B d          22.055 -28.197  20.185  0.00  0.00    -0.644 OA
ATOM     37  OAC E1B d          21.565 -25.925  20.559  0.00  0.00    -0.644 OA
ENDBRANCH  30  35
ENDBRANCH  14  16
ENDBRANCH  10  14
ENDBRANCH   2   4
TORSDOF 4
ENDMDL
MODEL 6
REMARK VINA RESULT:      -7.6      2.065      6.343
REMARK  4 active torsions:
REMARK  status: ('A' for Active; 'I' for Inactive)
REMARK    1  A    between atoms: CAS_21  and  CAD_10 
REMARK    2  A    between atoms: NAQ_19  and  CAT_22 
REMARK    3  A    between atoms: CAV_24  and  NAQ_19 
REMARK    4  A    between atoms: CAR_20  and  CAU_23 
ROOT
ATOM      1  CAA E1B d          22.896 -31.785  11.218  0.00  0.00    -0.149 C 
ATOM      2  CAD E1B d          22.776 -30.638  11.562  0.00  0.00    -0.078 C 
ATOM      3  H3  E1B d          23.003 -32.791  10.917  0.00  0.00     0.166 H 
ENDROOT
BRANCH   2   4
ATOM      4  CAS E1B d          22.625 -29.226  11.988  0.00  0.00     0.019 A 
ATOM      5  CAG E1B d          22.353 -28.208  11.089  0.00  0.00    -0.065 A 
ATOM      6  CAE E1B d          22.220 -26.907  11.546  0.00  0.00    -0.079 A 
ATOM      7  H5  E1B d          22.245 -28.428  10.033  0.00  0.00     0.085 H 
ATOM      8  CAH E1B d          22.371 -26.610  12.893  0.00  0.00    -0.057 A 
ATOM      9  H4  E1B d          21.996 -26.112  10.843  0.00  0.00     0.083 H 
ATOM     10  CAT E1B d          22.651 -27.639  13.771  0.00  0.00     0.035 A 
ATOM     11  H6  E1B d          22.270 -25.591  13.248  0.00  0.00     0.086 H 
ATOM     12  CAL E1B d          22.778 -28.939  13.323  0.00  0.00    -0.039 A 
ATOM     13  H9  E1B d          23.000 -29.734  14.026  0.00  0.00     0.089 H 
BRANCH  10  14
ATOM     14  NAQ E1B d          22.834 -27.472  15.157  0.00  0.00    -0.339 N 
ATOM     15  H11 E1B d          23.364 -26.598  15.284  0.00  0.00     0.167 HD
BRANCH  14  16
ATOM     16  CAV E1B d          22.600 -27.996  16.447  0.00  0.00     0.158 A 
ATOM     17  C4  E1B d          22.307 -27.213  17.610  0.00  0.00     0.116 A 
ATOM     18  N3  E1B d          22.200 -25.833  17.568  0.00  0.00    -0.237 NA
ATOM     19  C5  E1B d          22.136 -27.874  18.812  0.00  0.00     0.027 A 
ATOM     20  C2  E1B d          21.929 -25.130  18.683  0.00  0.00     0.087 A 
ATOM     21  N1  E1B d          21.759 -25.745  19.878  0.00  0.00    -0.253 NA
ATOM     22  H1  E1B d          21.844 -24.051  18.624  0.00  0.00     0.146 H 
ATOM     23  C6  E1B d          21.849 -27.094  19.976  0.00  0.00     0.017 A 
ATOM     24  H2  E1B d          21.705 -27.581  20.934  0.00  0.00     0.116 H 
ATOM     25  CAY E1B d          22.263 -29.345  18.820  0.00  0.00     0.007 A 
ATOM     26  CAJ E1B d          22.085 -30.075  20.031  0.00  0.00    -0.069 A 
ATOM     27  CAW E1B d          22.528 -30.035  17.657  0.00  0.00     0.071 A 
ATOM     28  CAI E1B d          22.207 -31.469  20.004  0.00  0.00    -0.066 A 
ATOM     29  H8  E1B d          21.859 -29.558  20.957  0.00  0.00     0.085 H 
ATOM     30  CAU E1B d          22.478 -32.169  18.811  0.00  0.00     0.043 A 
ATOM     31  H7  E1B d          22.090 -32.026  20.927  0.00  0.00     0.085 H 
ATOM     32  CAM E1B d          22.651 -31.456  17.626  0.00  0.00    -0.038 A 
ATOM     33  H10 E1B d          22.873 -31.971  16.699  0.00  0.00     0.088 H 
ATOM     34  NAP E1B d          22.692 -29.327  16.491  0.00  0.00    -0.228 NA
BRANCH  30  35
ATOM     35  CAR E1B d          22.617 -33.659  18.817  0.00  0.00     0.209 C 
ATOM     36  OAB E1B d          22.634 -34.105  19.993  0.00  0.00    -0.644 OA
ATOM     37  OAC E1B d          22.585 -34.095  17.640  0.00  0.00    -0.644 OA
ENDBRANCH  30  35
ENDBRANCH  14  16
ENDBRANCH  10  14
ENDBRANCH   2   4
TORSDOF 4
ENDMDL
MODEL 7
REMARK VINA RESULT:      -7.5      3.389      7.605
REMARK  4 active torsions:
REMARK  status: ('A' for Active; 'I' for Inactive)
REMARK    1  A    between atoms: CAS_21  and  CAD_10 
REMARK    2  A    between atoms: NAQ_19  and  CAT_22 
REMARK    3  A    between atoms: CAV_24  and  NAQ_19 
REMARK    4  A    between atoms: CAR_20  and  CAU_23 
ROOT
ATOM      1  CAA E1B d          23.458 -25.065  11.850  0.00  0.00    -0.149 C 
ATOM      2  CAD E1B d          23.325 -26.242  11.645  0.00  0.00    -0.078 C 
ATOM      3  H3  E1B d          23.575 -24.031  12.029  0.00  0.00     0.166 H 
ENDROOT
BRANCH   2   4
ATOM      4  CAS E1B d          23.160 -27.693  11.390  0.00  0.00     0.019 A 
ATOM      5  CAG E1B d          23.362 -28.251  10.138  0.00  0.00    -0.065 A 
ATOM      6  CAE E1B d          23.195 -29.614   9.959  0.00  0.00    -0.079 A 
ATOM      7  H5  E1B d          23.650 -27.624   9.302  0.00  0.00     0.085 H 
ATOM      8  CAH E1B d          22.813 -30.426  11.017  0.00  0.00    -0.057 A 
ATOM      9  H4  E1B d          23.365 -30.052   8.982  0.00  0.00     0.083 H 
ATOM     10  CAT E1B d          22.607 -29.848  12.255  0.00  0.00     0.035 A 
ATOM     11  H6  E1B d          22.680 -31.493  10.875  0.00  0.00     0.086 H 
ATOM     12  CAL E1B d          22.778 -28.491  12.441  0.00  0.00    -0.039 A 
ATOM     13  H9  E1B d          22.611 -28.054  13.419  0.00  0.00     0.089 H 
BRANCH  10  14
ATOM     14  NAQ E1B d          22.211 -30.557  13.406  0.00  0.00    -0.339 N 
ATOM     15  H11 E1B d          21.655 -31.361  13.084  0.00  0.00     0.167 HD
BRANCH  14  16
ATOM     16  CAV E1B d          22.254 -30.631  14.816  0.00  0.00     0.158 A 
ATOM     17  C4  E1B d          22.305 -31.845  15.573  0.00  0.00     0.116 A 
ATOM     18  N3  E1B d          22.343 -33.093  14.972  0.00  0.00    -0.237 NA
ATOM     19  C5  E1B d          22.307 -31.752  16.952  0.00  0.00     0.027 A 
ATOM     20  C2  E1B d          22.385 -34.213  15.716  0.00  0.00     0.087 A 
ATOM     21  N1  E1B d          22.385 -34.158  17.070  0.00  0.00    -0.253 NA
ATOM     22  H1  E1B d          22.420 -35.177  15.224  0.00  0.00     0.146 H 
ATOM     23  C6  E1B d          22.352 -32.963  17.710  0.00  0.00     0.017 A 
ATOM     24  H2  E1B d          22.360 -32.926  18.793  0.00  0.00     0.116 H 
ATOM     25  CAY E1B d          22.259 -30.405  17.557  0.00  0.00     0.007 A 
ATOM     26  CAJ E1B d          22.271 -30.254  18.973  0.00  0.00    -0.069 A 
ATOM     27  CAW E1B d          22.231 -29.278  16.764  0.00  0.00     0.071 A 
ATOM     28  CAI E1B d          22.230 -28.964  19.516  0.00  0.00    -0.066 A 
ATOM     29  H8  E1B d          22.310 -31.124  19.620  0.00  0.00     0.085 H 
ATOM     30  CAU E1B d          22.201 -27.815  18.700  0.00  0.00     0.043 A 
ATOM     31  H7  E1B d          22.220 -28.846  20.593  0.00  0.00     0.085 H 
ATOM     32  CAM E1B d          22.192 -27.963  17.314  0.00  0.00    -0.038 A 
ATOM     33  H10 E1B d          22.156 -27.094  16.667  0.00  0.00     0.088 H 
ATOM     34  NAP E1B d          22.227 -29.430  15.399  0.00  0.00    -0.228 NA
BRANCH  30  35
ATOM     35  CAR E1B d          22.143 -26.449  19.309  0.00  0.00     0.209 C 
ATOM     36  OAB E1B d          21.908 -25.576  18.435  0.00  0.00    -0.644 OA
ATOM     37  OAC E1B d          22.249 -26.535  20.557  0.00  0.00    -0.644 OA
ENDBRANCH  30  35
ENDBRANCH  14  16
ENDBRANCH  10  14
ENDBRANCH   2   4
TORSDOF 4
ENDMDL
