MODEL 1
REMARK VINA RESULT:      -8.7      0.000      0.000
REMARK  7 active torsions:
REMARK  status: ('A' for Active; 'I' for Inactive)
REMARK    1  A    between atoms: N1_1  and  S27_27 
REMARK    2  A    between atoms: C4_4  and  N7_7 
REMARK    3  A    between atoms: C11_11  and  C14_14 
REMARK    4  A    between atoms: C14_14  and  C16_16 
REMARK    5  A    between atoms: C21_21  and  O22_22 
REMARK    6  A    between atoms: O22_22  and  C23_23 
REMARK    7  A    between atoms: S27_27  and  C28_28 
ROOT
ATOM      1  N7  LIA d           2.593  29.125   6.275  0.00  0.00    -0.218 N 
ATOM      2  C8  LIA d           1.583  29.465   7.125  0.00  0.00     0.724 A 
ATOM      3  N9  LIA d           1.005  28.545   7.944  0.00  0.00    -0.074 NA
ATOM      4  C10 LIA d           0.053  28.899   8.752  0.00  0.00     0.038 A 
ATOM      5  C11 LIA d          -0.442  30.261   8.832  0.00  0.00     0.079 A 
ATOM      6  C12 LIA d           0.192  31.206   7.940  0.00  0.00     0.156 A 
ATOM      7  N13 LIA d           1.196  30.774   7.105  0.00  0.00    -0.045 NA
ATOM      8  N26 LIA d          -0.148  32.507   7.881  0.00  0.00    -0.383 N 
ATOM      9  H10 LIA d           2.837  29.687   5.447  0.00  0.00     0.178 HD
ATOM     10  H11 LIA d          -0.390  28.147   9.394  0.00  0.00     0.117 H 
ATOM     11  H17 LIA d           0.337  33.137   7.225  0.00  0.00     0.157 HD
ATOM     12  H18 LIA d          -0.893  32.873   8.490  0.00  0.00     0.157 HD
ENDROOT
BRANCH   1  13
ATOM     13  C4  LIA d           3.306  27.892   6.635  0.00  0.00     0.029 C 
ATOM     14  C3  LIA d           4.034  27.372   5.368  0.00  0.00    -0.034 C 
ATOM     15  C2  LIA d           4.929  26.161   5.710  0.00  0.00    -0.005 C 
ATOM     16  H3  LIA d           3.287  27.069   4.621  0.00  0.00     0.037 H 
ATOM     17  H4  LIA d           4.660  28.177   4.956  0.00  0.00     0.037 H 
ATOM     18  N1  LIA d           5.919  26.552   6.751  0.00  0.00    -0.211 NA
ATOM     19  H1  LIA d           4.303  25.340   6.089  0.00  0.00     0.057 H 
ATOM     20  H2  LIA d           5.459  25.831   4.805  0.00  0.00     0.057 H 
ATOM     21  C6  LIA d           5.224  26.904   8.025  0.00  0.00    -0.005 C 
ATOM     22  C5  LIA d           4.332  28.143   7.794  0.00  0.00    -0.034 C 
ATOM     23  H8  LIA d           5.970  27.128   8.801  0.00  0.00     0.057 H 
ATOM     24  H9  LIA d           4.600  26.058   8.349  0.00  0.00     0.057 H 
ATOM     25  H6  LIA d           3.781  28.366   8.720  0.00  0.00     0.037 H 
ATOM     26  H7  LIA d           4.969  29.000   7.531  0.00  0.00     0.037 H 
ATOM     27  H5  LIA d           2.577  27.139   6.969  0.00  0.00     0.073 H 
BRANCH  18  28
ATOM     28  S27 LIA d           7.054  25.315   6.997  0.00  0.00     0.207 S 
ATOM     29  O29 LIA d           7.692  25.549   8.273  0.00  0.00    -0.212 OA
ATOM     30  O30 LIA d           8.038  25.373   5.951  0.00  0.00    -0.212 OA
BRANCH  28  31
ATOM     31  C28 LIA d           6.287  23.656   7.027  0.00  0.00     0.028 C 
ATOM     32  H19 LIA d           6.953  22.953   7.548  0.00  0.00     0.050 H 
ATOM     33  H20 LIA d           6.124  23.309   5.995  0.00  0.00     0.050 H 
ATOM     34  H21 LIA d           5.323  23.707   7.554  0.00  0.00     0.050 H 
ENDBRANCH  28  31
ENDBRANCH  18  28
ENDBRANCH   1  13
BRANCH   5  35
ATOM     35  C14 LIA d          -1.502  30.595   9.772  0.00  0.00     0.203 C 
ATOM     36  O15 LIA d          -1.627  31.755  10.200  0.00  0.00    -0.286 OA
BRANCH  35  37
ATOM     37  C16 LIA d          -2.420  29.587  10.253  0.00  0.00     0.090 A 
ATOM     38  C17 LIA d          -1.998  28.684  11.293  0.00  0.00     0.171 A 
ATOM     39  C18 LIA d          -2.892  27.686  11.793  0.00  0.00     0.156 A 
ATOM     40  F24 LIA d          -0.773  28.760  11.805  0.00  0.00    -0.202 F 
ATOM     41  C19 LIA d          -4.214  27.570  11.271  0.00  0.00    -0.040 A 
ATOM     42  F25 LIA d          -2.497  26.864  12.746  0.00  0.00    -0.203 F 
ATOM     43  C20 LIA d          -4.655  28.447  10.241  0.00  0.00    -0.047 A 
ATOM     44  H12 LIA d          -4.884  26.812  11.661  0.00  0.00     0.088 H 
ATOM     45  C21 LIA d          -3.777  29.469   9.710  0.00  0.00     0.085 A 
ATOM     46  H13 LIA d          -5.661  28.348   9.849  0.00  0.00     0.087 H 
BRANCH  45  47
ATOM     47  O22 LIA d          -4.174  30.356   8.684  0.00  0.00    -0.355 OA
BRANCH  47  48
ATOM     48  C23 LIA d          -4.233  29.728   7.378  0.00  0.00     0.010 C 
ATOM     49  H14 LIA d          -3.709  28.762   7.412  0.00  0.00     0.066 H 
ATOM     50  H15 LIA d          -3.751  30.381   6.636  0.00  0.00     0.066 H 
ATOM     51  H16 LIA d          -5.284  29.567   7.097  0.00  0.00     0.066 H 
ENDBRANCH  47  48
ENDBRANCH  45  47
ENDBRANCH  35  37
ENDBRANCH   5  35
TORSDOF 7
ENDMDL
MODEL 2
REMARK VINA RESULT:      -7.1      2.538      3.677
REMARK  7 active torsions:
REMARK  status: ('A' for Active; 'I' for Inactive)
REMARK    1  A    between atoms: N1_1  and  S27_27 
REMARK    2  A    between atoms: C4_4  and  N7_7 
REMARK    3  A    between atoms: C11_11  and  C14_14 
REMARK    4  A    between atoms: C14_14  and  C16_16 
REMARK    5  A    between atoms: C21_21  and  O22_22 
REMARK    6  A    between atoms: O22_22  and  C23_23 
REMARK    7  A    between atoms: S27_27  and  C28_28 
ROOT
ATOM      1  N7  LIA d           3.896  26.622   9.389  0.00  0.00    -0.218 N 
ATOM      2  C8  LIA d           2.602  27.044   9.487  0.00  0.00     0.724 A 
ATOM      3  N9  LIA d           1.863  27.326   8.380  0.00  0.00    -0.074 NA
ATOM      4  C10 LIA d           0.631  27.713   8.502  0.00  0.00     0.038 A 
ATOM      5  C11 LIA d          -0.021  27.867   9.789  0.00  0.00     0.079 A 
ATOM      6  C12 LIA d           0.801  27.566  10.940  0.00  0.00     0.156 A 
ATOM      7  N13 LIA d           2.101  27.159  10.751  0.00  0.00    -0.045 NA
ATOM      8  N26 LIA d           0.358  27.660  12.208  0.00  0.00    -0.383 N 
ATOM      9  H10 LIA d           4.566  26.697  10.168  0.00  0.00     0.178 HD
ATOM     10  H11 LIA d           0.063  27.932   7.604  0.00  0.00     0.117 H 
ATOM     11  H17 LIA d           0.988  27.433  12.992  0.00  0.00     0.157 HD
ATOM     12  H18 LIA d          -0.610  27.958  12.395  0.00  0.00     0.157 HD
ENDROOT
BRANCH   1  13
ATOM     13  C4  LIA d           4.257  26.053   8.084  0.00  0.00     0.029 C 
ATOM     14  C3  LIA d           5.677  26.555   7.718  0.00  0.00    -0.034 C 
ATOM     15  C2  LIA d           6.183  25.875   6.429  0.00  0.00    -0.005 C 
ATOM     16  H3  LIA d           5.646  27.644   7.563  0.00  0.00     0.037 H 
ATOM     17  H4  LIA d           6.366  26.322   8.543  0.00  0.00     0.037 H 
ATOM     18  N1  LIA d           6.190  24.397   6.616  0.00  0.00    -0.211 NA
ATOM     19  H1  LIA d           5.518  26.134   5.592  0.00  0.00     0.057 H 
ATOM     20  H2  LIA d           7.203  26.221   6.207  0.00  0.00     0.057 H 
ATOM     21  C6  LIA d           4.799  23.890   6.813  0.00  0.00    -0.005 C 
ATOM     22  C5  LIA d           4.219  24.486   8.114  0.00  0.00    -0.034 C 
ATOM     23  H8  LIA d           4.814  22.793   6.886  0.00  0.00     0.057 H 
ATOM     24  H9  LIA d           4.173  24.193   5.960  0.00  0.00     0.057 H 
ATOM     25  H6  LIA d           3.176  24.153   8.228  0.00  0.00     0.037 H 
ATOM     26  H7  LIA d           4.813  24.128   8.968  0.00  0.00     0.037 H 
ATOM     27  H5  LIA d           3.540  26.406   7.327  0.00  0.00     0.073 H 
BRANCH  18  28
ATOM     28  S27 LIA d           6.940  23.627   5.302  0.00  0.00     0.207 S 
ATOM     29  O29 LIA d           5.948  22.800   4.652  0.00  0.00    -0.212 OA
ATOM     30  O30 LIA d           8.006  22.799   5.796  0.00  0.00    -0.212 OA
BRANCH  28  31
ATOM     31  C28 LIA d           7.599  24.814   4.079  0.00  0.00     0.028 C 
ATOM     32  H19 LIA d           6.789  25.470   3.730  0.00  0.00     0.050 H 
ATOM     33  H20 LIA d           8.019  24.263   3.223  0.00  0.00     0.050 H 
ATOM     34  H21 LIA d           8.388  25.422   4.546  0.00  0.00     0.050 H 
ENDBRANCH  28  31
ENDBRANCH  18  28
ENDBRANCH   1  13
BRANCH   5  35
ATOM     35  C14 LIA d          -1.411  28.290   9.855  0.00  0.00     0.203 C 
ATOM     36  O15 LIA d          -2.332  27.472   9.684  0.00  0.00    -0.286 OA
BRANCH  35  37
ATOM     37  C16 LIA d          -1.762  29.672  10.094  0.00  0.00     0.090 A 
ATOM     38  C17 LIA d          -2.858  29.981  10.976  0.00  0.00     0.171 A 
ATOM     39  C18 LIA d          -3.217  31.341  11.236  0.00  0.00     0.156 A 
ATOM     40  F24 LIA d          -3.556  29.012  11.561  0.00  0.00    -0.202 F 
ATOM     41  C19 LIA d          -2.496  32.411  10.630  0.00  0.00    -0.040 A 
ATOM     42  F25 LIA d          -4.222  31.615  12.047  0.00  0.00    -0.203 F 
ATOM     43  C20 LIA d          -1.411  32.133   9.751  0.00  0.00    -0.047 A 
ATOM     44  H12 LIA d          -2.774  33.438  10.838  0.00  0.00     0.088 H 
ATOM     45  C21 LIA d          -1.020  30.768   9.463  0.00  0.00     0.085 A 
ATOM     46  H13 LIA d          -0.871  32.954   9.292  0.00  0.00     0.087 H 
BRANCH  45  47
ATOM     47  O22 LIA d           0.047  30.450   8.593  0.00  0.00    -0.355 OA
BRANCH  47  48
ATOM     48  C23 LIA d           0.362  31.515   7.662  0.00  0.00     0.010 C 
ATOM     49  H14 LIA d           0.776  31.084   6.738  0.00  0.00     0.066 H 
ATOM     50  H15 LIA d           1.103  32.191   8.114  0.00  0.00     0.066 H 
ATOM     51  H16 LIA d          -0.553  32.078   7.427  0.00  0.00     0.066 H 
ENDBRANCH  47  48
ENDBRANCH  45  47
ENDBRANCH  35  37
ENDBRANCH   5  35
TORSDOF 7
ENDMDL
MODEL 3
REMARK VINA RESULT:      -7.1      1.857      2.395
REMARK  7 active torsions:
REMARK  status: ('A' for Active; 'I' for Inactive)
REMARK    1  A    between atoms: N1_1  and  S27_27 
REMARK    2  A    between atoms: C4_4  and  N7_7 
REMARK    3  A    between atoms: C11_11  and  C14_14 
REMARK    4  A    between atoms: C14_14  and  C16_16 
REMARK    5  A    between atoms: C21_21  and  O22_22 
REMARK    6  A    between atoms: O22_22  and  C23_23 
REMARK    7  A    between atoms: S27_27  and  C28_28 
ROOT
ATOM      1  N7  LIA d           2.338  28.764   6.479  0.00  0.00    -0.218 N 
ATOM      2  C8  LIA d           1.736  28.630   7.696  0.00  0.00     0.724 A 
ATOM      3  N9  LIA d           2.055  27.608   8.536  0.00  0.00    -0.074 NA
ATOM      4  C10 LIA d           1.476  27.512   9.693  0.00  0.00     0.038 A 
ATOM      5  C11 LIA d           0.478  28.460  10.153  0.00  0.00     0.079 A 
ATOM      6  C12 LIA d           0.161  29.525   9.227  0.00  0.00     0.156 A 
ATOM      7  N13 LIA d           0.807  29.578   8.014  0.00  0.00    -0.045 NA
ATOM      8  N26 LIA d          -0.744  30.487   9.491  0.00  0.00    -0.383 N 
ATOM      9  H10 LIA d           1.923  29.310   5.710  0.00  0.00     0.178 HD
ATOM     10  H11 LIA d           1.748  26.689  10.343  0.00  0.00     0.117 H 
ATOM     11  H17 LIA d          -0.931  31.223   8.794  0.00  0.00     0.157 HD
ATOM     12  H18 LIA d          -1.249  30.487  10.388  0.00  0.00     0.157 HD
ENDROOT
BRANCH   1  13
ATOM     13  C4  LIA d           3.624  28.066   6.353  0.00  0.00     0.029 C 
ATOM     14  C3  LIA d           4.351  28.150   7.720  0.00  0.00    -0.034 C 
ATOM     15  C2  LIA d           5.643  27.306   7.706  0.00  0.00    -0.005 C 
ATOM     16  H3  LIA d           4.607  29.199   7.928  0.00  0.00     0.037 H 
ATOM     17  H4  LIA d           3.682  27.772   8.507  0.00  0.00     0.037 H 
ATOM     18  N1  LIA d           5.309  25.890   7.384  0.00  0.00    -0.211 NA
ATOM     19  H1  LIA d           6.331  27.702   6.944  0.00  0.00     0.057 H 
ATOM     20  H2  LIA d           6.123  27.354   8.694  0.00  0.00     0.057 H 
ATOM     21  C6  LIA d           4.752  25.788   6.002  0.00  0.00    -0.005 C 
ATOM     22  C5  LIA d           3.423  26.570   5.928  0.00  0.00    -0.034 C 
ATOM     23  H8  LIA d           4.571  24.731   5.756  0.00  0.00     0.057 H 
ATOM     24  H9  LIA d           5.469  26.213   5.284  0.00  0.00     0.057 H 
ATOM     25  H6  LIA d           3.044  26.536   4.896  0.00  0.00     0.037 H 
ATOM     26  H7  LIA d           2.692  26.100   6.603  0.00  0.00     0.037 H 
ATOM     27  H5  LIA d           4.233  28.569   5.587  0.00  0.00     0.073 H 
BRANCH  18  28
ATOM     28  S27 LIA d           6.671  24.894   7.569  0.00  0.00     0.207 S 
ATOM     29  O29 LIA d           7.598  25.575   8.445  0.00  0.00    -0.212 OA
ATOM     30  O30 LIA d           7.281  24.698   6.282  0.00  0.00    -0.212 OA
BRANCH  28  31
ATOM     31  C28 LIA d           6.258  23.273   8.306  0.00  0.00     0.028 C 
ATOM     32  H19 LIA d           7.140  22.872   8.828  0.00  0.00     0.050 H 
ATOM     33  H20 LIA d           5.955  22.576   7.512  0.00  0.00     0.050 H 
ATOM     34  H21 LIA d           5.433  23.395   9.023  0.00  0.00     0.050 H 
ENDBRANCH  28  31
ENDBRANCH  18  28
ENDBRANCH   1  13
BRANCH   5  35
ATOM     35  C14 LIA d          -0.122  28.304  11.469  0.00  0.00     0.203 C 
ATOM     36  O15 LIA d           0.256  29.002  12.425  0.00  0.00    -0.286 OA
BRANCH  35  37
ATOM     37  C16 LIA d          -1.153  27.319  11.709  0.00  0.00     0.090 A 
ATOM     38  C17 LIA d          -0.784  26.009  12.179  0.00  0.00     0.171 A 
ATOM     39  C18 LIA d          -1.787  25.022  12.433  0.00  0.00     0.156 A 
ATOM     40  F24 LIA d           0.491  25.692  12.383  0.00  0.00    -0.202 F 
ATOM     41  C19 LIA d          -3.166  25.318  12.227  0.00  0.00    -0.040 A 
ATOM     42  F25 LIA d          -1.440  23.824  12.865  0.00  0.00    -0.203 F 
ATOM     43  C20 LIA d          -3.558  26.604  11.759  0.00  0.00    -0.047 A 
ATOM     44  H12 LIA d          -3.918  24.563  12.428  0.00  0.00     0.088 H 
ATOM     45  C21 LIA d          -2.570  27.629  11.490  0.00  0.00     0.085 A 
ATOM     46  H13 LIA d          -4.609  26.819  11.603  0.00  0.00     0.087 H 
BRANCH  45  47
ATOM     47  O22 LIA d          -2.916  28.916  11.020  0.00  0.00    -0.355 OA
BRANCH  47  48
ATOM     48  C23 LIA d          -4.085  28.915  10.163  0.00  0.00     0.010 C 
ATOM     49  H14 LIA d          -4.769  28.113  10.477  0.00  0.00     0.066 H 
ATOM     50  H15 LIA d          -3.776  28.746   9.121  0.00  0.00     0.066 H 
ATOM     51  H16 LIA d          -4.597  29.885  10.241  0.00  0.00     0.066 H 
ENDBRANCH  47  48
ENDBRANCH  45  47
ENDBRANCH  35  37
ENDBRANCH   5  35
TORSDOF 7
ENDMDL
MODEL 4
REMARK VINA RESULT:      -7.0      2.757      3.833
REMARK  7 active torsions:
REMARK  status: ('A' for Active; 'I' for Inactive)
REMARK    1  A    between atoms: N1_1  and  S27_27 
REMARK    2  A    between atoms: C4_4  and  N7_7 
REMARK    3  A    between atoms: C11_11  and  C14_14 
REMARK    4  A    between atoms: C14_14  and  C16_16 
REMARK    5  A    between atoms: C21_21  and  O22_22 
REMARK    6  A    between atoms: O22_22  and  C23_23 
REMARK    7  A    between atoms: S27_27  and  C28_28 
ROOT
ATOM      1  N7  LIA d           3.892  26.389   9.322  0.00  0.00    -0.218 N 
ATOM      2  C8  LIA d           2.624  26.884   9.394  0.00  0.00     0.724 A 
ATOM      3  N9  LIA d           1.932  27.230   8.274  0.00  0.00    -0.074 NA
ATOM      4  C10 LIA d           0.722  27.687   8.371  0.00  0.00     0.038 A 
ATOM      5  C11 LIA d           0.046  27.857   9.645  0.00  0.00     0.079 A 
ATOM      6  C12 LIA d           0.818  27.488  10.811  0.00  0.00     0.156 A 
ATOM      7  N13 LIA d           2.097  27.007  10.647  0.00  0.00    -0.045 NA
ATOM      8  N26 LIA d           0.348  27.586  12.068  0.00  0.00    -0.383 N 
ATOM      9  H10 LIA d           4.544  26.410  10.119  0.00  0.00     0.178 HD
ATOM     10  H11 LIA d           0.193  27.954   7.464  0.00  0.00     0.117 H 
ATOM     11  H17 LIA d           0.942  27.309  12.863  0.00  0.00     0.157 HD
ATOM     12  H18 LIA d          -0.605  27.938  12.235  0.00  0.00     0.157 HD
ENDROOT
BRANCH   1  13
ATOM     13  C4  LIA d           4.253  25.822   8.015  0.00  0.00     0.029 C 
ATOM     14  C3  LIA d           5.578  26.483   7.556  0.00  0.00    -0.034 C 
ATOM     15  C2  LIA d           6.098  25.824   6.260  0.00  0.00    -0.005 C 
ATOM     16  H3  LIA d           5.402  27.553   7.371  0.00  0.00     0.037 H 
ATOM     17  H4  LIA d           6.333  26.367   8.347  0.00  0.00     0.037 H 
ATOM     18  N1  LIA d           6.301  24.367   6.491  0.00  0.00    -0.211 NA
ATOM     19  H1  LIA d           5.363  25.969   5.455  0.00  0.00     0.057 H 
ATOM     20  H2  LIA d           7.053  26.286   5.972  0.00  0.00     0.057 H 
ATOM     21  C6  LIA d           4.997  23.699   6.780  0.00  0.00    -0.005 C 
ATOM     22  C5  LIA d           4.415  24.264   8.094  0.00  0.00    -0.034 C 
ATOM     23  H8  LIA d           5.155  22.615   6.885  0.00  0.00     0.057 H 
ATOM     24  H9  LIA d           4.295  23.890   5.956  0.00  0.00     0.057 H 
ATOM     25  H6  LIA d           3.431  23.809   8.275  0.00  0.00     0.037 H 
ATOM     26  H7  LIA d           5.094  24.015   8.924  0.00  0.00     0.037 H 
ATOM     27  H5  LIA d           3.460  26.056   7.290  0.00  0.00     0.073 H 
BRANCH  18  28
ATOM     28  S27 LIA d           7.072  23.649   5.160  0.00  0.00     0.207 S 
ATOM     29  O29 LIA d           6.091  22.852   4.459  0.00  0.00    -0.212 OA
ATOM     30  O30 LIA d           8.129  22.799   5.638  0.00  0.00    -0.212 OA
BRANCH  28  31
ATOM     31  C28 LIA d           7.756  24.883   3.997  0.00  0.00     0.028 C 
ATOM     32  H19 LIA d           8.418  25.573   4.541  0.00  0.00     0.050 H 
ATOM     33  H20 LIA d           6.932  25.450   3.539  0.00  0.00     0.050 H 
ATOM     34  H21 LIA d           8.328  24.368   3.212  0.00  0.00     0.050 H 
ENDBRANCH  28  31
ENDBRANCH  18  28
ENDBRANCH   1  13
BRANCH   5  35
ATOM     35  C14 LIA d          -1.318  28.361   9.683  0.00  0.00     0.203 C 
ATOM     36  O15 LIA d          -2.280  27.604   9.464  0.00  0.00    -0.286 OA
BRANCH  35  37
ATOM     37  C16 LIA d          -1.593  29.755   9.950  0.00  0.00     0.090 A 
ATOM     38  C17 LIA d          -0.844  30.770   9.255  0.00  0.00     0.171 A 
ATOM     39  C18 LIA d          -1.106  32.155   9.495  0.00  0.00     0.156 A 
ATOM     40  F24 LIA d           0.103  30.439   8.382  0.00  0.00    -0.202 F 
ATOM     41  C19 LIA d          -2.112  32.553  10.423  0.00  0.00    -0.040 A 
ATOM     42  F25 LIA d          -0.415  33.078   8.853  0.00  0.00    -0.203 F 
ATOM     43  C20 LIA d          -2.865  31.571  11.126  0.00  0.00    -0.047 A 
ATOM     44  H12 LIA d          -2.305  33.606  10.593  0.00  0.00     0.088 H 
ATOM     45  C21 LIA d          -2.627  30.158  10.910  0.00  0.00     0.085 A 
ATOM     46  H13 LIA d          -3.625  31.884  11.832  0.00  0.00     0.087 H 
BRANCH  45  47
ATOM     47  O22 LIA d          -3.347  29.151  11.590  0.00  0.00    -0.355 OA
BRANCH  47  48
ATOM     48  C23 LIA d          -4.612  28.830  10.959  0.00  0.00     0.010 C 
ATOM     49  H14 LIA d          -4.662  29.309   9.971  0.00  0.00     0.066 H 
ATOM     50  H15 LIA d          -5.439  29.197  11.585  0.00  0.00     0.066 H 
ATOM     51  H16 LIA d          -4.697  27.739  10.843  0.00  0.00     0.066 H 
ENDBRANCH  47  48
ENDBRANCH  45  47
ENDBRANCH  35  37
ENDBRANCH   5  35
TORSDOF 7
ENDMDL
MODEL 5
REMARK VINA RESULT:      -6.8      4.370      8.829
REMARK  7 active torsions:
REMARK  status: ('A' for Active; 'I' for Inactive)
REMARK    1  A    between atoms: N1_1  and  S27_27 
REMARK    2  A    between atoms: C4_4  and  N7_7 
REMARK    3  A    between atoms: C11_11  and  C14_14 
REMARK    4  A    between atoms: C14_14  and  C16_16 
REMARK    5  A    between atoms: C21_21  and  O22_22 
REMARK    6  A    between atoms: O22_22  and  C23_23 
REMARK    7  A    between atoms: S27_27  and  C28_28 
ROOT
ATOM      1  N7  LIA d           0.250  28.483   9.617  0.00  0.00    -0.218 N 
ATOM      2  C8  LIA d           1.294  28.095   8.830  0.00  0.00     0.724 A 
ATOM      3  N9  LIA d           2.067  27.024   9.155  0.00  0.00    -0.074 NA
ATOM      4  C10 LIA d           3.047  26.670   8.381  0.00  0.00     0.038 A 
ATOM      5  C11 LIA d           3.373  27.373   7.155  0.00  0.00     0.079 A 
ATOM      6  C12 LIA d           2.534  28.511   6.851  0.00  0.00     0.156 A 
ATOM      7  N13 LIA d           1.509  28.840   7.707  0.00  0.00    -0.045 NA
ATOM      8  N26 LIA d           2.699  29.278   5.757  0.00  0.00    -0.383 N 
ATOM      9  H10 LIA d          -0.150  29.432   9.584  0.00  0.00     0.178 HD
ATOM     10  H11 LIA d           3.647  25.812   8.663  0.00  0.00     0.117 H 
ATOM     11  H17 LIA d           2.072  30.078   5.589  0.00  0.00     0.157 HD
ATOM     12  H18 LIA d           3.453  29.065   5.088  0.00  0.00     0.157 HD
ENDROOT
BRANCH   1  13
ATOM     13  C4  LIA d          -0.260  27.438  10.515  0.00  0.00     0.029 C 
ATOM     14  C3  LIA d          -1.517  27.994  11.233  0.00  0.00    -0.034 C 
ATOM     15  C2  LIA d          -2.195  26.896  12.080  0.00  0.00    -0.005 C 
ATOM     16  H3  LIA d          -1.219  28.825  11.890  0.00  0.00     0.037 H 
ATOM     17  H4  LIA d          -2.230  28.360  10.480  0.00  0.00     0.037 H 
ATOM     18  N1  LIA d          -2.565  25.750  11.203  0.00  0.00    -0.211 NA
ATOM     19  H1  LIA d          -1.498  26.552  12.858  0.00  0.00     0.057 H 
ATOM     20  H2  LIA d          -3.100  27.304  12.552  0.00  0.00     0.057 H 
ATOM     21  C6  LIA d          -1.340  25.113  10.633  0.00  0.00    -0.005 C 
ATOM     22  C5  LIA d          -0.612  26.129   9.727  0.00  0.00    -0.034 C 
ATOM     23  H8  LIA d          -1.625  24.232  10.041  0.00  0.00     0.057 H 
ATOM     24  H9  LIA d          -0.671  24.805  11.451  0.00  0.00     0.057 H 
ATOM     25  H6  LIA d           0.317  25.674   9.353  0.00  0.00     0.037 H 
ATOM     26  H7  LIA d          -1.263  26.385   8.878  0.00  0.00     0.037 H 
ATOM     27  H5  LIA d           0.510  27.201  11.264  0.00  0.00     0.073 H 
BRANCH  18  28
ATOM     28  S27 LIA d          -3.501  24.619  12.055  0.00  0.00     0.207 S 
ATOM     29  O29 LIA d          -4.307  23.901  11.093  0.00  0.00    -0.212 OA
ATOM     30  O30 LIA d          -4.358  25.322  12.971  0.00  0.00    -0.212 OA
BRANCH  28  31
ATOM     31  C28 LIA d          -2.479  23.413  12.972  0.00  0.00     0.028 C 
ATOM     32  H19 LIA d          -2.844  23.334  14.006  0.00  0.00     0.050 H 
ATOM     33  H20 LIA d          -1.432  23.749  12.978  0.00  0.00     0.050 H 
ATOM     34  H21 LIA d          -2.546  22.429  12.484  0.00  0.00     0.050 H 
ENDBRANCH  28  31
ENDBRANCH  18  28
ENDBRANCH   1  13
BRANCH   5  35
ATOM     35  C14 LIA d           4.476  26.914   6.324  0.00  0.00     0.203 C 
ATOM     36  O15 LIA d           4.902  27.617   5.392  0.00  0.00    -0.286 OA
BRANCH  35  37
ATOM     37  C16 LIA d           5.089  25.623   6.542  0.00  0.00     0.090 A 
ATOM     38  C17 LIA d           5.997  25.448   7.646  0.00  0.00     0.171 A 
ATOM     39  C18 LIA d           6.607  24.178   7.888  0.00  0.00     0.156 A 
ATOM     40  F24 LIA d           6.285  26.462   8.458  0.00  0.00    -0.202 F 
ATOM     41  C19 LIA d           6.326  23.065   7.042  0.00  0.00    -0.040 A 
ATOM     42  F25 LIA d           7.437  24.027   8.903  0.00  0.00    -0.203 F 
ATOM     43  C20 LIA d           5.436  23.211   5.942  0.00  0.00    -0.047 A 
ATOM     44  H12 LIA d           6.791  22.106   7.238  0.00  0.00     0.088 H 
ATOM     45  C21 LIA d           4.799  24.483   5.665  0.00  0.00     0.085 A 
ATOM     46  H13 LIA d           5.231  22.360   5.303  0.00  0.00     0.087 H 
BRANCH  45  47
ATOM     47  O22 LIA d           3.914  24.672   4.581  0.00  0.00    -0.355 OA
BRANCH  47  48
ATOM     48  C23 LIA d           3.484  23.429   3.972  0.00  0.00     0.010 C 
ATOM     49  H14 LIA d           2.756  23.642   3.176  0.00  0.00     0.066 H 
ATOM     50  H15 LIA d           3.016  22.789   4.735  0.00  0.00     0.066 H 
ATOM     51  H16 LIA d           4.354  22.911   3.544  0.00  0.00     0.066 H 
ENDBRANCH  47  48
ENDBRANCH  45  47
ENDBRANCH  35  37
ENDBRANCH   5  35
TORSDOF 7
ENDMDL
MODEL 6
REMARK VINA RESULT:      -6.5      4.003      8.851
REMARK  7 active torsions:
REMARK  status: ('A' for Active; 'I' for Inactive)
REMARK    1  A    between atoms: N1_1  and  S27_27 
REMARK    2  A    between atoms: C4_4  and  N7_7 
REMARK    3  A    between atoms: C11_11  and  C14_14 
REMARK    4  A    between atoms: C14_14  and  C16_16 
REMARK    5  A    between atoms: C21_21  and  O22_22 
REMARK    6  A    between atoms: O22_22  and  C23_23 
REMARK    7  A    between atoms: S27_27  and  C28_28 
ROOT
ATOM      1  N7  LIA d          -0.549  25.834  12.308  0.00  0.00    -0.218 N 
ATOM      2  C8  LIA d           0.454  25.484  11.453  0.00  0.00     0.724 A 
ATOM      3  N9  LIA d           0.522  25.992  10.192  0.00  0.00    -0.074 NA
ATOM      4  C10 LIA d           1.495  25.651   9.405  0.00  0.00     0.038 A 
ATOM      5  C11 LIA d           2.543  24.732   9.804  0.00  0.00     0.079 A 
ATOM      6  C12 LIA d           2.430  24.207  11.147  0.00  0.00     0.156 A 
ATOM      7  N13 LIA d           1.378  24.604  11.939  0.00  0.00    -0.045 NA
ATOM      8  N26 LIA d           3.313  23.340  11.677  0.00  0.00    -0.383 N 
ATOM      9  H10 LIA d          -0.811  25.261  13.123  0.00  0.00     0.178 HD
ATOM     10  H11 LIA d           1.525  26.071   8.406  0.00  0.00     0.117 H 
ATOM     11  H17 LIA d           3.184  22.998  12.641  0.00  0.00     0.157 HD
ATOM     12  H18 LIA d           4.118  23.019  11.120  0.00  0.00     0.157 HD
ENDROOT
BRANCH   1  13
ATOM     13  C4  LIA d          -1.227  27.094  11.972  0.00  0.00     0.029 C 
ATOM     14  C3  LIA d          -0.164  28.222  11.964  0.00  0.00    -0.034 C 
ATOM     15  C2  LIA d          -0.778  29.549  11.469  0.00  0.00    -0.005 C 
ATOM     16  H3  LIA d           0.223  28.361  12.984  0.00  0.00     0.037 H 
ATOM     17  H4  LIA d           0.661  27.935  11.296  0.00  0.00     0.037 H 
ATOM     18  N1  LIA d          -1.339  29.358  10.103  0.00  0.00    -0.211 NA
ATOM     19  H1  LIA d          -1.580  29.859  12.155  0.00  0.00     0.057 H 
ATOM     20  H2  LIA d           0.001  30.325  11.441  0.00  0.00     0.057 H 
ATOM     21  C6  LIA d          -2.472  28.385  10.137  0.00  0.00    -0.005 C 
ATOM     22  C5  LIA d          -1.943  27.004  10.580  0.00  0.00    -0.034 C 
ATOM     23  H8  LIA d          -2.916  28.303   9.134  0.00  0.00     0.057 H 
ATOM     24  H9  LIA d          -3.234  28.732  10.849  0.00  0.00     0.057 H 
ATOM     25  H6  LIA d          -2.789  26.303  10.655  0.00  0.00     0.037 H 
ATOM     26  H7  LIA d          -1.227  26.635   9.831  0.00  0.00     0.037 H 
ATOM     27  H5  LIA d          -1.982  27.312  12.742  0.00  0.00     0.073 H 
BRANCH  18  28
ATOM     28  S27 LIA d          -1.830  30.842   9.442  0.00  0.00     0.207 S 
ATOM     29  O29 LIA d          -2.973  30.590   8.594  0.00  0.00    -0.212 OA
ATOM     30  O30 LIA d          -0.754  31.377   8.651  0.00  0.00    -0.212 OA
BRANCH  28  31
ATOM     31  C28 LIA d          -2.312  32.055  10.722  0.00  0.00     0.028 C 
ATOM     32  H19 LIA d          -1.783  31.829  11.659  0.00  0.00     0.050 H 
ATOM     33  H20 LIA d          -3.398  31.996  10.892  0.00  0.00     0.050 H 
ATOM     34  H21 LIA d          -2.047  33.068  10.386  0.00  0.00     0.050 H 
ENDBRANCH  28  31
ENDBRANCH  18  28
ENDBRANCH   1  13
BRANCH   5  35
ATOM     35  C14 LIA d           3.615  24.403   8.876  0.00  0.00     0.203 C 
ATOM     36  O15 LIA d           4.180  23.297   8.926  0.00  0.00    -0.286 OA
BRANCH  35  37
ATOM     37  C16 LIA d           4.069  25.358   7.890  0.00  0.00     0.090 A 
ATOM     38  C17 LIA d           4.365  26.707   8.296  0.00  0.00     0.171 A 
ATOM     39  C18 LIA d           4.826  27.666   7.341  0.00  0.00     0.156 A 
ATOM     40  F24 LIA d           4.213  27.087   9.562  0.00  0.00    -0.202 F 
ATOM     41  C19 LIA d           5.002  27.302   5.974  0.00  0.00    -0.040 A 
ATOM     42  F25 LIA d           5.094  28.901   7.722  0.00  0.00    -0.203 F 
ATOM     43  C20 LIA d           4.714  25.976   5.545  0.00  0.00    -0.047 A 
ATOM     44  H12 LIA d           5.357  28.037   5.260  0.00  0.00     0.088 H 
ATOM     45  C21 LIA d           4.244  24.978   6.484  0.00  0.00     0.085 A 
ATOM     46  H13 LIA d           4.848  25.710   4.503  0.00  0.00     0.087 H 
BRANCH  45  47
ATOM     47  O22 LIA d           3.943  23.652   6.100  0.00  0.00    -0.355 OA
BRANCH  47  48
ATOM     48  C23 LIA d           4.063  23.431   4.672  0.00  0.00     0.010 C 
ATOM     49  H14 LIA d           4.634  22.509   4.490  0.00  0.00     0.066 H 
ATOM     50  H15 LIA d           4.586  24.283   4.212  0.00  0.00     0.066 H 
ATOM     51  H16 LIA d           3.060  23.335   4.230  0.00  0.00     0.066 H 
ENDBRANCH  47  48
ENDBRANCH  45  47
ENDBRANCH  35  37
ENDBRANCH   5  35
TORSDOF 7
ENDMDL
MODEL 7
REMARK VINA RESULT:      -6.2      2.202      3.045
REMARK  7 active torsions:
REMARK  status: ('A' for Active; 'I' for Inactive)
REMARK    1  A    between atoms: N1_1  and  S27_27 
REMARK    2  A    between atoms: C4_4  and  N7_7 
REMARK    3  A    between atoms: C11_11  and  C14_14 
REMARK    4  A    between atoms: C14_14  and  C16_16 
REMARK    5  A    between atoms: C21_21  and  O22_22 
REMARK    6  A    between atoms: O22_22  and  C23_23 
REMARK    7  A    between atoms: S27_27  and  C28_28 
ROOT
ATOM      1  N7  LIA d           2.705  28.754   5.853  0.00  0.00    -0.218 N 
ATOM      2  C8  LIA d           2.072  28.736   7.061  0.00  0.00     0.724 A 
ATOM      3  N9  LIA d           2.293  27.741   7.962  0.00  0.00    -0.074 NA
ATOM      4  C10 LIA d           1.686  27.755   9.109  0.00  0.00     0.038 A 
ATOM      5  C11 LIA d           0.758  28.802   9.493  0.00  0.00     0.079 A 
ATOM      6  C12 LIA d           0.543  29.835   8.504  0.00  0.00     0.156 A 
ATOM      7  N13 LIA d           1.215  29.770   7.305  0.00  0.00    -0.045 NA
ATOM      8  N26 LIA d          -0.287  30.877   8.694  0.00  0.00    -0.383 N 
ATOM      9  H10 LIA d           2.350  29.287   5.046  0.00  0.00     0.178 HD
ATOM     10  H11 LIA d           1.880  26.951   9.809  0.00  0.00     0.117 H 
ATOM     11  H17 LIA d          -0.403  31.586   7.954  0.00  0.00     0.157 HD
ATOM     12  H18 LIA d          -0.808  30.967   9.578  0.00  0.00     0.157 HD
ENDROOT
BRANCH   1  13
ATOM     13  C4  LIA d           3.935  27.952   5.795  0.00  0.00     0.029 C 
ATOM     14  C3  LIA d           4.317  27.557   7.244  0.00  0.00    -0.034 C 
ATOM     15  C2  LIA d           5.516  26.585   7.248  0.00  0.00    -0.005 C 
ATOM     16  H3  LIA d           4.586  28.464   7.806  0.00  0.00     0.037 H 
ATOM     17  H4  LIA d           3.456  27.070   7.724  0.00  0.00     0.037 H 
ATOM     18  N1  LIA d           5.174  25.371   6.454  0.00  0.00    -0.211 NA
ATOM     19  H1  LIA d           6.391  27.080   6.801  0.00  0.00     0.057 H 
ATOM     20  H2  LIA d           5.748  26.293   8.282  0.00  0.00     0.057 H 
ATOM     21  C6  LIA d           4.958  25.730   5.021  0.00  0.00    -0.005 C 
ATOM     22  C5  LIA d           3.741  26.673   4.909  0.00  0.00    -0.034 C 
ATOM     23  H8  LIA d           4.770  24.817   4.438  0.00  0.00     0.057 H 
ATOM     24  H9  LIA d           5.853  26.237   4.630  0.00  0.00     0.057 H 
ATOM     25  H6  LIA d           3.618  26.977   3.859  0.00  0.00     0.037 H 
ATOM     26  H7  LIA d           2.840  26.137   5.244  0.00  0.00     0.037 H 
ATOM     27  H5  LIA d           4.741  28.561   5.360  0.00  0.00     0.073 H 
BRANCH  18  28
ATOM     28  S27 LIA d           6.382  24.190   6.612  0.00  0.00     0.207 S 
ATOM     29  O29 LIA d           7.322  24.372   5.529  0.00  0.00    -0.212 OA
ATOM     30  O30 LIA d           5.777  22.890   6.509  0.00  0.00    -0.212 OA
BRANCH  28  31
ATOM     31  C28 LIA d           7.288  24.321   8.194  0.00  0.00     0.028 C 
ATOM     32  H19 LIA d           8.260  24.806   8.021  0.00  0.00     0.050 H 
ATOM     33  H20 LIA d           7.450  23.314   8.609  0.00  0.00     0.050 H 
ATOM     34  H21 LIA d           6.701  24.921   8.905  0.00  0.00     0.050 H 
ENDBRANCH  28  31
ENDBRANCH  18  28
ENDBRANCH   1  13
BRANCH   5  35
ATOM     35  C14 LIA d           0.122  28.767  10.802  0.00  0.00     0.203 C 
ATOM     36  O15 LIA d           0.549  29.470  11.733  0.00  0.00    -0.286 OA
BRANCH  35  37
ATOM     37  C16 LIA d          -1.003  27.897  11.063  0.00  0.00     0.090 A 
ATOM     38  C17 LIA d          -2.340  28.389  10.854  0.00  0.00     0.171 A 
ATOM     39  C18 LIA d          -3.469  27.545  11.096  0.00  0.00     0.156 A 
ATOM     40  F24 LIA d          -2.551  29.634  10.437  0.00  0.00    -0.202 F 
ATOM     41  C19 LIA d          -3.289  26.204  11.545  0.00  0.00    -0.040 A 
ATOM     42  F25 LIA d          -4.691  28.004  10.901  0.00  0.00    -0.203 F 
ATOM     43  C20 LIA d          -1.978  25.694  11.763  0.00  0.00    -0.047 A 
ATOM     44  H12 LIA d          -4.152  25.572  11.721  0.00  0.00     0.088 H 
ATOM     45  C21 LIA d          -0.811  26.520  11.530  0.00  0.00     0.085 A 
ATOM     46  H13 LIA d          -1.852  24.674  12.108  0.00  0.00     0.087 H 
BRANCH  45  47
ATOM     47  O22 LIA d           0.506  26.054  11.739  0.00  0.00    -0.355 OA
BRANCH  47  48
ATOM     48  C23 LIA d           0.558  24.695  12.239  0.00  0.00     0.010 C 
ATOM     49  H14 LIA d           1.607  24.384  12.349  0.00  0.00     0.066 H 
ATOM     50  H15 LIA d           0.049  24.024  11.531  0.00  0.00     0.066 H 
ATOM     51  H16 LIA d           0.056  24.645  13.216  0.00  0.00     0.066 H 
ENDBRANCH  47  48
ENDBRANCH  45  47
ENDBRANCH  35  37
ENDBRANCH   5  35
TORSDOF 7
ENDMDL
MODEL 8
REMARK VINA RESULT:      -6.0      4.669      9.147
REMARK  7 active torsions:
REMARK  status: ('A' for Active; 'I' for Inactive)
REMARK    1  A    between atoms: N1_1  and  S27_27 
REMARK    2  A    between atoms: C4_4  and  N7_7 
REMARK    3  A    between atoms: C11_11  and  C14_14 
REMARK    4  A    between atoms: C14_14  and  C16_16 
REMARK    5  A    between atoms: C21_21  and  O22_22 
REMARK    6  A    between atoms: O22_22  and  C23_23 
REMARK    7  A    between atoms: S27_27  and  C28_28 
ROOT
ATOM      1  N7  LIA d          -0.511  25.680  12.929  0.00  0.00    -0.218 N 
ATOM      2  C8  LIA d           0.281  25.271  11.896  0.00  0.00     0.724 A 
ATOM      3  N9  LIA d          -0.009  25.599  10.607  0.00  0.00    -0.074 NA
ATOM      4  C10 LIA d           0.769  25.207   9.646  0.00  0.00     0.038 A 
ATOM      5  C11 LIA d           1.963  24.414   9.875  0.00  0.00     0.079 A 
ATOM      6  C12 LIA d           2.229  24.078  11.256  0.00  0.00     0.156 A 
ATOM      7  N13 LIA d           1.371  24.523  12.234  0.00  0.00    -0.045 NA
ATOM      8  N26 LIA d           3.290  23.347  11.645  0.00  0.00    -0.383 N 
ATOM      9  H10 LIA d          -0.513  25.214  13.847  0.00  0.00     0.178 HD
ATOM     10  H11 LIA d           0.517  25.483   8.628  0.00  0.00     0.117 H 
ATOM     11  H17 LIA d           3.431  23.136  12.644  0.00  0.00     0.157 HD
ATOM     12  H18 LIA d           3.959  22.996  10.946  0.00  0.00     0.157 HD
ENDROOT
BRANCH   1  13
ATOM     13  C4  LIA d          -1.361  26.839  12.625  0.00  0.00     0.029 C 
ATOM     14  C3  LIA d          -0.450  27.976  12.096  0.00  0.00    -0.034 C 
ATOM     15  C2  LIA d          -1.295  29.174  11.613  0.00  0.00    -0.005 C 
ATOM     16  H3  LIA d           0.219  28.308  12.904  0.00  0.00     0.037 H 
ATOM     17  H4  LIA d           0.150  27.596  11.256  0.00  0.00     0.037 H 
ATOM     18  N1  LIA d          -2.232  28.724  10.546  0.00  0.00    -0.211 NA
ATOM     19  H1  LIA d          -1.870  29.581  12.458  0.00  0.00     0.057 H 
ATOM     20  H2  LIA d          -0.630  29.954  11.213  0.00  0.00     0.057 H 
ATOM     21  C6  LIA d          -3.213  27.742  11.096  0.00  0.00    -0.005 C 
ATOM     22  C5  LIA d          -2.461  26.479  11.567  0.00  0.00    -0.034 C 
ATOM     23  H8  LIA d          -3.936  27.469  10.314  0.00  0.00     0.057 H 
ATOM     24  H9  LIA d          -3.746  28.191  11.947  0.00  0.00     0.057 H 
ATOM     25  H6  LIA d          -3.181  25.781  12.020  0.00  0.00     0.037 H 
ATOM     26  H7  LIA d          -1.983  26.001  10.699  0.00  0.00     0.037 H 
ATOM     27  H5  LIA d          -1.858  27.172  13.549  0.00  0.00     0.073 H 
BRANCH  18  28
ATOM     28  S27 LIA d          -3.023  30.051   9.843  0.00  0.00     0.207 S 
ATOM     29  O29 LIA d          -4.445  29.794   9.897  0.00  0.00    -0.212 OA
ATOM     30  O30 LIA d          -2.608  30.165   8.471  0.00  0.00    -0.212 OA
BRANCH  28  31
ATOM     31  C28 LIA d          -2.682  31.617  10.721  0.00  0.00     0.028 C 
ATOM     32  H19 LIA d          -3.046  31.544  11.756  0.00  0.00     0.050 H 
ATOM     33  H20 LIA d          -3.197  32.444  10.210  0.00  0.00     0.050 H 
ATOM     34  H21 LIA d          -1.599  31.806  10.725  0.00  0.00     0.050 H 
ENDBRANCH  28  31
ENDBRANCH  18  28
ENDBRANCH   1  13
BRANCH   5  35
ATOM     35  C14 LIA d           2.800  24.020   8.752  0.00  0.00     0.203 C 
ATOM     36  O15 LIA d           2.516  23.021   8.069  0.00  0.00    -0.286 OA
BRANCH  35  37
ATOM     37  C16 LIA d           3.995  24.760   8.414  0.00  0.00     0.090 A 
ATOM     38  C17 LIA d           5.270  24.090   8.428  0.00  0.00     0.171 A 
ATOM     39  C18 LIA d           6.464  24.798   8.087  0.00  0.00     0.156 A 
ATOM     40  F24 LIA d           5.360  22.805   8.760  0.00  0.00    -0.202 F 
ATOM     41  C19 LIA d           6.413  26.176   7.726  0.00  0.00    -0.040 A 
ATOM     42  F25 LIA d           7.628  24.176   8.103  0.00  0.00    -0.203 F 
ATOM     43  C20 LIA d           5.167  26.864   7.707  0.00  0.00    -0.047 A 
ATOM     44  H12 LIA d           7.325  26.702   7.465  0.00  0.00     0.088 H 
ATOM     45  C21 LIA d           3.936  26.179   8.048  0.00  0.00     0.085 A 
ATOM     46  H13 LIA d           5.139  27.912   7.435  0.00  0.00     0.087 H 
BRANCH  45  47
ATOM     47  O22 LIA d           2.680  26.825   8.046  0.00  0.00    -0.355 OA
BRANCH  47  48
ATOM     48  C23 LIA d           2.742  28.193   7.570  0.00  0.00     0.010 C 
ATOM     49  H14 LIA d           3.712  28.634   7.846  0.00  0.00     0.066 H 
ATOM     50  H15 LIA d           1.931  28.778   8.028  0.00  0.00     0.066 H 
ATOM     51  H16 LIA d           2.631  28.206   6.476  0.00  0.00     0.066 H 
ENDBRANCH  47  48
ENDBRANCH  45  47
ENDBRANCH  35  37
ENDBRANCH   5  35
TORSDOF 7
ENDMDL
