MODEL 1
REMARK VINA RESULT:     -16.5      0.000      0.000
REMARK  2 active torsions:
REMARK  status: ('A' for Active; 'I' for Inactive)
REMARK       I    between atoms: N4_8  and  C11_17 
REMARK    1  A    between atoms: C16_22  and  N4_8 
REMARK    2  A    between atoms: C11_17  and  C12_18 
ROOT
ATOM      1  C1  YKI d          13.533  14.314  26.357  0.00  0.00     0.004 A 
ATOM      2  N1  YKI d          13.250  14.589  27.694  0.00  0.00    -0.271 NA
ATOM      3  C2  YKI d          11.941  14.703  28.150  0.00  0.00     0.030 A 
ATOM      4  N2  YKI d           9.515  14.581  27.347  0.00  0.00    -0.337 N 
ATOM      5  C3  YKI d          12.506  14.133  25.401  0.00  0.00    -0.036 A 
ATOM      6  N3  YKI d           9.963  14.141  25.220  0.00  0.00    -0.228 NA
ATOM      7  C4  YKI d           8.982  14.346  26.136  0.00  0.00     0.140 A 
ATOM      8  C5  YKI d          11.176  14.247  25.843  0.00  0.00     0.088 A 
ATOM      9  C6  YKI d          10.882  14.531  27.236  0.00  0.00     0.080 A 
ATOM     10  C7  YKI d           7.555  14.340  25.898  0.00  0.00     0.022 A 
ATOM     11  C8  YKI d           4.700  14.515  25.496  0.00  0.00    -0.074 A 
ATOM     12  C9  YKI d           5.392  15.545  26.202  0.00  0.00    -0.081 A 
ATOM     13  C10 YKI d           6.810  15.440  26.393  0.00  0.00    -0.068 A 
ATOM     14  C16 YKI d           4.779  12.263  24.235  0.00  0.00     0.065 A 
ATOM     15  C17 YKI d           5.413  13.372  24.976  0.00  0.00    -0.019 A 
ATOM     16  C18 YKI d           6.801  13.239  25.148  0.00  0.00    -0.003 A 
ATOM     17  C19 YKI d           6.026  11.369  23.961  0.00  0.00    -0.020 A 
ATOM     18  C20 YKI d           7.215  11.974  24.503  0.00  0.00    -0.016 A 
ATOM     19  C21 YKI d           8.494  11.283  24.337  0.00  0.00    -0.072 A 
ATOM     20  C22 YKI d           8.561  10.029  23.645  0.00  0.00    -0.082 A 
ATOM     21  C23 YKI d           7.347   9.435  23.106  0.00  0.00    -0.082 A 
ATOM     22  C24 YKI d           6.088  10.105  23.263  0.00  0.00    -0.074 A 
ATOM     23  H1  YKI d          14.568  14.237  26.042  0.00  0.00     0.114 H 
ATOM     24  H2  YKI d          11.738  14.921  29.192  0.00  0.00     0.118 H 
ATOM     25  H3  YKI d           8.988  14.768  28.212  0.00  0.00     0.167 HD
ATOM     26  H4  YKI d          12.736  13.913  24.365  0.00  0.00     0.089 H 
ATOM     27  H7  YKI d           3.629  14.591  25.350  0.00  0.00     0.084 H 
ATOM     28  H8  YKI d           4.850  16.400  26.590  0.00  0.00     0.083 H 
ATOM     29  H9  YKI d           7.328  16.226  26.931  0.00  0.00     0.085 H 
ATOM     30  H12 YKI d           4.491  12.665  23.252  0.00  0.00     0.088 H 
ATOM     31  H13 YKI d           9.398  11.722  24.741  0.00  0.00     0.084 H 
ATOM     32  H14 YKI d           9.514   9.525  23.523  0.00  0.00     0.083 H 
ATOM     33  H15 YKI d           7.394   8.486  22.585  0.00  0.00     0.083 H 
ATOM     34  H16 YKI d           5.185   9.663  22.858  0.00  0.00     0.084 H 
ENDROOT
BRANCH  14  35
ATOM     35  N4  YKI d           3.774  11.858  24.637  0.00  0.00    -0.344 N 
ATOM     36  C11 YKI d           2.636  11.394  24.082  0.00  0.00     0.253 C 
ATOM     37  O13 YKI d           2.604  11.360  22.843  0.00  0.00    -0.268 OA
ATOM     38  H5  YKI d           3.740  11.851  25.637  0.00  0.00     0.163 HD
BRANCH  36  39
ATOM     39  C12 YKI d           1.434  10.959  24.884  0.00  0.00     0.047 A 
ATOM     40  C14 YKI d           1.475  10.110  26.049  0.00  0.00    -0.050 A 
ATOM     41  C15 YKI d           0.231   9.798  26.700  0.00  0.00     0.005 A 
ATOM     42  H10 YKI d           2.415   9.719  26.423  0.00  0.00     0.087 H 
ATOM     43  N5  YKI d          -0.970  10.298  26.206  0.00  0.00    -0.242 NA
ATOM     44  H11 YKI d           0.229   9.167  27.582  0.00  0.00     0.114 H 
ATOM     45  C26 YKI d          -1.024  11.124  25.078  0.00  0.00     0.138 A 
ATOM     46  N6  YKI d          -2.151  11.671  24.507  0.00  0.00    -0.350 N 
ATOM     47  C25 YKI d           0.119  11.469  24.389  0.00  0.00     0.027 A 
ATOM     48  C27 YKI d          -1.722  12.407  23.416  0.00  0.00    -0.020 A 
ATOM     49  H6  YKI d          -3.122  11.555  24.829  0.00  0.00     0.166 HD
ATOM     50  C28 YKI d          -0.319  12.313  23.309  0.00  0.00    -0.053 A 
ATOM     51  H17 YKI d          -2.368  12.971  22.746  0.00  0.00     0.111 H 
ATOM     52  H18 YKI d           0.310  12.785  22.556  0.00  0.00     0.087 H 
ENDBRANCH  36  39
ENDBRANCH  14  35
TORSDOF 2
ENDMDL
MODEL 2
REMARK VINA RESULT:     -15.6      0.734      1.953
REMARK  2 active torsions:
REMARK  status: ('A' for Active; 'I' for Inactive)
REMARK       I    between atoms: N4_8  and  C11_17 
REMARK    1  A    between atoms: C16_22  and  N4_8 
REMARK    2  A    between atoms: C11_17  and  C12_18 
ROOT
ATOM      1  C1  YKI d          13.272  14.474  26.661  0.00  0.00     0.004 A 
ATOM      2  N1  YKI d          12.919  14.742  27.982  0.00  0.00    -0.271 NA
ATOM      3  C2  YKI d          11.586  14.822  28.375  0.00  0.00     0.030 A 
ATOM      4  N2  YKI d           9.206  14.637  27.457  0.00  0.00    -0.337 N 
ATOM      5  C3  YKI d          12.297  14.266  25.657  0.00  0.00    -0.036 A 
ATOM      6  N3  YKI d           9.766  14.208  25.355  0.00  0.00    -0.228 NA
ATOM      7  C4  YKI d           8.737  14.387  26.223  0.00  0.00     0.140 A 
ATOM      8  C5  YKI d          10.945  14.346  26.034  0.00  0.00     0.088 A 
ATOM      9  C6  YKI d          10.578  14.622  27.411  0.00  0.00     0.080 A 
ATOM     10  C7  YKI d           7.324  14.344  25.916  0.00  0.00     0.022 A 
ATOM     11  C8  YKI d           4.488  14.444  25.379  0.00  0.00    -0.074 A 
ATOM     12  C9  YKI d           5.118  15.492  26.115  0.00  0.00    -0.081 A 
ATOM     13  C10 YKI d           6.528  15.425  26.373  0.00  0.00    -0.068 A 
ATOM     14  C16 YKI d           4.687  12.195  24.125  0.00  0.00     0.065 A 
ATOM     15  C17 YKI d           5.254  13.320  24.895  0.00  0.00    -0.019 A 
ATOM     16  C18 YKI d           6.635  13.224  25.133  0.00  0.00    -0.003 A 
ATOM     17  C19 YKI d           5.967  11.334  23.913  0.00  0.00    -0.020 A 
ATOM     18  C20 YKI d           7.113  11.970  24.510  0.00  0.00    -0.016 A 
ATOM     19  C21 YKI d           8.416  11.312  24.406  0.00  0.00    -0.072 A 
ATOM     20  C22 YKI d           8.549  10.061  23.720  0.00  0.00    -0.082 A 
ATOM     21  C23 YKI d           7.378   9.436  23.124  0.00  0.00    -0.082 A 
ATOM     22  C24 YKI d           6.096  10.072  23.220  0.00  0.00    -0.074 A 
ATOM     23  H1  YKI d          14.323  14.424  26.395  0.00  0.00     0.114 H 
ATOM     24  H2  YKI d          11.328  15.035  29.405  0.00  0.00     0.118 H 
ATOM     25  H3  YKI d           8.634  14.809  28.295  0.00  0.00     0.167 HD
ATOM     26  H4  YKI d          12.582  14.053  24.633  0.00  0.00     0.089 H 
ATOM     27  H7  YKI d           3.424  14.493  25.181  0.00  0.00     0.084 H 
ATOM     28  H8  YKI d           4.537  16.332  26.476  0.00  0.00     0.083 H 
ATOM     29  H9  YKI d           6.999  16.223  26.935  0.00  0.00     0.085 H 
ATOM     30  H12 YKI d           4.434  12.589  23.130  0.00  0.00     0.088 H 
ATOM     31  H13 YKI d           9.288  11.775  24.853  0.00  0.00     0.084 H 
ATOM     32  H14 YKI d           9.519   9.582  23.644  0.00  0.00     0.083 H 
ATOM     33  H15 YKI d           7.475   8.488  22.608  0.00  0.00     0.083 H 
ATOM     34  H16 YKI d           5.225   9.607  22.773  0.00  0.00     0.084 H 
ENDROOT
BRANCH  14  35
ATOM     35  N4  YKI d           3.674  11.764  24.480  0.00  0.00    -0.344 N 
ATOM     36  C11 YKI d           2.507  11.442  23.885  0.00  0.00     0.253 C 
ATOM     37  O13 YKI d           2.449  11.622  22.659  0.00  0.00    -0.268 OA
ATOM     38  H5  YKI d           3.659  11.588  25.464  0.00  0.00     0.163 HD
BRANCH  36  39
ATOM     39  C12 YKI d           1.305  10.921  24.633  0.00  0.00     0.047 A 
ATOM     40  C14 YKI d          -0.068  11.231  24.319  0.00  0.00    -0.050 A 
ATOM     41  C15 YKI d          -1.095  10.641  25.135  0.00  0.00     0.005 A 
ATOM     42  H10 YKI d          -0.318  11.888  23.494  0.00  0.00     0.087 H 
ATOM     43  N5  YKI d          -0.762   9.805  26.196  0.00  0.00    -0.242 NA
ATOM     44  H11 YKI d          -2.138  10.849  24.921  0.00  0.00     0.114 H 
ATOM     45  C26 YKI d           0.565   9.495  26.511  0.00  0.00     0.138 A 
ATOM     46  N6  YKI d           1.005   8.685  27.533  0.00  0.00    -0.350 N 
ATOM     47  C25 YKI d           1.613  10.021  25.786  0.00  0.00     0.027 A 
ATOM     48  C27 YKI d           2.387   8.676  27.461  0.00  0.00    -0.020 A 
ATOM     49  H6  YKI d           0.421   8.185  28.217  0.00  0.00     0.166 HD
ATOM     50  C28 YKI d           2.807   9.489  26.388  0.00  0.00    -0.053 A 
ATOM     51  H17 YKI d           3.048   8.126  28.129  0.00  0.00     0.111 H 
ATOM     52  H18 YKI d           3.833   9.677  26.075  0.00  0.00     0.087 H 
ENDBRANCH  36  39
ENDBRANCH  14  35
TORSDOF 2
ENDMDL
