MODEL 1
REMARK VINA RESULT:     -10.6      0.000      0.000
REMARK  5 active torsions:
REMARK  status: ('A' for Active; 'I' for Inactive)
REMARK    1  A    between atoms: CAW_6  and  C2_7 
REMARK    2  A    between atoms: CAU_12  and  NAQ_13 
REMARK       I    between atoms: NAQ_13  and  CAT_14 
REMARK    3  A    between atoms: CAT_14  and  CAC_16 
REMARK    4  A    between atoms: C6_21  and  NAR_22 
REMARK    5  A    between atoms: NAR_22  and  CAV_23 
ROOT
ATOM      1  C2  G97 d          23.354  -0.844 -19.553  0.00  0.00     0.162 A 
ATOM      2  N1  G97 d          23.344   0.319 -20.246  0.00  0.00    -0.210 NA
ATOM      3  N3  G97 d          22.900  -0.896 -18.285  0.00  0.00    -0.228 NA
ATOM      4  C4  G97 d          22.415   0.200 -17.686  0.00  0.00     0.075 A 
ATOM      5  CAM G97 d          21.940   0.105 -16.378  0.00  0.00    -0.028 A 
ATOM      6  CAU G97 d          21.417   1.224 -15.733  0.00  0.00     0.037 A 
ATOM      7  CAK G97 d          21.383   2.451 -16.420  0.00  0.00    -0.056 A 
ATOM      8  CAL G97 d          21.864   2.545 -17.734  0.00  0.00    -0.065 A 
ATOM      9  C5  G97 d          22.384   1.416 -18.378  0.00  0.00     0.039 A 
ATOM     10  C6  G97 d          22.867   1.456 -19.697  0.00  0.00     0.144 A 
ATOM     11  H6  G97 d          21.978  -0.846 -15.859  0.00  0.00     0.090 H 
ATOM     12  H11 G97 d          20.981   3.331 -15.930  0.00  0.00     0.086 H 
ATOM     13  H12 G97 d          21.833   3.496 -18.253  0.00  0.00     0.085 H 
ENDROOT
BRANCH   1  14
ATOM     14  CAW G97 d          23.865  -2.017 -20.099  0.00  0.00     0.012 A 
ATOM     15  CAH G97 d          24.944  -1.965 -20.993  0.00  0.00    -0.069 A 
ATOM     16  CAE G97 d          25.493  -3.130 -21.527  0.00  0.00    -0.082 A 
ATOM     17  H1  G97 d          25.358  -1.003 -21.274  0.00  0.00     0.085 H 
ATOM     18  CAD G97 d          24.945  -4.352 -21.154  0.00  0.00    -0.083 A 
ATOM     19  H2  G97 d          26.327  -3.085 -22.217  0.00  0.00     0.083 H 
ATOM     20  CAF G97 d          23.881  -4.421 -20.252  0.00  0.00    -0.082 A 
ATOM     21  H3  G97 d          25.352  -5.266 -21.570  0.00  0.00     0.083 H 
ATOM     22  CAI G97 d          23.332  -3.251 -19.720  0.00  0.00    -0.069 A 
ATOM     23  H4  G97 d          23.480  -5.386 -19.964  0.00  0.00     0.083 H 
ATOM     24  H5  G97 d          22.504  -3.300 -19.022  0.00  0.00     0.085 H 
ENDBRANCH   1  14
BRANCH  10  25
ATOM     25  NAR G97 d          22.864   2.600 -20.414  0.00  0.00    -0.325 N 
ATOM     26  H13 G97 d          22.887   3.491 -19.899  0.00  0.00     0.169 HD
BRANCH  25  27
ATOM     27  CAV G97 d          22.831   2.650 -21.769  0.00  0.00     0.124 A 
ATOM     28  CAJ G97 d          23.246   3.683 -22.497  0.00  0.00    -0.021 A 
ATOM     29  CAG G97 d          23.034   3.326 -23.767  0.00  0.00     0.025 A 
ATOM     30  H14 G97 d          23.669   4.619 -22.136  0.00  0.00     0.091 H 
ATOM     31  NAS G97 d          22.492   2.097 -23.768  0.00  0.00    -0.186 NA
ATOM     32  H15 G97 d          23.261   3.926 -24.647  0.00  0.00     0.117 H 
ATOM     33  NAN G97 d          22.374   1.700 -22.598  0.00  0.00    -0.263 N 
ATOM     34  H16 G97 d          21.987   0.789 -22.311  0.00  0.00     0.190 HD
ENDBRANCH  25  27
ENDBRANCH  10  25
BRANCH   6  35
ATOM     35  NAQ G97 d          20.992   1.061 -14.463  0.00  0.00    -0.324 N 
ATOM     36  CAT G97 d          19.881   1.554 -13.903  0.00  0.00     0.244 C 
ATOM     37  OAB G97 d          19.046   2.245 -14.496  0.00  0.00    -0.268 OA
ATOM     38  H7  G97 d          21.576   0.506 -13.871  0.00  0.00     0.169 HD
BRANCH  36  39
ATOM     39  CAC G97 d          19.658   1.247 -12.558  0.00  0.00    -0.026 C 
ATOM     40  CAA G97 d          20.605   0.552 -11.807  0.00  0.00    -0.116 C 
ATOM     41  H9  G97 d          20.410   0.325 -10.760  0.00  0.00     0.067 H 
ATOM     42  H10 G97 d          21.541   0.236 -12.269  0.00  0.00     0.067 H 
ATOM     43  H8  G97 d          18.727   1.558 -12.086  0.00  0.00     0.090 H 
ENDBRANCH  36  39
ENDBRANCH   6  35
TORSDOF 5
ENDMDL
MODEL 2
REMARK VINA RESULT:      -9.7      1.390      4.734
REMARK  5 active torsions:
REMARK  status: ('A' for Active; 'I' for Inactive)
REMARK    1  A    between atoms: CAW_6  and  C2_7 
REMARK    2  A    between atoms: CAU_12  and  NAQ_13 
REMARK       I    between atoms: NAQ_13  and  CAT_14 
REMARK    3  A    between atoms: CAT_14  and  CAC_16 
REMARK    4  A    between atoms: C6_21  and  NAR_22 
REMARK    5  A    between atoms: NAR_22  and  CAV_23 
ROOT
ATOM      1  C2  G97 d          22.763   1.991 -20.274  0.00  0.00     0.162 A 
ATOM      2  N1  G97 d          23.139   0.691 -20.297  0.00  0.00    -0.210 NA
ATOM      3  N3  G97 d          22.230   2.537 -19.163  0.00  0.00    -0.228 NA
ATOM      4  C4  G97 d          22.074   1.808 -18.050  0.00  0.00     0.075 A 
ATOM      5  CAM G97 d          21.532   2.410 -16.914  0.00  0.00    -0.028 A 
ATOM      6  CAU G97 d          21.370   1.682 -15.737  0.00  0.00     0.037 A 
ATOM      7  CAK G97 d          21.754   0.329 -15.716  0.00  0.00    -0.056 A 
ATOM      8  CAL G97 d          22.294  -0.276 -16.860  0.00  0.00    -0.065 A 
ATOM      9  C5  G97 d          22.459   0.463 -18.039  0.00  0.00     0.039 A 
ATOM     10  C6  G97 d          23.006  -0.094 -19.207  0.00  0.00     0.144 A 
ATOM     11  H6  G97 d          21.236   3.453 -16.947  0.00  0.00     0.090 H 
ATOM     12  H11 G97 d          21.631  -0.251 -14.808  0.00  0.00     0.086 H 
ATOM     13  H12 G97 d          22.586  -1.320 -16.832  0.00  0.00     0.085 H 
ENDROOT
BRANCH   1  14
ATOM     14  CAW G97 d          22.871   2.803 -21.398  0.00  0.00     0.012 A 
ATOM     15  CAH G97 d          23.112   2.235 -22.657  0.00  0.00    -0.069 A 
ATOM     16  CAE G97 d          23.192   3.028 -23.801  0.00  0.00    -0.082 A 
ATOM     17  H1  G97 d          23.239   1.162 -22.742  0.00  0.00     0.085 H 
ATOM     18  CAD G97 d          23.027   4.401 -23.669  0.00  0.00    -0.083 A 
ATOM     19  H2  G97 d          23.378   2.583 -24.772  0.00  0.00     0.083 H 
ATOM     20  CAF G97 d          22.770   4.981 -22.425  0.00  0.00    -0.082 A 
ATOM     21  H3  G97 d          23.099   5.033 -24.546  0.00  0.00     0.083 H 
ATOM     22  CAI G97 d          22.693   4.184 -21.279  0.00  0.00    -0.069 A 
ATOM     23  H4  G97 d          22.630   6.053 -22.347  0.00  0.00     0.083 H 
ATOM     24  H5  G97 d          22.496   4.630 -20.310  0.00  0.00     0.085 H 
ENDBRANCH   1  14
BRANCH  10  25
ATOM     25  NAR G97 d          23.396  -1.386 -19.256  0.00  0.00    -0.325 N 
ATOM     26  H13 G97 d          22.982  -2.040 -18.577  0.00  0.00     0.169 HD
BRANCH  25  27
ATOM     27  CAV G97 d          24.297  -1.877 -20.143  0.00  0.00     0.124 A 
ATOM     28  CAJ G97 d          24.441  -3.166 -20.438  0.00  0.00    -0.021 A 
ATOM     29  CAG G97 d          25.428  -3.213 -21.337  0.00  0.00     0.025 A 
ATOM     30  H14 G97 d          23.876  -4.004 -20.034  0.00  0.00     0.091 H 
ATOM     31  NAS G97 d          25.854  -1.957 -21.551  0.00  0.00    -0.186 NA
ATOM     32  H15 G97 d          25.819  -4.111 -21.813  0.00  0.00     0.117 H 
ATOM     33  NAN G97 d          25.192  -1.174 -20.853  0.00  0.00    -0.263 N 
ATOM     34  H16 G97 d          25.310  -0.151 -20.823  0.00  0.00     0.190 HD
ENDBRANCH  25  27
ENDBRANCH  10  25
BRANCH   6  35
ATOM     35  NAQ G97 d          20.826   2.326 -14.684  0.00  0.00    -0.324 N 
ATOM     36  CAT G97 d          19.593   2.840 -14.588  0.00  0.00     0.244 C 
ATOM     37  OAB G97 d          18.741   2.785 -15.481  0.00  0.00    -0.268 OA
ATOM     38  H7  G97 d          21.411   2.431 -13.882  0.00  0.00     0.169 HD
BRANCH  36  39
ATOM     39  CAC G97 d          19.260   3.470 -13.386  0.00  0.00    -0.026 C 
ATOM     40  CAA G97 d          19.569   2.891 -12.156  0.00  0.00    -0.116 C 
ATOM     41  H9  G97 d          19.300   3.400 -11.232  0.00  0.00     0.067 H 
ATOM     42  H10 G97 d          20.080   1.929 -12.120  0.00  0.00     0.067 H 
ATOM     43  H8  G97 d          18.749   4.432 -13.410  0.00  0.00     0.090 H 
ENDBRANCH  36  39
ENDBRANCH   6  35
TORSDOF 5
ENDMDL
MODEL 3
REMARK VINA RESULT:      -9.2      2.836      6.809
REMARK  5 active torsions:
REMARK  status: ('A' for Active; 'I' for Inactive)
REMARK    1  A    between atoms: CAW_6  and  C2_7 
REMARK    2  A    between atoms: CAU_12  and  NAQ_13 
REMARK       I    between atoms: NAQ_13  and  CAT_14 
REMARK    3  A    between atoms: CAT_14  and  CAC_16 
REMARK    4  A    between atoms: C6_21  and  NAR_22 
REMARK    5  A    between atoms: NAR_22  and  CAV_23 
ROOT
ATOM      1  C2  G97 d          21.510   2.943 -17.791  0.00  0.00     0.162 A 
ATOM      2  N1  G97 d          21.437   3.687 -18.920  0.00  0.00    -0.210 NA
ATOM      3  N3  G97 d          22.086   1.725 -17.802  0.00  0.00    -0.228 NA
ATOM      4  C4  G97 d          22.615   1.229 -18.929  0.00  0.00     0.075 A 
ATOM      5  CAM G97 d          23.217  -0.029 -18.900  0.00  0.00    -0.028 A 
ATOM      6  CAU G97 d          23.787  -0.567 -20.052  0.00  0.00     0.037 A 
ATOM      7  CAK G97 d          23.738   0.176 -21.245  0.00  0.00    -0.056 A 
ATOM      8  CAL G97 d          23.129   1.439 -21.274  0.00  0.00    -0.065 A 
ATOM      9  C5  G97 d          22.562   1.976 -20.111  0.00  0.00     0.039 A 
ATOM     10  C6  G97 d          21.951   3.241 -20.085  0.00  0.00     0.144 A 
ATOM     11  H6  G97 d          23.242  -0.593 -17.973  0.00  0.00     0.090 H 
ATOM     12  H11 G97 d          24.176  -0.231 -22.150  0.00  0.00     0.086 H 
ATOM     13  H12 G97 d          23.097   2.002 -22.199  0.00  0.00     0.085 H 
ENDROOT
BRANCH   1  14
ATOM     14  CAW G97 d          20.962   3.382 -16.590  0.00  0.00     0.012 A 
ATOM     15  CAH G97 d          20.765   4.752 -16.364  0.00  0.00    -0.069 A 
ATOM     16  CAE G97 d          20.188   5.210 -15.181  0.00  0.00    -0.082 A 
ATOM     17  H1  G97 d          21.068   5.465 -17.122  0.00  0.00     0.085 H 
ATOM     18  CAD G97 d          19.808   4.277 -14.223  0.00  0.00    -0.083 A 
ATOM     19  H2  G97 d          20.038   6.270 -15.011  0.00  0.00     0.083 H 
ATOM     20  CAF G97 d          19.982   2.908 -14.440  0.00  0.00    -0.082 A 
ATOM     21  H3  G97 d          19.370   4.617 -13.293  0.00  0.00     0.083 H 
ATOM     22  CAI G97 d          20.563   2.452 -15.627  0.00  0.00    -0.069 A 
ATOM     23  H4  G97 d          19.665   2.198 -13.685  0.00  0.00     0.083 H 
ATOM     24  H5  G97 d          20.703   1.390 -15.798  0.00  0.00     0.085 H 
ENDBRANCH   1  14
BRANCH  10  25
ATOM     25  NAR G97 d          21.870   4.006 -21.194  0.00  0.00    -0.325 N 
ATOM     26  H13 G97 d          22.718   4.506 -21.497  0.00  0.00     0.169 HD
BRANCH  25  27
ATOM     27  CAV G97 d          20.744   4.159 -21.934  0.00  0.00     0.124 A 
ATOM     28  CAJ G97 d          20.320   3.296 -22.854  0.00  0.00    -0.021 A 
ATOM     29  CAG G97 d          19.195   3.825 -23.342  0.00  0.00     0.025 A 
ATOM     30  H14 G97 d          20.791   2.359 -23.147  0.00  0.00     0.091 H 
ATOM     31  NAS G97 d          18.977   4.991 -22.711  0.00  0.00    -0.186 NA
ATOM     32  H15 G97 d          18.565   3.388 -24.115  0.00  0.00     0.117 H 
ATOM     33  NAN G97 d          19.883   5.187 -21.886  0.00  0.00    -0.263 N 
ATOM     34  H16 G97 d          19.961   6.005 -21.265  0.00  0.00     0.190 HD
ENDBRANCH  25  27
ENDBRANCH  10  25
BRANCH   6  35
ATOM     35  NAQ G97 d          24.337  -1.795 -19.952  0.00  0.00    -0.324 N 
ATOM     36  CAT G97 d          23.812  -2.961 -20.347  0.00  0.00     0.244 C 
ATOM     37  OAB G97 d          22.710  -3.083 -20.894  0.00  0.00    -0.268 OA
ATOM     38  H7  G97 d          25.243  -1.838 -19.534  0.00  0.00     0.169 HD
BRANCH  36  39
ATOM     39  CAC G97 d          24.579  -4.109 -20.130  0.00  0.00    -0.026 C 
ATOM     40  CAA G97 d          24.812  -5.028 -21.152  0.00  0.00    -0.116 C 
ATOM     41  H9  G97 d          25.413  -5.915 -20.959  0.00  0.00     0.067 H 
ATOM     42  H10 G97 d          24.392  -4.858 -22.143  0.00  0.00     0.067 H 
ATOM     43  H8  G97 d          25.003  -4.289 -19.143  0.00  0.00     0.090 H 
ENDBRANCH  36  39
ENDBRANCH   6  35
TORSDOF 5
ENDMDL
MODEL 4
REMARK VINA RESULT:      -8.8      2.547      7.390
REMARK  5 active torsions:
REMARK  status: ('A' for Active; 'I' for Inactive)
REMARK    1  A    between atoms: CAW_6  and  C2_7 
REMARK    2  A    between atoms: CAU_12  and  NAQ_13 
REMARK       I    between atoms: NAQ_13  and  CAT_14 
REMARK    3  A    between atoms: CAT_14  and  CAC_16 
REMARK    4  A    between atoms: C6_21  and  NAR_22 
REMARK    5  A    between atoms: NAR_22  and  CAV_23 
ROOT
ATOM      1  C2  G97 d          22.209   0.342 -17.458  0.00  0.00     0.162 A 
ATOM      2  N1  G97 d          22.808  -0.785 -17.909  0.00  0.00    -0.210 NA
ATOM      3  N3  G97 d          22.123   1.438 -18.237  0.00  0.00    -0.228 NA
ATOM      4  C4  G97 d          22.615   1.432 -19.484  0.00  0.00     0.075 A 
ATOM      5  CAM G97 d          22.495   2.580 -20.267  0.00  0.00    -0.028 A 
ATOM      6  CAU G97 d          22.984   2.600 -21.571  0.00  0.00     0.037 A 
ATOM      7  CAK G97 d          23.608   1.447 -22.081  0.00  0.00    -0.056 A 
ATOM      8  CAL G97 d          23.732   0.295 -21.291  0.00  0.00    -0.065 A 
ATOM      9  C5  G97 d          23.233   0.280 -19.982  0.00  0.00     0.039 A 
ATOM     10  C6  G97 d          23.322  -0.853 -19.155  0.00  0.00     0.144 A 
ATOM     11  H6  G97 d          22.016   3.463 -19.858  0.00  0.00     0.090 H 
ATOM     12  H11 G97 d          23.996   1.449 -23.094  0.00  0.00     0.086 H 
ATOM     13  H12 G97 d          24.215  -0.587 -21.695  0.00  0.00     0.085 H 
ENDROOT
BRANCH   1  14
ATOM     14  CAW G97 d          21.697   0.432 -16.167  0.00  0.00     0.012 A 
ATOM     15  CAH G97 d          21.089   1.618 -15.732  0.00  0.00    -0.069 A 
ATOM     16  CAE G97 d          20.541   1.718 -14.454  0.00  0.00    -0.082 A 
ATOM     17  H1  G97 d          21.044   2.470 -16.400  0.00  0.00     0.085 H 
ATOM     18  CAD G97 d          20.610   0.613 -13.614  0.00  0.00    -0.083 A 
ATOM     19  H2  G97 d          20.071   2.637 -14.123  0.00  0.00     0.083 H 
ATOM     20  CAF G97 d          21.199  -0.580 -14.038  0.00  0.00    -0.082 A 
ATOM     21  H3  G97 d          20.201   0.679 -12.613  0.00  0.00     0.083 H 
ATOM     22  CAI G97 d          21.749  -0.677 -15.320  0.00  0.00    -0.069 A 
ATOM     23  H4  G97 d          21.229  -1.434 -13.371  0.00  0.00     0.083 H 
ATOM     24  H5  G97 d          22.210  -1.601 -15.652  0.00  0.00     0.085 H 
ENDBRANCH   1  14
BRANCH  10  25
ATOM     25  NAR G97 d          23.908  -1.992 -19.581  0.00  0.00    -0.325 N 
ATOM     26  H13 G97 d          24.902  -1.952 -19.846  0.00  0.00     0.169 HD
BRANCH  25  27
ATOM     27  CAV G97 d          23.270  -3.185 -19.682  0.00  0.00     0.124 A 
ATOM     28  CAJ G97 d          23.297  -3.967 -20.758  0.00  0.00    -0.021 A 
ATOM     29  CAG G97 d          22.544  -5.025 -20.442  0.00  0.00     0.025 A 
ATOM     30  H14 G97 d          23.820  -3.785 -21.695  0.00  0.00     0.091 H 
ATOM     31  NAS G97 d          22.080  -4.847 -19.194  0.00  0.00    -0.186 NA
ATOM     32  H15 G97 d          22.341  -5.881 -21.084  0.00  0.00     0.117 H 
ATOM     33  NAN G97 d          22.505  -3.770 -18.748  0.00  0.00    -0.263 N 
ATOM     34  H16 G97 d          22.304  -3.387 -17.813  0.00  0.00     0.190 HD
ENDBRANCH  25  27
ENDBRANCH  10  25
BRANCH   6  35
ATOM     35  NAQ G97 d          22.847   3.749 -22.263  0.00  0.00    -0.324 N 
ATOM     36  CAT G97 d          22.201   3.935 -23.422  0.00  0.00     0.244 C 
ATOM     37  OAB G97 d          21.605   3.047 -24.040  0.00  0.00    -0.268 OA
ATOM     38  H7  G97 d          23.278   4.558 -21.864  0.00  0.00     0.169 HD
BRANCH  36  39
ATOM     39  CAC G97 d          22.202   5.229 -23.949  0.00  0.00    -0.026 C 
ATOM     40  CAA G97 d          22.575   5.472 -25.270  0.00  0.00    -0.116 C 
ATOM     41  H9  G97 d          22.568   6.489 -25.660  0.00  0.00     0.067 H 
ATOM     42  H10 G97 d          22.873   4.644 -25.913  0.00  0.00     0.067 H 
ATOM     43  H8  G97 d          21.906   6.064 -23.315  0.00  0.00     0.090 H 
ENDBRANCH  36  39
ENDBRANCH   6  35
TORSDOF 5
ENDMDL
MODEL 5
REMARK VINA RESULT:      -8.5      1.253      2.067
REMARK  5 active torsions:
REMARK  status: ('A' for Active; 'I' for Inactive)
REMARK    1  A    between atoms: CAW_6  and  C2_7 
REMARK    2  A    between atoms: CAU_12  and  NAQ_13 
REMARK       I    between atoms: NAQ_13  and  CAT_14 
REMARK    3  A    between atoms: CAT_14  and  CAC_16 
REMARK    4  A    between atoms: C6_21  and  NAR_22 
REMARK    5  A    between atoms: NAR_22  and  CAV_23 
ROOT
ATOM      1  C2  G97 d          23.401  -1.083 -19.613  0.00  0.00     0.162 A 
ATOM      2  N1  G97 d          23.393   0.070 -20.322  0.00  0.00    -0.210 NA
ATOM      3  N3  G97 d          22.962  -1.115 -18.339  0.00  0.00    -0.228 NA
ATOM      4  C4  G97 d          22.492  -0.007 -17.750  0.00  0.00     0.075 A 
ATOM      5  CAM G97 d          22.032  -0.080 -16.435  0.00  0.00    -0.028 A 
ATOM      6  CAU G97 d          21.525   1.051 -15.800  0.00  0.00     0.037 A 
ATOM      7  CAK G97 d          21.493   2.269 -16.503  0.00  0.00    -0.056 A 
ATOM      8  CAL G97 d          21.960   2.342 -17.823  0.00  0.00    -0.065 A 
ATOM      9  C5  G97 d          22.463   1.199 -18.458  0.00  0.00     0.039 A 
ATOM     10  C6  G97 d          22.932   1.218 -19.783  0.00  0.00     0.144 A 
ATOM     11  H6  G97 d          22.068  -1.025 -15.904  0.00  0.00     0.090 H 
ATOM     12  H11 G97 d          21.103   3.159 -16.020  0.00  0.00     0.086 H 
ATOM     13  H12 G97 d          21.930   3.286 -18.354  0.00  0.00     0.085 H 
ENDROOT
BRANCH   1  14
ATOM     14  CAW G97 d          23.897  -2.267 -20.149  0.00  0.00     0.012 A 
ATOM     15  CAH G97 d          23.238  -3.481 -19.905  0.00  0.00    -0.069 A 
ATOM     16  CAE G97 d          23.700  -4.674 -20.460  0.00  0.00    -0.082 A 
ATOM     17  H1  G97 d          22.357  -3.491 -19.275  0.00  0.00     0.085 H 
ATOM     18  CAD G97 d          24.833  -4.637 -21.264  0.00  0.00    -0.083 A 
ATOM     19  H2  G97 d          23.187  -5.610 -20.268  0.00  0.00     0.083 H 
ATOM     20  CAF G97 d          25.491  -3.434 -21.529  0.00  0.00    -0.082 A 
ATOM     21  H3  G97 d          25.212  -5.557 -21.691  0.00  0.00     0.083 H 
ATOM     22  CAI G97 d          25.027  -2.240 -20.971  0.00  0.00    -0.069 A 
ATOM     23  H4  G97 d          26.364  -3.427 -22.171  0.00  0.00     0.083 H 
ATOM     24  H5  G97 d          25.537  -1.304 -21.172  0.00  0.00     0.085 H 
ENDBRANCH   1  14
BRANCH  10  25
ATOM     25  NAR G97 d          22.929   2.352 -20.515  0.00  0.00    -0.325 N 
ATOM     26  H13 G97 d          23.053   2.268 -21.534  0.00  0.00     0.169 HD
BRANCH  25  27
ATOM     27  CAV G97 d          22.775   3.595 -19.994  0.00  0.00     0.124 A 
ATOM     28  CAJ G97 d          21.673   4.332 -20.109  0.00  0.00    -0.021 A 
ATOM     29  CAG G97 d          21.943   5.472 -19.467  0.00  0.00     0.025 A 
ATOM     30  H14 G97 d          20.749   4.063 -20.618  0.00  0.00     0.091 H 
ATOM     31  NAS G97 d          23.197   5.394 -18.992  0.00  0.00    -0.186 NA
ATOM     32  H15 G97 d          21.265   6.316 -19.350  0.00  0.00     0.117 H 
ATOM     33  NAN G97 d          23.685   4.295 -19.300  0.00  0.00    -0.263 N 
ATOM     34  H16 G97 d          24.633   3.973 -19.060  0.00  0.00     0.190 HD
ENDBRANCH  25  27
ENDBRANCH  10  25
BRANCH   6  35
ATOM     35  NAQ G97 d          21.113   0.908 -14.523  0.00  0.00    -0.324 N 
ATOM     36  CAT G97 d          20.073   1.505 -13.927  0.00  0.00     0.244 C 
ATOM     37  OAB G97 d          19.304   2.293 -14.488  0.00  0.00    -0.268 OA
ATOM     38  H7  G97 d          21.647   0.283 -13.956  0.00  0.00     0.169 HD
BRANCH  36  39
ATOM     39  CAC G97 d          19.849   1.197 -12.583  0.00  0.00    -0.026 C 
ATOM     40  CAA G97 d          20.594   0.216 -11.931  0.00  0.00    -0.116 C 
ATOM     41  H9  G97 d          20.402  -0.007 -10.883  0.00  0.00     0.067 H 
ATOM     42  H10 G97 d          21.369  -0.328 -12.471  0.00  0.00     0.067 H 
ATOM     43  H8  G97 d          19.077   1.734 -12.034  0.00  0.00     0.090 H 
ENDBRANCH  36  39
ENDBRANCH   6  35
TORSDOF 5
ENDMDL
MODEL 6
REMARK VINA RESULT:      -8.3      2.811      8.030
REMARK  5 active torsions:
REMARK  status: ('A' for Active; 'I' for Inactive)
REMARK    1  A    between atoms: CAW_6  and  C2_7 
REMARK    2  A    between atoms: CAU_12  and  NAQ_13 
REMARK       I    between atoms: NAQ_13  and  CAT_14 
REMARK    3  A    between atoms: CAT_14  and  CAC_16 
REMARK    4  A    between atoms: C6_21  and  NAR_22 
REMARK    5  A    between atoms: NAR_22  and  CAV_23 
ROOT
ATOM      1  C2  G97 d          21.232  -0.707 -13.895  0.00  0.00     0.162 A 
ATOM      2  N1  G97 d          20.666   0.490 -13.611  0.00  0.00    -0.210 NA
ATOM      3  N3  G97 d          21.836  -0.922 -15.081  0.00  0.00    -0.228 NA
ATOM      4  C4  G97 d          21.903   0.051 -16.000  0.00  0.00     0.075 A 
ATOM      5  CAM G97 d          22.550  -0.203 -17.210  0.00  0.00    -0.028 A 
ATOM      6  CAU G97 d          22.648   0.792 -18.181  0.00  0.00     0.037 A 
ATOM      7  CAK G97 d          22.079   2.052 -17.923  0.00  0.00    -0.056 A 
ATOM      8  CAL G97 d          21.426   2.304 -16.708  0.00  0.00    -0.065 A 
ATOM      9  C5  G97 d          21.335   1.301 -15.734  0.00  0.00     0.039 A 
ATOM     10  C6  G97 d          20.702   1.508 -14.497  0.00  0.00     0.144 A 
ATOM     11  H6  G97 d          22.979  -1.181 -17.396  0.00  0.00     0.090 H 
ATOM     12  H11 G97 d          22.146   2.835 -18.670  0.00  0.00     0.086 H 
ATOM     13  H12 G97 d          20.991   3.279 -16.521  0.00  0.00     0.085 H 
ENDROOT
BRANCH   1  14
ATOM     14  CAW G97 d          21.180  -1.771 -13.001  0.00  0.00     0.012 A 
ATOM     15  CAH G97 d          22.068  -2.848 -13.135  0.00  0.00    -0.069 A 
ATOM     16  CAE G97 d          22.054  -3.909 -12.230  0.00  0.00    -0.082 A 
ATOM     17  H1  G97 d          22.776  -2.855 -13.955  0.00  0.00     0.085 H 
ATOM     18  CAD G97 d          21.137  -3.878 -11.187  0.00  0.00    -0.083 A 
ATOM     19  H2  G97 d          22.743  -4.739 -12.338  0.00  0.00     0.083 H 
ATOM     20  CAF G97 d          20.257  -2.805 -11.030  0.00  0.00    -0.082 A 
ATOM     21  H3  G97 d          21.105  -4.701 -10.483  0.00  0.00     0.083 H 
ATOM     22  CAI G97 d          20.271  -1.744 -11.939  0.00  0.00    -0.069 A 
ATOM     23  H4  G97 d          19.560  -2.796 -10.200  0.00  0.00     0.083 H 
ATOM     24  H5  G97 d          19.588  -0.910 -11.823  0.00  0.00     0.085 H 
ENDBRANCH   1  14
BRANCH  10  25
ATOM     25  NAR G97 d          20.135   2.692 -14.184  0.00  0.00    -0.325 N 
ATOM     26  H13 G97 d          20.049   3.396 -14.931  0.00  0.00     0.169 HD
BRANCH  25  27
ATOM     27  CAV G97 d          19.673   3.014 -12.951  0.00  0.00     0.124 A 
ATOM     28  CAJ G97 d          20.114   4.034 -12.220  0.00  0.00    -0.021 A 
ATOM     29  CAG G97 d          19.406   3.989 -11.088  0.00  0.00     0.025 A 
ATOM     30  H14 G97 d          20.887   4.753 -12.487  0.00  0.00     0.091 H 
ATOM     31  NAS G97 d          18.568   2.942 -11.164  0.00  0.00    -0.186 NA
ATOM     32  H15 G97 d          19.493   4.679 -10.250  0.00  0.00     0.117 H 
ATOM     33  NAN G97 d          18.723   2.371 -12.255  0.00  0.00    -0.263 N 
ATOM     34  H16 G97 d          18.206   1.539 -12.574  0.00  0.00     0.190 HD
ENDBRANCH  25  27
ENDBRANCH  10  25
BRANCH   6  35
ATOM     35  NAQ G97 d          23.273   0.470 -19.332  0.00  0.00    -0.324 N 
ATOM     36  CAT G97 d          23.561  -0.754 -19.792  0.00  0.00     0.244 C 
ATOM     37  OAB G97 d          23.272  -1.806 -19.210  0.00  0.00    -0.268 OA
ATOM     38  H7  G97 d          23.554   1.235 -19.910  0.00  0.00     0.169 HD
BRANCH  36  39
ATOM     39  CAC G97 d          24.223  -0.831 -21.020  0.00  0.00    -0.026 C 
ATOM     40  CAA G97 d          25.238  -1.762 -21.237  0.00  0.00    -0.116 C 
ATOM     41  H9  G97 d          25.740  -1.804 -22.203  0.00  0.00     0.067 H 
ATOM     42  H10 G97 d          25.528  -2.448 -20.442  0.00  0.00     0.067 H 
ATOM     43  H8  G97 d          23.942  -0.151 -21.822  0.00  0.00     0.090 H 
ENDBRANCH  36  39
ENDBRANCH   6  35
TORSDOF 5
ENDMDL
MODEL 7
REMARK VINA RESULT:      -8.1      3.061      8.730
REMARK  5 active torsions:
REMARK  status: ('A' for Active; 'I' for Inactive)
REMARK    1  A    between atoms: CAW_6  and  C2_7 
REMARK    2  A    between atoms: CAU_12  and  NAQ_13 
REMARK       I    between atoms: NAQ_13  and  CAT_14 
REMARK    3  A    between atoms: CAT_14  and  CAC_16 
REMARK    4  A    between atoms: C6_21  and  NAR_22 
REMARK    5  A    between atoms: NAR_22  and  CAV_23 
ROOT
ATOM      1  C2  G97 d          20.627   2.573 -15.432  0.00  0.00     0.162 A 
ATOM      2  N1  G97 d          20.993   1.336 -15.022  0.00  0.00    -0.210 NA
ATOM      3  N3  G97 d          20.999   3.038 -16.641  0.00  0.00    -0.228 NA
ATOM      4  C4  G97 d          21.729   2.280 -17.470  0.00  0.00     0.075 A 
ATOM      5  CAM G97 d          22.084   2.790 -18.720  0.00  0.00    -0.028 A 
ATOM      6  CAU G97 d          22.831   2.021 -19.610  0.00  0.00     0.037 A 
ATOM      7  CAK G97 d          23.227   0.727 -19.225  0.00  0.00    -0.056 A 
ATOM      8  CAL G97 d          22.873   0.219 -17.967  0.00  0.00    -0.065 A 
ATOM      9  C5  G97 d          22.117   0.995 -17.079  0.00  0.00     0.039 A 
ATOM     10  C6  G97 d          21.728   0.526 -15.812  0.00  0.00     0.144 A 
ATOM     11  H6  G97 d          21.776   3.791 -19.000  0.00  0.00     0.090 H 
ATOM     12  H11 G97 d          23.811   0.118 -19.906  0.00  0.00     0.086 H 
ATOM     13  H12 G97 d          23.184  -0.779 -17.681  0.00  0.00     0.085 H 
ENDROOT
BRANCH   1  14
ATOM     14  CAW G97 d          19.891   3.426 -14.616  0.00  0.00     0.012 A 
ATOM     15  CAH G97 d          19.851   3.214 -13.230  0.00  0.00    -0.069 A 
ATOM     16  CAE G97 d          19.147   4.076 -12.391  0.00  0.00    -0.082 A 
ATOM     17  H1  G97 d          20.377   2.368 -12.805  0.00  0.00     0.085 H 
ATOM     18  CAD G97 d          18.479   5.155 -12.958  0.00  0.00    -0.083 A 
ATOM     19  H2  G97 d          19.120   3.909 -11.320  0.00  0.00     0.083 H 
ATOM     20  CAF G97 d          18.522   5.389 -14.334  0.00  0.00    -0.082 A 
ATOM     21  H3  G97 d          17.916   5.827 -12.321  0.00  0.00     0.083 H 
ATOM     22  CAI G97 d          19.228   4.522 -15.174  0.00  0.00    -0.069 A 
ATOM     23  H4  G97 d          18.006   6.245 -14.753  0.00  0.00     0.083 H 
ATOM     24  H5  G97 d          19.261   4.698 -16.243  0.00  0.00     0.085 H 
ENDBRANCH   1  14
BRANCH  10  25
ATOM     25  NAR G97 d          22.073  -0.705 -15.380  0.00  0.00    -0.325 N 
ATOM     26  H13 G97 d          22.995  -1.072 -15.657  0.00  0.00     0.169 HD
BRANCH  25  27
ATOM     27  CAV G97 d          21.285  -1.490 -14.605  0.00  0.00     0.124 A 
ATOM     28  CAJ G97 d          20.730  -2.632 -15.002  0.00  0.00    -0.021 A 
ATOM     29  CAG G97 d          20.037  -3.072 -13.948  0.00  0.00     0.025 A 
ATOM     30  H14 G97 d          20.821  -3.106 -15.978  0.00  0.00     0.091 H 
ATOM     31  NAS G97 d          20.187  -2.183 -12.952  0.00  0.00    -0.186 NA
ATOM     32  H15 G97 d          19.454  -3.991 -13.904  0.00  0.00     0.117 H 
ATOM     33  NAN G97 d          20.918  -1.257 -13.335  0.00  0.00    -0.263 N 
ATOM     34  H16 G97 d          21.197  -0.441 -12.771  0.00  0.00     0.190 HD
ENDBRANCH  25  27
ENDBRANCH  10  25
BRANCH   6  35
ATOM     35  NAQ G97 d          23.150   2.585 -20.793  0.00  0.00    -0.324 N 
ATOM     36  CAT G97 d          22.989   2.066 -22.017  0.00  0.00     0.244 C 
ATOM     37  OAB G97 d          22.492   0.958 -22.246  0.00  0.00    -0.268 OA
ATOM     38  H7  G97 d          23.555   3.498 -20.751  0.00  0.00     0.169 HD
BRANCH  36  39
ATOM     39  CAC G97 d          23.405   2.847 -23.098  0.00  0.00    -0.026 C 
ATOM     40  CAA G97 d          22.778   4.055 -23.402  0.00  0.00    -0.116 C 
ATOM     41  H9  G97 d          23.120   4.647 -24.249  0.00  0.00     0.067 H 
ATOM     42  H10 G97 d          21.947   4.406 -22.791  0.00  0.00     0.067 H 
ATOM     43  H8  G97 d          24.235   2.506 -23.715  0.00  0.00     0.090 H 
ENDBRANCH  36  39
ENDBRANCH   6  35
TORSDOF 5
ENDMDL
MODEL 8
REMARK VINA RESULT:      -7.9      3.190      7.677
REMARK  5 active torsions:
REMARK  status: ('A' for Active; 'I' for Inactive)
REMARK    1  A    between atoms: CAW_6  and  C2_7 
REMARK    2  A    between atoms: CAU_12  and  NAQ_13 
REMARK       I    between atoms: NAQ_13  and  CAT_14 
REMARK    3  A    between atoms: CAT_14  and  CAC_16 
REMARK    4  A    between atoms: C6_21  and  NAR_22 
REMARK    5  A    between atoms: NAR_22  and  CAV_23 
ROOT
ATOM      1  C2  G97 d          21.373  -0.550 -14.944  0.00  0.00     0.162 A 
ATOM      2  N1  G97 d          20.812   0.523 -14.339  0.00  0.00    -0.210 NA
ATOM      3  N3  G97 d          21.909  -0.448 -16.177  0.00  0.00    -0.228 NA
ATOM      4  C4  G97 d          21.912   0.725 -16.826  0.00  0.00     0.075 A 
ATOM      5  CAM G97 d          22.489   0.797 -18.094  0.00  0.00    -0.028 A 
ATOM      6  CAU G97 d          22.519   2.005 -18.788  0.00  0.00     0.037 A 
ATOM      7  CAK G97 d          21.953   3.146 -18.192  0.00  0.00    -0.056 A 
ATOM      8  CAL G97 d          21.370   3.070 -16.919  0.00  0.00    -0.065 A 
ATOM      9  C5  G97 d          21.347   1.855 -16.224  0.00  0.00     0.039 A 
ATOM     10  C6  G97 d          20.785   1.730 -14.942  0.00  0.00     0.144 A 
ATOM     11  H6  G97 d          22.916  -0.093 -18.542  0.00  0.00     0.090 H 
ATOM     12  H11 G97 d          21.967   4.093 -18.722  0.00  0.00     0.086 H 
ATOM     13  H12 G97 d          20.936   3.957 -16.471  0.00  0.00     0.085 H 
ENDROOT
BRANCH   1  14
ATOM     14  CAW G97 d          21.384  -1.805 -14.343  0.00  0.00     0.012 A 
ATOM     15  CAH G97 d          22.124  -2.018 -13.171  0.00  0.00    -0.069 A 
ATOM     16  CAE G97 d          22.123  -3.258 -12.535  0.00  0.00    -0.082 A 
ATOM     17  H1  G97 d          22.705  -1.204 -12.753  0.00  0.00     0.085 H 
ATOM     18  CAD G97 d          21.371  -4.287 -13.089  0.00  0.00    -0.083 A 
ATOM     19  H2  G97 d          22.696  -3.417 -11.628  0.00  0.00     0.083 H 
ATOM     20  CAF G97 d          20.616  -4.087 -14.247  0.00  0.00    -0.082 A 
ATOM     21  H3  G97 d          21.369  -5.261 -12.614  0.00  0.00     0.083 H 
ATOM     22  CAI G97 d          20.620  -2.842 -14.884  0.00  0.00    -0.069 A 
ATOM     23  H4  G97 d          20.025  -4.900 -14.654  0.00  0.00     0.083 H 
ATOM     24  H5  G97 d          20.038  -2.684 -15.785  0.00  0.00     0.085 H 
ENDBRANCH   1  14
BRANCH  10  25
ATOM     25  NAR G97 d          20.225   2.785 -14.313  0.00  0.00    -0.325 N 
ATOM     26  H13 G97 d          20.247   3.697 -14.790  0.00  0.00     0.169 HD
BRANCH  25  27
ATOM     27  CAV G97 d          19.636   2.719 -13.093  0.00  0.00     0.124 A 
ATOM     28  CAJ G97 d          19.971   3.474 -12.050  0.00  0.00    -0.021 A 
ATOM     29  CAG G97 d          19.159   3.088 -11.061  0.00  0.00     0.025 A 
ATOM     30  H14 G97 d          20.741   4.243 -12.011  0.00  0.00     0.091 H 
ATOM     31  NAS G97 d          18.368   2.110 -11.532  0.00  0.00    -0.186 NA
ATOM     32  H15 G97 d          19.143   3.495 -10.051  0.00  0.00     0.117 H 
ATOM     33  NAN G97 d          18.646   1.894 -12.722  0.00  0.00    -0.263 N 
ATOM     34  H16 G97 d          18.190   1.195 -13.326  0.00  0.00     0.190 HD
ENDBRANCH  25  27
ENDBRANCH  10  25
BRANCH   6  35
ATOM     35  NAQ G97 d          23.079   1.996 -20.015  0.00  0.00    -0.324 N 
ATOM     36  CAT G97 d          22.537   2.419 -21.164  0.00  0.00     0.244 C 
ATOM     37  OAB G97 d          21.408   2.911 -21.266  0.00  0.00    -0.268 OA
ATOM     38  H7  G97 d          24.007   1.629 -20.074  0.00  0.00     0.169 HD
BRANCH  36  39
ATOM     39  CAC G97 d          23.319   2.301 -22.316  0.00  0.00    -0.026 C 
ATOM     40  CAA G97 d          22.739   2.243 -23.582  0.00  0.00    -0.116 C 
ATOM     41  H9  G97 d          23.369   2.152 -24.466  0.00  0.00     0.067 H 
ATOM     42  H10 G97 d          21.656   2.290 -23.688  0.00  0.00     0.067 H 
ATOM     43  H8  G97 d          24.404   2.253 -22.223  0.00  0.00     0.090 H 
ENDBRANCH  36  39
ENDBRANCH   6  35
TORSDOF 5
ENDMDL
