MODEL 1
REMARK VINA RESULT:     -11.6      0.000      0.000
REMARK  7 active torsions:
REMARK  status: ('A' for Active; 'I' for Inactive)
REMARK    1  A    between atoms: C2_4  and  C8_8 
REMARK    2  A    between atoms: C4_6  and  C7_7 
REMARK    3  A    between atoms: C13_9  and  C14_10 
REMARK    4  A    between atoms: C16_16  and  C19_17 
REMARK    5  A    between atoms: C17_18  and  O20_19 
REMARK    6  A    between atoms: C48_24  and  C49_25 
REMARK    7  A    between atoms: C36_28  and  C38_29 
ROOT
ATOM      1  C8  GYN d           5.013  25.421  -8.131  0.00  0.00    -0.048 C 
ATOM      2  C13 GYN d           4.106  26.146  -7.445  0.00  0.00    -0.070 C 
ATOM      3  C12 GYN d           3.786  25.910  -5.984  0.00  0.00    -0.003 C 
ATOM      4  C27 GYN d           4.846  25.046  -5.284  0.00  0.00     0.011 C 
ATOM      5  C10 GYN d           5.149  23.845  -6.180  0.00  0.00    -0.049 C 
ATOM      6  C9  GYN d           5.670  24.186  -7.568  0.00  0.00    -0.041 C 
ATOM      7  C15 GYN d           3.627  27.250  -5.283  0.00  0.00    -0.090 C 
ATOM      8  C16 GYN d           2.485  27.751  -4.761  0.00  0.00    -0.059 C 
ATOM      9  C17 GYN d           2.557  29.112  -4.111  0.00  0.00     0.057 C 
ATOM     10  C18 GYN d           2.033  29.070  -2.680  0.00  0.00    -0.035 C 
ATOM     11  C21 GYN d           3.090  28.726  -1.646  0.00  0.00    -0.038 C 
ATOM     12  C43 GYN d           2.857  27.362  -1.013  0.00  0.00     0.040 C 
ATOM     13  C47 GYN d           3.532  27.189   0.343  0.00  0.00    -0.035 C 
ATOM     14  C48 GYN d           2.622  26.245   1.111  0.00  0.00    -0.026 C 
ATOM     15  O43 GYN d           1.485  27.006  -0.785  0.00  0.00    -0.376 OA
ATOM     16  C37 GYN d           1.481  25.914   0.156  0.00  0.00     0.063 C 
ATOM     17  C36 GYN d           1.692  24.569  -0.507  0.00  0.00    -0.059 C 
ATOM     18  C35 GYN d           2.168  24.524  -1.770  0.00  0.00    -0.098 C 
ATOM     19  C34 GYN d           2.451  23.284  -2.599  0.00  0.00    -0.045 C 
ATOM     20  C33 GYN d           2.941  23.681  -4.000  0.00  0.00    -0.025 C 
ATOM     21  C32 GYN d           4.271  24.433  -4.011  0.00  0.00     0.016 C 
ATOM     22  N31 GYN d           4.933  24.521  -2.930  0.00  0.00    -0.298 NA
ATOM     23  C30 GYN d           6.339  24.834  -2.719  0.00  0.00     0.015 C 
ATOM     24  C46 GYN d           6.607  26.050  -3.592  0.00  0.00    -0.047 C 
ATOM     25  C28 GYN d           6.129  25.875  -5.031  0.00  0.00    -0.051 C 
ATOM     26  H11 GYN d           2.826  25.374  -5.927  0.00  0.00     0.054 H 
ATOM     27  H12 GYN d           4.221  23.266  -6.298  0.00  0.00     0.035 H 
ATOM     28  H13 GYN d           5.906  23.226  -5.675  0.00  0.00     0.035 H 
ATOM     29  H14 GYN d           6.755  24.356  -7.508  0.00  0.00     0.039 H 
ATOM     30  H15 GYN d           5.469  23.339  -8.241  0.00  0.00     0.039 H 
ATOM     31  H16 GYN d           4.520  27.866  -5.194  0.00  0.00     0.078 H 
ATOM     32  H20 GYN d           3.599  29.464  -4.109  0.00  0.00     0.090 H 
ATOM     33  H22 GYN d           1.236  28.314  -2.625  0.00  0.00     0.037 H 
ATOM     34  H23 GYN d           1.619  30.059  -2.434  0.00  0.00     0.037 H 
ATOM     35  H24 GYN d           3.073  29.490  -0.855  0.00  0.00     0.036 H 
ATOM     36  H25 GYN d           4.076  28.725  -2.134  0.00  0.00     0.036 H 
ATOM     37  H26 GYN d           3.286  26.625  -1.708  0.00  0.00     0.083 H 
ATOM     38  H27 GYN d           3.614  28.155   0.861  0.00  0.00     0.037 H 
ATOM     39  H28 GYN d           4.533  26.751   0.225  0.00  0.00     0.037 H 
ATOM     40  H29 GYN d           3.164  25.330   1.396  0.00  0.00     0.043 H 
ATOM     41  H33 GYN d           0.525  25.890   0.699  0.00  0.00     0.091 H 
ATOM     42  H37 GYN d           2.372  25.482  -2.245  0.00  0.00     0.077 H 
ATOM     43  H38 GYN d           1.529  22.691  -2.691  0.00  0.00     0.039 H 
ATOM     44  H39 GYN d           3.227  22.684  -2.100  0.00  0.00     0.039 H 
ATOM     45  H40 GYN d           2.178  24.324  -4.463  0.00  0.00     0.042 H 
ATOM     46  H41 GYN d           3.059  22.764  -4.596  0.00  0.00     0.042 H 
ATOM     47  H42 GYN d           6.974  23.990  -3.027  0.00  0.00     0.067 H 
ATOM     48  H43 GYN d           6.529  25.068  -1.661  0.00  0.00     0.067 H 
ATOM     49  H44 GYN d           7.690  26.241  -3.604  0.00  0.00     0.035 H 
ATOM     50  H45 GYN d           6.087  26.916  -3.154  0.00  0.00     0.035 H 
ATOM     51  H46 GYN d           5.953  26.880  -5.441  0.00  0.00     0.034 H 
ATOM     52  H47 GYN d           6.944  25.390  -5.588  0.00  0.00     0.034 H 
ENDROOT
BRANCH   1  53
ATOM     53  C2  GYN d           5.442  25.860  -9.504  0.00  0.00     0.071 C 
ATOM     54  O1  GYN d           6.437  26.879  -9.386  0.00  0.00    -0.311 OA
ATOM     55  C5  GYN d           7.452  26.559 -10.363  0.00  0.00     0.263 C 
ATOM     56  O6  GYN d           8.429  27.261 -10.535  0.00  0.00    -0.265 OA
ATOM     57  C4  GYN d           7.182  25.320 -11.138  0.00  0.00     0.029 C 
ATOM     58  C3  GYN d           6.028  24.718 -10.345  0.00  0.00    -0.025 C 
ATOM     59  H4  GYN d           6.858  25.559 -12.162  0.00  0.00     0.055 H 
ATOM     60  H2  GYN d           5.264  24.317 -11.028  0.00  0.00     0.038 H 
ATOM     61  H3  GYN d           6.395  23.913  -9.692  0.00  0.00     0.038 H 
ATOM     62  H1  GYN d           4.564  26.266 -10.027  0.00  0.00     0.091 H 
BRANCH  57  63
ATOM     63  C7  GYN d           8.415  24.437 -11.220  0.00  0.00    -0.064 C 
ATOM     64  H5  GYN d           8.267  23.542 -10.597  0.00  0.00     0.028 H 
ATOM     65  H6  GYN d           9.291  24.995 -10.857  0.00  0.00     0.028 H 
ATOM     66  H7  GYN d           8.581  24.134 -12.264  0.00  0.00     0.028 H 
ENDBRANCH  57  63
ENDBRANCH   1  53
BRANCH   2  67
ATOM     67  C14 GYN d           3.368  27.270  -8.141  0.00  0.00    -0.054 C 
ATOM     68  H8  GYN d           4.094  27.994  -8.539  0.00  0.00     0.033 H 
ATOM     69  H9  GYN d           2.705  27.773  -7.423  0.00  0.00     0.033 H 
ATOM     70  H10 GYN d           2.769  26.859  -8.967  0.00  0.00     0.033 H 
ENDBRANCH   2  67
BRANCH   8  71
ATOM     71  C19 GYN d           1.165  27.020  -4.819  0.00  0.00    -0.052 C 
ATOM     72  H17 GYN d           1.205  26.251  -5.604  0.00  0.00     0.033 H 
ATOM     73  H18 GYN d           0.360  27.734  -5.046  0.00  0.00     0.033 H 
ATOM     74  H19 GYN d           0.967  26.542  -3.848  0.00  0.00     0.033 H 
ENDBRANCH   8  71
BRANCH   9  75
ATOM     75  O20 GYN d           1.735  30.012  -4.869  0.00  0.00    -0.391 OA
ATOM     76  H21 GYN d           0.860  30.029  -4.500  0.00  0.00     0.210 HD
ENDBRANCH   9  75
BRANCH  17  77
ATOM     77  C38 GYN d           1.345  23.304   0.245  0.00  0.00    -0.052 C 
ATOM     78  H34 GYN d           0.307  23.018   0.020  0.00  0.00     0.033 H 
ATOM     79  H35 GYN d           1.451  23.479   1.325  0.00  0.00     0.033 H 
ATOM     80  H36 GYN d           2.024  22.496  -0.065  0.00  0.00     0.033 H 
ENDBRANCH  17  77
BRANCH  14  81
ATOM     81  C49 GYN d           2.091  26.937   2.368  0.00  0.00    -0.070 C 
ATOM     82  H30 GYN d           1.186  27.510   2.117  0.00  0.00     0.028 H 
ATOM     83  H31 GYN d           2.858  27.618   2.763  0.00  0.00     0.028 H 
ATOM     84  H32 GYN d           1.847  26.180   3.128  0.00  0.00     0.028 H 
ENDBRANCH  14  81
TORSDOF 7
ENDMDL
MODEL 2
REMARK VINA RESULT:     -10.3      0.979      1.116
REMARK  7 active torsions:
REMARK  status: ('A' for Active; 'I' for Inactive)
REMARK    1  A    between atoms: C2_4  and  C8_8 
REMARK    2  A    between atoms: C4_6  and  C7_7 
REMARK    3  A    between atoms: C13_9  and  C14_10 
REMARK    4  A    between atoms: C16_16  and  C19_17 
REMARK    5  A    between atoms: C17_18  and  O20_19 
REMARK    6  A    between atoms: C48_24  and  C49_25 
REMARK    7  A    between atoms: C36_28  and  C38_29 
ROOT
ATOM      1  C8  GYN d           5.457  24.568  -8.055  0.00  0.00    -0.048 C 
ATOM      2  C13 GYN d           4.473  25.369  -7.597  0.00  0.00    -0.070 C 
ATOM      3  C12 GYN d           4.041  25.409  -6.146  0.00  0.00    -0.003 C 
ATOM      4  C27 GYN d           5.068  24.753  -5.211  0.00  0.00     0.011 C 
ATOM      5  C10 GYN d           5.484  23.415  -5.824  0.00  0.00    -0.049 C 
ATOM      6  C9  GYN d           6.106  23.501  -7.209  0.00  0.00    -0.041 C 
ATOM      7  C15 GYN d           3.781  26.852  -5.742  0.00  0.00    -0.090 C 
ATOM      8  C16 GYN d           2.584  27.389  -5.416  0.00  0.00    -0.059 C 
ATOM      9  C17 GYN d           2.556  28.854  -5.048  0.00  0.00     0.057 C 
ATOM     10  C18 GYN d           1.918  29.069  -3.681  0.00  0.00    -0.035 C 
ATOM     11  C21 GYN d           2.897  28.986  -2.524  0.00  0.00    -0.038 C 
ATOM     12  C43 GYN d           2.658  27.764  -1.650  0.00  0.00     0.040 C 
ATOM     13  C47 GYN d           3.224  27.894  -0.240  0.00  0.00    -0.035 C 
ATOM     14  C48 GYN d           2.285  27.076   0.632  0.00  0.00    -0.026 C 
ATOM     15  O43 GYN d           1.284  27.393  -1.458  0.00  0.00    -0.376 OA
ATOM     16  C37 GYN d           1.239  26.509  -0.320  0.00  0.00     0.063 C 
ATOM     17  C36 GYN d           1.548  25.072  -0.684  0.00  0.00    -0.059 C 
ATOM     18  C35 GYN d           2.128  24.803  -1.873  0.00  0.00    -0.098 C 
ATOM     19  C34 GYN d           2.519  23.439  -2.413  0.00  0.00    -0.045 C 
ATOM     20  C33 GYN d           3.109  23.576  -3.826  0.00  0.00    -0.025 C 
ATOM     21  C32 GYN d           4.410  24.375  -3.887  0.00  0.00     0.016 C 
ATOM     22  N31 GYN d           4.978  24.706  -2.799  0.00  0.00    -0.298 NA
ATOM     23  C30 GYN d           6.351  25.123  -2.551  0.00  0.00     0.015 C 
ATOM     24  C46 GYN d           6.649  26.155  -3.628  0.00  0.00    -0.047 C 
ATOM     25  C28 GYN d           6.298  25.677  -5.035  0.00  0.00    -0.051 C 
ATOM     26  H11 GYN d           3.099  24.849  -6.055  0.00  0.00     0.054 H 
ATOM     27  H12 GYN d           4.588  22.780  -5.892  0.00  0.00     0.035 H 
ATOM     28  H13 GYN d           6.217  22.945  -5.151  0.00  0.00     0.035 H 
ATOM     29  H14 GYN d           7.176  23.733  -7.104  0.00  0.00     0.039 H 
ATOM     30  H15 GYN d           5.989  22.530  -7.712  0.00  0.00     0.039 H 
ATOM     31  H16 GYN d           4.643  27.517  -5.711  0.00  0.00     0.078 H 
ATOM     32  H20 GYN d           3.583  29.249  -5.039  0.00  0.00     0.090 H 
ATOM     33  H22 GYN d           1.145  28.300  -3.535  0.00  0.00     0.037 H 
ATOM     34  H23 GYN d           1.452  30.065  -3.669  0.00  0.00     0.037 H 
ATOM     35  H24 GYN d           2.790  29.890  -1.905  0.00  0.00     0.036 H 
ATOM     36  H25 GYN d           3.919  28.938  -2.927  0.00  0.00     0.036 H 
ATOM     37  H26 GYN d           3.167  26.927  -2.150  0.00  0.00     0.083 H 
ATOM     38  H27 GYN d           3.231  28.947   0.079  0.00  0.00     0.037 H 
ATOM     39  H28 GYN d           4.245  27.491  -0.194  0.00  0.00     0.037 H 
ATOM     40  H29 GYN d           2.831  26.264   1.133  0.00  0.00     0.043 H 
ATOM     41  H33 GYN d           0.242  26.545   0.144  0.00  0.00     0.091 H 
ATOM     42  H37 GYN d           2.338  25.657  -2.514  0.00  0.00     0.077 H 
ATOM     43  H38 GYN d           1.628  22.795  -2.453  0.00  0.00     0.039 H 
ATOM     44  H39 GYN d           3.270  22.987  -1.749  0.00  0.00     0.039 H 
ATOM     45  H40 GYN d           2.366  24.078  -4.463  0.00  0.00     0.042 H 
ATOM     46  H41 GYN d           3.306  22.566  -4.216  0.00  0.00     0.042 H 
ATOM     47  H42 GYN d           7.036  24.267  -2.636  0.00  0.00     0.067 H 
ATOM     48  H43 GYN d           6.444  25.569  -1.551  0.00  0.00     0.067 H 
ATOM     49  H44 GYN d           7.722  26.393  -3.598  0.00  0.00     0.035 H 
ATOM     50  H45 GYN d           6.066  27.064  -3.412  0.00  0.00     0.035 H 
ATOM     51  H46 GYN d           6.123  26.572  -5.649  0.00  0.00     0.034 H 
ATOM     52  H47 GYN d           7.172  25.133  -5.421  0.00  0.00     0.034 H 
ENDROOT
BRANCH   1  53
ATOM     53  C2  GYN d           5.984  24.749  -9.452  0.00  0.00     0.071 C 
ATOM     54  O1  GYN d           5.202  25.734 -10.129  0.00  0.00    -0.311 OA
ATOM     55  C5  GYN d           6.143  26.571 -10.838  0.00  0.00     0.263 C 
ATOM     56  O6  GYN d           5.785  27.494 -11.543  0.00  0.00    -0.265 OA
ATOM     57  C4  GYN d           7.566  26.189 -10.640  0.00  0.00     0.029 C 
ATOM     58  C3  GYN d           7.451  25.197  -9.489  0.00  0.00    -0.025 C 
ATOM     59  H4  GYN d           7.967  25.691 -11.535  0.00  0.00     0.055 H 
ATOM     60  H2  GYN d           8.109  24.333  -9.663  0.00  0.00     0.038 H 
ATOM     61  H3  GYN d           7.725  25.682  -8.540  0.00  0.00     0.038 H 
ATOM     62  H1  GYN d           5.897  23.788  -9.981  0.00  0.00     0.091 H 
BRANCH  57  63
ATOM     63  C7  GYN d           8.429  27.403 -10.339  0.00  0.00    -0.064 C 
ATOM     64  H5  GYN d           9.169  27.144  -9.567  0.00  0.00     0.028 H 
ATOM     65  H6  GYN d           7.794  28.224  -9.977  0.00  0.00     0.028 H 
ATOM     66  H7  GYN d           8.950  27.719 -11.255  0.00  0.00     0.028 H 
ENDBRANCH  57  63
ENDBRANCH   1  53
BRANCH   2  67
ATOM     67  C14 GYN d           3.759  26.296  -8.557  0.00  0.00    -0.054 C 
ATOM     68  H8  GYN d           3.188  27.044  -7.988  0.00  0.00     0.033 H 
ATOM     69  H9  GYN d           3.071  25.713  -9.187  0.00  0.00     0.033 H 
ATOM     70  H10 GYN d           4.497  26.804  -9.194  0.00  0.00     0.033 H 
ENDBRANCH   2  67
BRANCH   8  71
ATOM     71  C19 GYN d           1.298  26.598  -5.425  0.00  0.00    -0.052 C 
ATOM     72  H17 GYN d           1.511  25.554  -5.701  0.00  0.00     0.033 H 
ATOM     73  H18 GYN d           0.602  27.035  -6.157  0.00  0.00     0.033 H 
ATOM     74  H19 GYN d           0.843  26.627  -4.424  0.00  0.00     0.033 H 
ENDBRANCH   8  71
BRANCH   9  75
ATOM     75  O20 GYN d           1.771  29.546  -6.031  0.00  0.00    -0.391 OA
ATOM     76  H21 GYN d           1.748  30.472  -5.821  0.00  0.00     0.210 HD
ENDBRANCH   9  75
BRANCH  17  77
ATOM     77  C38 GYN d           1.182  23.964   0.278  0.00  0.00    -0.052 C 
ATOM     78  H34 GYN d           1.719  23.046   0.001  0.00  0.00     0.033 H 
ATOM     79  H35 GYN d           0.099  23.782   0.232  0.00  0.00     0.033 H 
ATOM     80  H36 GYN d           1.462  24.259   1.300  0.00  0.00     0.033 H 
ENDBRANCH  17  77
BRANCH  14  81
ATOM     81  C49 GYN d           1.630  27.976   1.682  0.00  0.00    -0.070 C 
ATOM     82  H30 GYN d           1.950  29.017   1.525  0.00  0.00     0.028 H 
ATOM     83  H31 GYN d           1.932  27.647   2.686  0.00  0.00     0.028 H 
ATOM     84  H32 GYN d           0.536  27.911   1.589  0.00  0.00     0.028 H 
ENDBRANCH  14  81
TORSDOF 7
ENDMDL
