MODEL 1
REMARK VINA RESULT:     -10.8      0.000      0.000
REMARK  17 active torsions:
REMARK  status: ('A' for Active; 'I' for Inactive)
REMARK    1  A    between atoms: C_1  and  C2_4 
REMARK    2  A    between atoms: CA_14  and  N_13 
REMARK    3  A    between atoms: C1_15  and  CA_14 
REMARK    4  A    between atoms: CA_14  and  CB_17 
REMARK       I    between atoms: N2_24  and  C1_15 
REMARK    5  A    between atoms: CB_17  and  CG_18 
REMARK    6  A    between atoms: C9_21  and  O2_22 
REMARK    7  A    between atoms: CA1_23  and  C9_21 
REMARK    8  A    between atoms: C9_21  and  CM_33 
REMARK    9  A    between atoms: CA1_23  and  N2_24 
REMARK   10  A    between atoms: CA1_23  and  CB1_25 
REMARK   11  A    between atoms: CB1_25  and  CG1_26 
REMARK   12  A    between atoms: CM_33  and  N11_32 
REMARK   13  A    between atoms: C21_34  and  CC_35 
REMARK       I    between atoms: CC_35  and  N3_45 
REMARK   14  A    between atoms: N3_45  and  CD_46 
REMARK   15  A    between atoms: CD_46  and  C11_47 
REMARK   16  A    between atoms: CD_46  and  C22_48 
REMARK   17  A    between atoms: CD_46  and  C32_49 
ROOT
ATOM      1  C9  ROC d           0.614   5.327   9.366  0.00  0.00     0.078 C 
ATOM      2  H13 ROC d           0.475   5.560   8.300  0.00  0.00     0.088 H 
ENDROOT
BRANCH   1   3
ATOM      3  O2  ROC d           1.776   4.572   9.547  0.00  0.00    -0.392 OA
ATOM      4  H14 ROC d           2.061   4.226   8.710  0.00  0.00     0.210 HD
ENDBRANCH   1   3
BRANCH   1   5
ATOM      5  CA1 ROC d          -0.574   4.501   9.882  0.00  0.00     0.041 C 
ATOM      6  H15 ROC d          -1.116   5.146  10.590  0.00  0.00     0.076 H 
BRANCH   5   7
ATOM      7  N2  ROC d          -1.505   4.209   8.768  0.00  0.00    -0.363 N 
ATOM      8  C1  ROC d          -2.246   5.268   8.265  0.00  0.00     0.175 C 
ATOM      9  O1  ROC d          -2.247   6.588   8.474  0.00  0.00    -0.175 OA
ATOM     10  H16 ROC d          -1.596   3.286   8.394  0.00  0.00     0.162 HD
BRANCH   8  11
ATOM     11  CA  ROC d          -3.279   4.805   7.235  0.00  0.00     0.083 C 
ATOM     12  H8  ROC d          -2.728   4.552   6.318  0.00  0.00     0.086 H 
BRANCH  11  13
ATOM     13  N   ROC d          -3.938   3.608   7.695  0.00  0.00    -0.354 N 
ATOM     14  C   ROC d          -3.902   2.550   6.844  0.00  0.00     0.204 C 
ATOM     15  O   ROC d          -3.301   2.276   5.691  0.00  0.00    -0.170 OA
ATOM     16  H7  ROC d          -4.393   3.560   8.585  0.00  0.00     0.162 HD
BRANCH  14  17
ATOM     17  C2  ROC d          -4.814   1.425   7.341  0.00  0.00     0.111 A 
ATOM     18  N1  ROC d          -5.662   1.678   8.390  0.00  0.00    -0.244 NA
ATOM     19  C8A ROC d          -6.493   0.684   8.882  0.00  0.00     0.068 A 
ATOM     20  C8  ROC d          -7.331   0.967   9.940  0.00  0.00    -0.054 A 
ATOM     21  C4A ROC d          -6.473  -0.585   8.304  0.00  0.00    -0.007 A 
ATOM     22  C7  ROC d          -8.178  -0.046  10.448  0.00  0.00    -0.081 A 
ATOM     23  H6  ROC d          -7.339   1.958  10.380  0.00  0.00     0.087 H 
ATOM     24  C6  ROC d          -8.163  -1.302   9.877  0.00  0.00    -0.082 A 
ATOM     25  H5  ROC d          -8.837   0.164  11.283  0.00  0.00     0.083 H 
ATOM     26  C5  ROC d          -7.319  -1.584   8.810  0.00  0.00    -0.071 A 
ATOM     27  H4  ROC d          -8.817  -2.076  10.264  0.00  0.00     0.083 H 
ATOM     28  H3  ROC d          -7.314  -2.574   8.369  0.00  0.00     0.084 H 
ATOM     29  C4  ROC d          -5.623  -0.847   7.242  0.00  0.00    -0.068 A 
ATOM     30  C3  ROC d          -4.789   0.152   6.758  0.00  0.00    -0.050 A 
ATOM     31  H2  ROC d          -5.609  -1.832   6.789  0.00  0.00     0.085 H 
ATOM     32  H1  ROC d          -4.120  -0.053   5.930  0.00  0.00     0.087 H 
ENDBRANCH  14  17
ENDBRANCH  11  13
BRANCH  11  33
ATOM     33  CB  ROC d          -4.308   5.880   6.858  0.00  0.00     0.023 C 
ATOM     34  H9  ROC d          -4.294   6.670   7.624  0.00  0.00     0.049 H 
ATOM     35  H10 ROC d          -5.307   5.419   6.825  0.00  0.00     0.049 H 
BRANCH  33  36
ATOM     36  CG  ROC d          -4.007   6.515   5.481  0.00  0.00     0.151 C 
ATOM     37  OD1 ROC d          -4.558   5.827   4.450  0.00  0.00    -0.178 OA
ATOM     38  ND2 ROC d          -3.241   7.633   5.638  0.00  0.00    -0.381 N 
ATOM     39  H11 ROC d          -2.959   8.162   4.837  0.00  0.00     0.158 HD
ATOM     40  H12 ROC d          -2.962   7.923   6.553  0.00  0.00     0.158 HD
ENDBRANCH  33  36
ENDBRANCH  11  33
ENDBRANCH   8  11
ENDBRANCH   5   7
BRANCH   5  41
ATOM     41  CB1 ROC d          -0.190   3.249  10.665  0.00  0.00    -0.020 C 
ATOM     42  H17 ROC d           0.172   3.545  11.661  0.00  0.00     0.043 H 
ATOM     43  H18 ROC d           0.610   2.720  10.126  0.00  0.00     0.043 H 
BRANCH  41  44
ATOM     44  CG1 ROC d          -1.399   2.302  10.830  0.00  0.00    -0.056 A 
ATOM     45  CD1 ROC d          -1.367   1.006  10.350  0.00  0.00    -0.077 A 
ATOM     46  CE1 ROC d          -2.490   0.161  10.508  0.00  0.00    -0.082 A 
ATOM     47  H19 ROC d          -0.478   0.635   9.851  0.00  0.00     0.084 H 
ATOM     48  CZ  ROC d          -3.632   0.627  11.148  0.00  0.00    -0.083 A 
ATOM     49  H21 ROC d          -2.460  -0.854  10.129  0.00  0.00     0.083 H 
ATOM     50  CE2 ROC d          -3.669   1.922  11.628  0.00  0.00    -0.082 A 
ATOM     51  H23 ROC d          -4.491  -0.024  11.271  0.00  0.00     0.083 H 
ATOM     52  CD2 ROC d          -2.552   2.764  11.467  0.00  0.00    -0.077 A 
ATOM     53  H22 ROC d          -4.557   2.290  12.127  0.00  0.00     0.083 H 
ATOM     54  H20 ROC d          -2.587   3.781  11.842  0.00  0.00     0.084 H 
ENDBRANCH  41  44
ENDBRANCH   5  41
ENDBRANCH   1   5
BRANCH   1  55
ATOM     55  CM  ROC d           0.734   6.598  10.153  0.00  0.00     0.110 C 
ATOM     56  H25 ROC d           1.080   6.345  11.167  0.00  0.00     0.080 H 
ATOM     57  H26 ROC d          -0.261   7.064  10.211  0.00  0.00     0.080 H 
BRANCH  55  58
ATOM     58  N11 ROC d           1.675   7.584   9.575  0.00  0.00    -0.057 N 
ATOM     59  C21 ROC d           2.830   7.903  10.463  0.00  0.00     0.167 C 
ATOM     60  C31 ROC d           3.693   8.968   9.811  0.00  0.00    -0.027 C 
ATOM     61  H27 ROC d           3.431   6.983  10.524  0.00  0.00     0.098 H 
ATOM     62  C3A ROC d           2.985  10.208   9.320  0.00  0.00    -0.047 C 
ATOM     63  H28 ROC d           4.196   8.508   8.948  0.00  0.00     0.037 H 
ATOM     64  H29 ROC d           4.446   9.284  10.549  0.00  0.00     0.037 H 
ATOM     65  C41 ROC d           2.613  11.141  10.490  0.00  0.00    -0.061 C 
ATOM     66  C7A ROC d           1.807   9.836   8.472  0.00  0.00    -0.027 C 
ATOM     67  H30 ROC d           3.688  10.759   8.678  0.00  0.00     0.040 H 
ATOM     68  C51 ROC d           1.874  12.349  10.064  0.00  0.00    -0.065 C 
ATOM     69  H31 ROC d           3.539  11.458  10.992  0.00  0.00     0.033 H 
ATOM     70  H32 ROC d           1.985  10.581  11.199  0.00  0.00     0.033 H 
ATOM     71  C61 ROC d           0.650  11.986   9.241  0.00  0.00    -0.065 C 
ATOM     72  H33 ROC d           2.539  12.981   9.457  0.00  0.00     0.033 H 
ATOM     73  H34 ROC d           1.553  12.906  10.956  0.00  0.00     0.033 H 
ATOM     74  C71 ROC d           0.982  11.041   8.082  0.00  0.00    -0.060 C 
ATOM     75  H35 ROC d           0.214  12.908   8.830  0.00  0.00     0.033 H 
ATOM     76  H36 ROC d          -0.084  11.495   9.897  0.00  0.00     0.033 H 
ATOM     77  H37 ROC d           1.542  11.609   7.325  0.00  0.00     0.033 H 
ATOM     78  H38 ROC d           0.037  10.684   7.649  0.00  0.00     0.033 H 
ATOM     79  C81 ROC d           0.924   8.777   9.160  0.00  0.00     0.088 C 
ATOM     80  H39 ROC d           2.199   9.390   7.546  0.00  0.00     0.043 H 
ATOM     81  H40 ROC d           0.464   9.230  10.051  0.00  0.00     0.076 H 
ATOM     82  H41 ROC d           0.136   8.468   8.457  0.00  0.00     0.076 H 
ATOM     83  H24 ROC d           2.063   7.170   8.742  0.00  0.00     0.281 HD
BRANCH  59  84
ATOM     84  CC  ROC d           2.512   8.293  11.899  0.00  0.00     0.183 C 
ATOM     85  O3  ROC d           1.265   8.633  12.154  0.00  0.00    -0.175 OA
ATOM     86  N3  ROC d           3.638   8.215  12.715  0.00  0.00    -0.362 N 
ATOM     87  H42 ROC d           4.497   7.873  12.335  0.00  0.00     0.162 HD
BRANCH  86  88
ATOM     88  CD  ROC d           3.584   8.634  14.157  0.00  0.00     0.021 C 
BRANCH  88  89
ATOM     89  C11 ROC d           3.247  10.087  14.149  0.00  0.00    -0.054 C 
ATOM     90  H43 ROC d           3.461  10.518  15.138  0.00  0.00     0.030 H 
ATOM     91  H44 ROC d           2.179  10.214  13.916  0.00  0.00     0.030 H 
ATOM     92  H45 ROC d           3.852  10.600  13.387  0.00  0.00     0.030 H 
ENDBRANCH  88  89
BRANCH  88  93
ATOM     93  C22 ROC d           4.911   8.421  14.830  0.00  0.00    -0.054 C 
ATOM     94  H46 ROC d           5.407   7.542  14.393  0.00  0.00     0.030 H 
ATOM     95  H47 ROC d           4.754   8.257  15.906  0.00  0.00     0.030 H 
ATOM     96  H48 ROC d           5.543   9.309  14.683  0.00  0.00     0.030 H 
ENDBRANCH  88  93
BRANCH  88  97
ATOM     97  C32 ROC d           2.510   7.871  14.909  0.00  0.00    -0.054 C 
ATOM     98  H49 ROC d           2.064   7.115  14.246  0.00  0.00     0.030 H 
ATOM     99  H50 ROC d           1.730   8.570  15.244  0.00  0.00     0.030 H 
ATOM    100  H51 ROC d           2.957   7.374  15.783  0.00  0.00     0.030 H 
ENDBRANCH  88  97
ENDBRANCH  86  88
ENDBRANCH  59  84
ENDBRANCH  55  58
ENDBRANCH   1  55
TORSDOF 17
ENDMDL
MODEL 2
REMARK VINA RESULT:     -10.8      1.901      5.106
REMARK  17 active torsions:
REMARK  status: ('A' for Active; 'I' for Inactive)
REMARK    1  A    between atoms: C_1  and  C2_4 
REMARK    2  A    between atoms: CA_14  and  N_13 
REMARK    3  A    between atoms: C1_15  and  CA_14 
REMARK    4  A    between atoms: CA_14  and  CB_17 
REMARK       I    between atoms: N2_24  and  C1_15 
REMARK    5  A    between atoms: CB_17  and  CG_18 
REMARK    6  A    between atoms: C9_21  and  O2_22 
REMARK    7  A    between atoms: CA1_23  and  C9_21 
REMARK    8  A    between atoms: C9_21  and  CM_33 
REMARK    9  A    between atoms: CA1_23  and  N2_24 
REMARK   10  A    between atoms: CA1_23  and  CB1_25 
REMARK   11  A    between atoms: CB1_25  and  CG1_26 
REMARK   12  A    between atoms: CM_33  and  N11_32 
REMARK   13  A    between atoms: C21_34  and  CC_35 
REMARK       I    between atoms: CC_35  and  N3_45 
REMARK   14  A    between atoms: N3_45  and  CD_46 
REMARK   15  A    between atoms: CD_46  and  C11_47 
REMARK   16  A    between atoms: CD_46  and  C22_48 
REMARK   17  A    between atoms: CD_46  and  C32_49 
ROOT
ATOM      1  C9  ROC d           0.367   5.206   9.349  0.00  0.00     0.078 C 
ATOM      2  H13 ROC d           0.125   5.364   8.288  0.00  0.00     0.088 H 
ENDROOT
BRANCH   1   3
ATOM      3  O2  ROC d           1.589   4.541   9.472  0.00  0.00    -0.392 OA
ATOM      4  H14 ROC d           1.663   4.175  10.346  0.00  0.00     0.210 HD
ENDBRANCH   1   3
BRANCH   1   5
ATOM      5  CA1 ROC d          -0.715   4.338  10.010  0.00  0.00     0.041 C 
ATOM      6  H15 ROC d          -1.080   4.904  10.880  0.00  0.00     0.076 H 
BRANCH   5   7
ATOM      7  N2  ROC d          -1.863   4.178   9.089  0.00  0.00    -0.363 N 
ATOM      8  C1  ROC d          -2.996   4.933   9.350  0.00  0.00     0.175 C 
ATOM      9  O1  ROC d          -3.286   5.912  10.213  0.00  0.00    -0.175 OA
ATOM     10  H16 ROC d          -1.824   3.550   8.312  0.00  0.00     0.162 HD
BRANCH   8  11
ATOM     11  CA  ROC d          -4.159   4.559   8.429  0.00  0.00     0.083 C 
ATOM     12  H8  ROC d          -5.011   4.298   9.074  0.00  0.00     0.086 H 
BRANCH  11  13
ATOM     13  N   ROC d          -4.546   5.695   7.630  0.00  0.00    -0.354 N 
ATOM     14  C   ROC d          -3.538   6.327   6.974  0.00  0.00     0.204 C 
ATOM     15  O   ROC d          -2.243   6.103   6.777  0.00  0.00    -0.170 OA
ATOM     16  H7  ROC d          -5.497   5.998   7.563  0.00  0.00     0.162 HD
BRANCH  14  17
ATOM     17  C2  ROC d          -4.036   7.633   6.348  0.00  0.00     0.111 A 
ATOM     18  N1  ROC d          -5.386   7.811   6.178  0.00  0.00    -0.244 NA
ATOM     19  C8A ROC d          -5.879   8.970   5.601  0.00  0.00     0.068 A 
ATOM     20  C8  ROC d          -7.240   9.117   5.439  0.00  0.00    -0.054 A 
ATOM     21  C4A ROC d          -4.997   9.970   5.192  0.00  0.00    -0.007 A 
ATOM     22  C7  ROC d          -7.747  10.298   4.847  0.00  0.00    -0.081 A 
ATOM     23  H6  ROC d          -7.916   8.335   5.762  0.00  0.00     0.087 H 
ATOM     24  C6  ROC d          -6.878  11.291   4.443  0.00  0.00    -0.082 A 
ATOM     25  H5  ROC d          -8.816  10.423   4.710  0.00  0.00     0.083 H 
ATOM     26  C5  ROC d          -5.506  11.140   4.609  0.00  0.00    -0.071 A 
ATOM     27  H4  ROC d          -7.268  12.198   3.994  0.00  0.00     0.083 H 
ATOM     28  H3  ROC d          -4.832  11.925   4.288  0.00  0.00     0.084 H 
ATOM     29  C4  ROC d          -3.633   9.800   5.364  0.00  0.00    -0.068 A 
ATOM     30  C3  ROC d          -3.145   8.633   5.938  0.00  0.00    -0.050 A 
ATOM     31  H2  ROC d          -2.945  10.577   5.051  0.00  0.00     0.085 H 
ATOM     32  H1  ROC d          -2.078   8.497   6.068  0.00  0.00     0.087 H 
ENDBRANCH  14  17
ENDBRANCH  11  13
BRANCH  11  33
ATOM     33  CB  ROC d          -3.882   3.339   7.538  0.00  0.00     0.023 C 
ATOM     34  H9  ROC d          -2.796   3.167   7.501  0.00  0.00     0.049 H 
ATOM     35  H10 ROC d          -4.256   3.548   6.525  0.00  0.00     0.049 H 
BRANCH  33  36
ATOM     36  CG  ROC d          -4.571   2.062   8.072  0.00  0.00     0.151 C 
ATOM     37  OD1 ROC d          -4.081   0.926   7.515  0.00  0.00    -0.178 OA
ATOM     38  ND2 ROC d          -5.528   2.392   8.987  0.00  0.00    -0.381 N 
ATOM     39  H11 ROC d          -6.066   1.675   9.427  0.00  0.00     0.158 HD
ATOM     40  H12 ROC d          -5.689   3.352   9.216  0.00  0.00     0.158 HD
ENDBRANCH  33  36
ENDBRANCH  11  33
ENDBRANCH   8  11
ENDBRANCH   5   7
BRANCH   5  41
ATOM     41  CB1 ROC d          -0.216   3.004  10.558  0.00  0.00    -0.020 C 
ATOM     42  H17 ROC d           0.328   3.182  11.497  0.00  0.00     0.043 H 
ATOM     43  H18 ROC d           0.460   2.544   9.823  0.00  0.00     0.043 H 
BRANCH  41  44
ATOM     44  CG1 ROC d          -1.392   2.039  10.834  0.00  0.00    -0.056 A 
ATOM     45  CD1 ROC d          -2.440   2.402  11.658  0.00  0.00    -0.077 A 
ATOM     46  CE1 ROC d          -3.500   1.498  11.900  0.00  0.00    -0.082 A 
ATOM     47  H19 ROC d          -2.450   3.383  12.121  0.00  0.00     0.084 H 
ATOM     48  CZ  ROC d          -3.496   0.240  11.309  0.00  0.00    -0.083 A 
ATOM     49  H21 ROC d          -4.319   1.787  12.548  0.00  0.00     0.083 H 
ATOM     50  CE2 ROC d          -2.449  -0.126  10.485  0.00  0.00    -0.082 A 
ATOM     51  H23 ROC d          -4.312  -0.450  11.493  0.00  0.00     0.083 H 
ATOM     52  CD2 ROC d          -1.392   0.773  10.248  0.00  0.00    -0.077 A 
ATOM     53  H22 ROC d          -2.441  -1.106  10.023  0.00  0.00     0.083 H 
ATOM     54  H20 ROC d          -0.571   0.479   9.604  0.00  0.00     0.084 H 
ENDBRANCH  41  44
ENDBRANCH   5  41
ENDBRANCH   1   5
BRANCH   1  55
ATOM     55  CM  ROC d           0.462   6.528  10.052  0.00  0.00     0.110 C 
ATOM     56  H25 ROC d           0.704   6.341  11.109  0.00  0.00     0.080 H 
ATOM     57  H26 ROC d          -0.517   7.027   9.983  0.00  0.00     0.080 H 
BRANCH  55  58
ATOM     58  N11 ROC d           1.487   7.440   9.496  0.00  0.00    -0.057 N 
ATOM     59  C21 ROC d           2.644   7.670  10.409  0.00  0.00     0.167 C 
ATOM     60  C31 ROC d           3.599   8.666   9.778  0.00  0.00    -0.027 C 
ATOM     61  H27 ROC d           3.171   6.707  10.482  0.00  0.00     0.098 H 
ATOM     62  C3A ROC d           2.998   9.956   9.274  0.00  0.00    -0.047 C 
ATOM     63  H28 ROC d           4.084   8.169   8.925  0.00  0.00     0.037 H 
ATOM     64  H29 ROC d           4.357   8.924  10.532  0.00  0.00     0.037 H 
ATOM     65  C41 ROC d           2.673  10.915  10.437  0.00  0.00    -0.061 C 
ATOM     66  C7A ROC d           1.813   9.675   8.400  0.00  0.00    -0.027 C 
ATOM     67  H30 ROC d           3.754  10.452   8.647  0.00  0.00     0.040 H 
ATOM     68  C51 ROC d           2.037  12.176   9.997  0.00  0.00    -0.065 C 
ATOM     69  H31 ROC d           3.609  11.161  10.959  0.00  0.00     0.033 H 
ATOM     70  H32 ROC d           1.989  10.404  11.131  0.00  0.00     0.033 H 
ATOM     71  C61 ROC d           0.807  11.906   9.147  0.00  0.00    -0.065 C 
ATOM     72  H33 ROC d           2.761  12.755   9.405  0.00  0.00     0.033 H 
ATOM     73  H34 ROC d           1.740  12.756  10.883  0.00  0.00     0.033 H 
ATOM     74  C71 ROC d           1.091  10.939   7.995  0.00  0.00    -0.060 C 
ATOM     75  H35 ROC d           0.451  12.859   8.728  0.00  0.00     0.033 H 
ATOM     76  H36 ROC d           0.024  11.473   9.786  0.00  0.00     0.033 H 
ATOM     77  H37 ROC d           1.708  11.463   7.250  0.00  0.00     0.033 H 
ATOM     78  H38 ROC d           0.131  10.655   7.540  0.00  0.00     0.033 H 
ATOM     79  C81 ROC d           0.838   8.686   9.067  0.00  0.00     0.088 C 
ATOM     80  H39 ROC d           2.190   9.201   7.481  0.00  0.00     0.043 H 
ATOM     81  H40 ROC d           0.394   9.173   9.949  0.00  0.00     0.076 H 
ATOM     82  H41 ROC d           0.044   8.438   8.347  0.00  0.00     0.076 H 
ATOM     83  H24 ROC d           1.860   6.998   8.671  0.00  0.00     0.281 HD
BRANCH  59  84
ATOM     84  CC  ROC d           2.325   8.083  11.838  0.00  0.00     0.183 C 
ATOM     85  O3  ROC d           1.065   8.365  12.103  0.00  0.00    -0.175 OA
ATOM     86  N3  ROC d           3.464   8.085  12.640  0.00  0.00    -0.362 N 
ATOM     87  H42 ROC d           4.335   7.778  12.256  0.00  0.00     0.162 HD
BRANCH  86  88
ATOM     88  CD  ROC d           3.409   8.541  14.070  0.00  0.00     0.021 C 
BRANCH  88  89
ATOM     89  C11 ROC d           4.817   8.522  14.562  0.00  0.00    -0.054 C 
ATOM     90  H43 ROC d           5.274   9.510  14.405  0.00  0.00     0.030 H 
ATOM     91  H44 ROC d           5.388   7.761  14.008  0.00  0.00     0.030 H 
ATOM     92  H45 ROC d           4.827   8.279  15.634  0.00  0.00     0.030 H 
ENDBRANCH  88  89
BRANCH  88  93
ATOM     93  C22 ROC d           2.566   7.614  14.899  0.00  0.00    -0.054 C 
ATOM     94  H46 ROC d           3.146   6.712  15.146  0.00  0.00     0.030 H 
ATOM     95  H47 ROC d           1.668   7.328  14.331  0.00  0.00     0.030 H 
ATOM     96  H48 ROC d           2.265   8.121  15.827  0.00  0.00     0.030 H 
ENDBRANCH  88  93
BRANCH  88  97
ATOM     97  C32 ROC d           2.858   9.950  14.174  0.00  0.00    -0.054 C 
ATOM     98  H49 ROC d           3.380  10.603  13.459  0.00  0.00     0.030 H 
ATOM     99  H50 ROC d           3.011  10.330  15.195  0.00  0.00     0.030 H 
ATOM    100  H51 ROC d           1.781   9.942  13.944  0.00  0.00     0.030 H 
ENDBRANCH  88  97
ENDBRANCH  86  88
ENDBRANCH  59  84
ENDBRANCH  55  58
ENDBRANCH   1  55
TORSDOF 17
ENDMDL
MODEL 3
REMARK VINA RESULT:      -9.5      1.443      3.211
REMARK  17 active torsions:
REMARK  status: ('A' for Active; 'I' for Inactive)
REMARK    1  A    between atoms: C_1  and  C2_4 
REMARK    2  A    between atoms: CA_14  and  N_13 
REMARK    3  A    between atoms: C1_15  and  CA_14 
REMARK    4  A    between atoms: CA_14  and  CB_17 
REMARK       I    between atoms: N2_24  and  C1_15 
REMARK    5  A    between atoms: CB_17  and  CG_18 
REMARK    6  A    between atoms: C9_21  and  O2_22 
REMARK    7  A    between atoms: CA1_23  and  C9_21 
REMARK    8  A    between atoms: C9_21  and  CM_33 
REMARK    9  A    between atoms: CA1_23  and  N2_24 
REMARK   10  A    between atoms: CA1_23  and  CB1_25 
REMARK   11  A    between atoms: CB1_25  and  CG1_26 
REMARK   12  A    between atoms: CM_33  and  N11_32 
REMARK   13  A    between atoms: C21_34  and  CC_35 
REMARK       I    between atoms: CC_35  and  N3_45 
REMARK   14  A    between atoms: N3_45  and  CD_46 
REMARK   15  A    between atoms: CD_46  and  C11_47 
REMARK   16  A    between atoms: CD_46  and  C22_48 
REMARK   17  A    between atoms: CD_46  and  C32_49 
ROOT
ATOM      1  C9  ROC d           1.184   5.490   9.289  0.00  0.00     0.078 C 
ATOM      2  H13 ROC d           1.059   5.386   8.201  0.00  0.00     0.088 H 
ENDROOT
BRANCH   1   3
ATOM      3  O2  ROC d           2.190   4.634   9.743  0.00  0.00    -0.392 OA
ATOM      4  H14 ROC d           2.213   3.857   9.197  0.00  0.00     0.210 HD
ENDBRANCH   1   3
BRANCH   1   5
ATOM      5  CA1 ROC d          -0.121   5.113  10.005  0.00  0.00     0.041 C 
ATOM      6  H15 ROC d          -0.558   6.054  10.371  0.00  0.00     0.076 H 
BRANCH   5   7
ATOM      7  N2  ROC d          -1.082   4.542   9.033  0.00  0.00    -0.363 N 
ATOM      8  C1  ROC d          -1.775   5.434   8.229  0.00  0.00     0.175 C 
ATOM      9  O1  ROC d          -1.706   6.753   8.022  0.00  0.00    -0.175 OA
ATOM     10  H16 ROC d          -1.226   3.556   8.960  0.00  0.00     0.162 HD
BRANCH   8  11
ATOM     11  CA  ROC d          -2.845   4.734   7.389  0.00  0.00     0.083 C 
ATOM     12  H8  ROC d          -2.364   4.417   6.452  0.00  0.00     0.086 H 
BRANCH  11  13
ATOM     13  N   ROC d          -3.311   3.549   8.064  0.00  0.00    -0.354 N 
ATOM     14  C   ROC d          -3.648   2.505   7.262  0.00  0.00     0.204 C 
ATOM     15  O   ROC d          -3.558   2.234   5.965  0.00  0.00    -0.170 OA
ATOM     16  H7  ROC d          -3.382   3.498   9.061  0.00  0.00     0.162 HD
BRANCH  14  17
ATOM     17  C2  ROC d          -4.330   1.399   8.073  0.00  0.00     0.111 A 
ATOM     18  N1  ROC d          -5.008   1.740   9.215  0.00  0.00    -0.244 NA
ATOM     19  C8A ROC d          -5.626   0.769   9.987  0.00  0.00     0.068 A 
ATOM     20  C8  ROC d          -6.296   1.142  11.133  0.00  0.00    -0.054 A 
ATOM     21  C4A ROC d          -5.562  -0.569   9.599  0.00  0.00    -0.007 A 
ATOM     22  C7  ROC d          -6.924   0.153  11.926  0.00  0.00    -0.081 A 
ATOM     23  H6  ROC d          -6.340   2.185  11.424  0.00  0.00     0.087 H 
ATOM     24  C6  ROC d          -6.867  -1.171  11.543  0.00  0.00    -0.082 A 
ATOM     25  H5  ROC d          -7.450   0.435  12.832  0.00  0.00     0.083 H 
ATOM     26  C5  ROC d          -6.191  -1.544  10.387  0.00  0.00    -0.071 A 
ATOM     27  H4  ROC d          -7.353  -1.928  12.149  0.00  0.00     0.083 H 
ATOM     28  H3  ROC d          -6.151  -2.587  10.095  0.00  0.00     0.084 H 
ATOM     29  C4  ROC d          -4.883  -0.921   8.444  0.00  0.00    -0.068 A 
ATOM     30  C3  ROC d          -4.262   0.056   7.678  0.00  0.00    -0.050 A 
ATOM     31  H2  ROC d          -4.837  -1.960   8.137  0.00  0.00     0.085 H 
ATOM     32  H1  ROC d          -3.726  -0.218   6.777  0.00  0.00     0.087 H 
ENDBRANCH  14  17
ENDBRANCH  11  13
BRANCH  11  33
ATOM     33  CB  ROC d          -4.025   5.637   7.002  0.00  0.00     0.023 C 
ATOM     34  H9  ROC d          -3.985   6.554   7.610  0.00  0.00     0.049 H 
ATOM     35  H10 ROC d          -4.964   5.102   7.208  0.00  0.00     0.049 H 
BRANCH  33  36
ATOM     36  CG  ROC d          -3.992   6.028   5.506  0.00  0.00     0.151 C 
ATOM     37  OD1 ROC d          -3.970   7.370   5.312  0.00  0.00    -0.178 OA
ATOM     38  ND2 ROC d          -3.999   4.908   4.729  0.00  0.00    -0.381 N 
ATOM     39  H11 ROC d          -3.980   4.991   3.733  0.00  0.00     0.158 HD
ATOM     40  H12 ROC d          -4.023   4.003   5.155  0.00  0.00     0.158 HD
ENDBRANCH  33  36
ENDBRANCH  11  33
ENDBRANCH   8  11
ENDBRANCH   5   7
BRANCH   5  41
ATOM     41  CB1 ROC d           0.058   4.228  11.235  0.00  0.00    -0.020 C 
ATOM     42  H17 ROC d          -0.392   4.727  12.106  0.00  0.00     0.043 H 
ATOM     43  H18 ROC d           1.133   4.075  11.414  0.00  0.00     0.043 H 
BRANCH  41  44
ATOM     44  CG1 ROC d          -0.619   2.853  11.037  0.00  0.00    -0.056 A 
ATOM     45  CD1 ROC d          -0.005   1.846  10.317  0.00  0.00    -0.077 A 
ATOM     46  CE1 ROC d          -0.650   0.600  10.145  0.00  0.00    -0.082 A 
ATOM     47  H19 ROC d           0.975   2.012   9.883  0.00  0.00     0.084 H 
ATOM     48  CZ  ROC d          -1.905   0.378  10.700  0.00  0.00    -0.083 A 
ATOM     49  H21 ROC d          -0.164  -0.186   9.578  0.00  0.00     0.083 H 
ATOM     50  CE2 ROC d          -2.523   1.383  11.419  0.00  0.00    -0.082 A 
ATOM     51  H23 ROC d          -2.396  -0.579  10.569  0.00  0.00     0.083 H 
ATOM     52  CD2 ROC d          -1.882   2.625  11.588  0.00  0.00    -0.077 A 
ATOM     53  H22 ROC d          -3.501   1.215  11.853  0.00  0.00     0.083 H 
ATOM     54  H20 ROC d          -2.373   3.411  12.150  0.00  0.00     0.084 H 
ENDBRANCH  41  44
ENDBRANCH   5  41
ENDBRANCH   1   5
BRANCH   1  55
ATOM     55  CM  ROC d           1.562   6.903   9.624  0.00  0.00     0.110 C 
ATOM     56  H25 ROC d           1.111   7.569   8.874  0.00  0.00     0.080 H 
ATOM     57  H26 ROC d           2.658   6.987   9.578  0.00  0.00     0.080 H 
BRANCH  55  58
ATOM     58  N11 ROC d           1.119   7.348  10.965  0.00  0.00    -0.057 N 
ATOM     59  C21 ROC d           0.812   8.805  11.042  0.00  0.00     0.167 C 
ATOM     60  C31 ROC d           0.436   9.171  12.467  0.00  0.00    -0.027 C 
ATOM     61  H27 ROC d          -0.077   8.963  10.414  0.00  0.00     0.098 H 
ATOM     62  C3A ROC d           1.381   8.723  13.554  0.00  0.00    -0.047 C 
ATOM     63  H28 ROC d          -0.548   8.724  12.676  0.00  0.00     0.037 H 
ATOM     64  H29 ROC d           0.361  10.267  12.520  0.00  0.00     0.037 H 
ATOM     65  C41 ROC d           2.644   9.608  13.599  0.00  0.00    -0.061 C 
ATOM     66  C7A ROC d           1.695   7.265  13.407  0.00  0.00    -0.027 C 
ATOM     67  H30 ROC d           0.863   8.849  14.517  0.00  0.00     0.040 H 
ATOM     68  C51 ROC d           3.625   9.179  14.619  0.00  0.00    -0.065 C 
ATOM     69  H31 ROC d           2.338  10.640  13.822  0.00  0.00     0.033 H 
ATOM     70  H32 ROC d           3.129   9.573  12.612  0.00  0.00     0.033 H 
ATOM     71  C61 ROC d           3.987   7.712  14.454  0.00  0.00    -0.065 C 
ATOM     72  H33 ROC d           3.191   9.330  15.619  0.00  0.00     0.033 H 
ATOM     73  H34 ROC d           4.536   9.786  14.518  0.00  0.00     0.033 H 
ATOM     74  C71 ROC d           2.754   6.808  14.384  0.00  0.00    -0.060 C 
ATOM     75  H35 ROC d           4.604   7.403  15.311  0.00  0.00     0.033 H 
ATOM     76  H36 ROC d           4.565   7.594  13.526  0.00  0.00     0.033 H 
ATOM     77  H37 ROC d           2.301   6.766  15.386  0.00  0.00     0.033 H 
ATOM     78  H38 ROC d           3.083   5.801  14.088  0.00  0.00     0.033 H 
ATOM     79  C81 ROC d           2.106   6.915  11.964  0.00  0.00     0.088 C 
ATOM     80  H39 ROC d           0.774   6.708  13.634  0.00  0.00     0.043 H 
ATOM     81  H40 ROC d           3.066   7.406  11.744  0.00  0.00     0.076 H 
ATOM     82  H41 ROC d           2.226   5.824  11.889  0.00  0.00     0.076 H 
ATOM     83  H24 ROC d           0.257   6.865  11.168  0.00  0.00     0.281 HD
BRANCH  59  84
ATOM     84  CC  ROC d           1.872   9.763  10.519  0.00  0.00     0.183 C 
ATOM     85  O3  ROC d           3.067   9.255  10.293  0.00  0.00    -0.175 OA
ATOM     86  N3  ROC d           1.369  11.053  10.363  0.00  0.00    -0.362 N 
ATOM     87  H42 ROC d           0.399  11.226  10.538  0.00  0.00     0.162 HD
BRANCH  86  88
ATOM     88  CD  ROC d           2.255  12.188   9.938  0.00  0.00     0.021 C 
BRANCH  88  89
ATOM     89  C11 ROC d           2.918  12.679  11.181  0.00  0.00    -0.054 C 
ATOM     90  H43 ROC d           2.776  13.766  11.267  0.00  0.00     0.030 H 
ATOM     91  H44 ROC d           3.993  12.451  11.137  0.00  0.00     0.030 H 
ATOM     92  H45 ROC d           2.473  12.181  12.055  0.00  0.00     0.030 H 
ENDBRANCH  88  89
BRANCH  88  93
ATOM     93  C22 ROC d           1.452  13.296   9.316  0.00  0.00    -0.054 C 
ATOM     94  H46 ROC d           1.339  13.107   8.239  0.00  0.00     0.030 H 
ATOM     95  H47 ROC d           1.970  14.254   9.468  0.00  0.00     0.030 H 
ATOM     96  H48 ROC d           0.459  13.338   9.787  0.00  0.00     0.030 H 
ENDBRANCH  88  93
BRANCH  88  97
ATOM     97  C32 ROC d           3.311  11.720   8.955  0.00  0.00    -0.054 C 
ATOM     98  H49 ROC d           3.095  12.135   7.959  0.00  0.00     0.030 H 
ATOM     99  H50 ROC d           3.303  10.621   8.904  0.00  0.00     0.030 H 
ATOM    100  H51 ROC d           4.302  12.063   9.289  0.00  0.00     0.030 H 
ENDBRANCH  88  97
ENDBRANCH  86  88
ENDBRANCH  59  84
ENDBRANCH  55  58
ENDBRANCH   1  55
TORSDOF 17
ENDMDL
MODEL 4
REMARK VINA RESULT:      -8.2      2.003      4.030
REMARK  17 active torsions:
REMARK  status: ('A' for Active; 'I' for Inactive)
REMARK    1  A    between atoms: C_1  and  C2_4 
REMARK    2  A    between atoms: CA_14  and  N_13 
REMARK    3  A    between atoms: C1_15  and  CA_14 
REMARK    4  A    between atoms: CA_14  and  CB_17 
REMARK       I    between atoms: N2_24  and  C1_15 
REMARK    5  A    between atoms: CB_17  and  CG_18 
REMARK    6  A    between atoms: C9_21  and  O2_22 
REMARK    7  A    between atoms: CA1_23  and  C9_21 
REMARK    8  A    between atoms: C9_21  and  CM_33 
REMARK    9  A    between atoms: CA1_23  and  N2_24 
REMARK   10  A    between atoms: CA1_23  and  CB1_25 
REMARK   11  A    between atoms: CB1_25  and  CG1_26 
REMARK   12  A    between atoms: CM_33  and  N11_32 
REMARK   13  A    between atoms: C21_34  and  CC_35 
REMARK       I    between atoms: CC_35  and  N3_45 
REMARK   14  A    between atoms: N3_45  and  CD_46 
REMARK   15  A    between atoms: CD_46  and  C11_47 
REMARK   16  A    between atoms: CD_46  and  C22_48 
REMARK   17  A    between atoms: CD_46  and  C32_49 
ROOT
ATOM      1  C9  ROC d          -1.718   8.408   8.149  0.00  0.00     0.078 C 
ATOM      2  H13 ROC d          -2.411   8.635   8.972  0.00  0.00     0.088 H 
ENDROOT
BRANCH   1   3
ATOM      3  O2  ROC d          -1.825   9.374   7.146  0.00  0.00    -0.392 OA
ATOM      4  H14 ROC d          -2.066  10.207   7.536  0.00  0.00     0.210 HD
ENDBRANCH   1   3
BRANCH   1   5
ATOM      5  CA1 ROC d          -2.065   7.044   7.533  0.00  0.00     0.041 C 
ATOM      6  H15 ROC d          -1.151   6.685   7.037  0.00  0.00     0.076 H 
BRANCH   5   7
ATOM      7  N2  ROC d          -2.380   6.073   8.606  0.00  0.00    -0.363 N 
ATOM      8  C1  ROC d          -1.393   5.161   8.947  0.00  0.00     0.175 C 
ATOM      9  O1  ROC d          -0.111   5.003   8.605  0.00  0.00    -0.175 OA
ATOM     10  H16 ROC d          -3.268   6.075   9.066  0.00  0.00     0.162 HD
BRANCH   8  11
ATOM     11  CA  ROC d          -1.897   4.119   9.947  0.00  0.00     0.083 C 
ATOM     12  H8  ROC d          -2.593   4.633  10.625  0.00  0.00     0.086 H 
BRANCH  11  13
ATOM     13  N   ROC d          -2.635   3.088   9.261  0.00  0.00    -0.354 N 
ATOM     14  C   ROC d          -3.776   2.672   9.871  0.00  0.00     0.204 C 
ATOM     15  O   ROC d          -4.484   3.056  10.928  0.00  0.00    -0.170 OA
ATOM     16  H7  ROC d          -2.326   2.702   8.391  0.00  0.00     0.162 HD
BRANCH  14  17
ATOM     17  C2  ROC d          -4.345   1.436   9.168  0.00  0.00     0.111 A 
ATOM     18  N1  ROC d          -5.697   1.214   9.216  0.00  0.00    -0.244 NA
ATOM     19  C8A ROC d          -6.253   0.100   8.607  0.00  0.00     0.068 A 
ATOM     20  C8  ROC d          -7.615  -0.099   8.677  0.00  0.00    -0.054 A 
ATOM     21  C4A ROC d          -5.430  -0.805   7.936  0.00  0.00    -0.007 A 
ATOM     22  C7  ROC d          -8.185  -1.238   8.060  0.00  0.00    -0.081 A 
ATOM     23  H6  ROC d          -8.245   0.611   9.200  0.00  0.00     0.087 H 
ATOM     24  C6  ROC d          -7.375  -2.133   7.392  0.00  0.00    -0.082 A 
ATOM     25  H5  ROC d          -9.255  -1.407   8.113  0.00  0.00     0.083 H 
ATOM     26  C5  ROC d          -6.003  -1.930   7.323  0.00  0.00    -0.071 A 
ATOM     27  H4  ROC d          -7.814  -3.003   6.916  0.00  0.00     0.083 H 
ATOM     28  H3  ROC d          -5.375  -2.639   6.797  0.00  0.00     0.084 H 
ATOM     29  C4  ROC d          -4.064  -0.585   7.880  0.00  0.00    -0.068 A 
ATOM     30  C3  ROC d          -3.514   0.531   8.496  0.00  0.00    -0.050 A 
ATOM     31  H2  ROC d          -3.423  -1.285   7.354  0.00  0.00     0.085 H 
ATOM     32  H1  ROC d          -2.444   0.701   8.457  0.00  0.00     0.087 H 
ENDBRANCH  14  17
ENDBRANCH  11  13
BRANCH  11  33
ATOM     33  CB  ROC d          -0.793   3.506  10.820  0.00  0.00     0.023 C 
ATOM     34  H9  ROC d          -0.744   4.058  11.771  0.00  0.00     0.049 H 
ATOM     35  H10 ROC d           0.169   3.598  10.293  0.00  0.00     0.049 H 
BRANCH  33  36
ATOM     36  CG  ROC d          -1.054   2.012  11.123  0.00  0.00     0.151 C 
ATOM     37  OD1 ROC d          -0.470   1.181  10.224  0.00  0.00    -0.178 OA
ATOM     38  ND2 ROC d          -1.828   1.889  12.240  0.00  0.00    -0.381 N 
ATOM     39  H11 ROC d          -2.087   0.982  12.570  0.00  0.00     0.158 HD
ATOM     40  H12 ROC d          -2.135   2.706  12.728  0.00  0.00     0.158 HD
ENDBRANCH  33  36
ENDBRANCH  11  33
ENDBRANCH   8  11
ENDBRANCH   5   7
BRANCH   5  41
ATOM     41  CB1 ROC d          -3.140   7.086   6.451  0.00  0.00    -0.020 C 
ATOM     42  H17 ROC d          -2.658   7.218   5.471  0.00  0.00     0.043 H 
ATOM     43  H18 ROC d          -3.813   7.934   6.647  0.00  0.00     0.043 H 
BRANCH  41  44
ATOM     44  CG1 ROC d          -3.966   5.781   6.434  0.00  0.00    -0.056 A 
ATOM     45  CD1 ROC d          -3.462   4.619   5.880  0.00  0.00    -0.077 A 
ATOM     46  CE1 ROC d          -4.242   3.440   5.870  0.00  0.00    -0.082 A 
ATOM     47  H19 ROC d          -2.466   4.612   5.451  0.00  0.00     0.084 H 
ATOM     48  CZ  ROC d          -5.518   3.439   6.419  0.00  0.00    -0.083 A 
ATOM     49  H21 ROC d          -3.842   2.532   5.433  0.00  0.00     0.083 H 
ATOM     50  CE2 ROC d          -6.026   4.599   6.973  0.00  0.00    -0.082 A 
ATOM     51  H23 ROC d          -6.113   2.533   6.414  0.00  0.00     0.083 H 
ATOM     52  CD2 ROC d          -5.251   5.774   6.979  0.00  0.00    -0.077 A 
ATOM     53  H22 ROC d          -7.021   4.604   7.402  0.00  0.00     0.083 H 
ATOM     54  H20 ROC d          -5.655   6.683   7.411  0.00  0.00     0.084 H 
ENDBRANCH  41  44
ENDBRANCH   5  41
ENDBRANCH   1   5
BRANCH   1  55
ATOM     55  CM  ROC d          -0.307   8.394   8.660  0.00  0.00     0.110 C 
ATOM     56  H25 ROC d           0.224   7.556   8.185  0.00  0.00     0.080 H 
ATOM     57  H26 ROC d          -0.335   8.241   9.749  0.00  0.00     0.080 H 
BRANCH  55  58
ATOM     58  N11 ROC d           0.450   9.637   8.386  0.00  0.00    -0.057 N 
ATOM     59  C21 ROC d           1.930   9.459   8.428  0.00  0.00     0.167 C 
ATOM     60  C31 ROC d           2.609  10.798   8.204  0.00  0.00    -0.027 C 
ATOM     61  H27 ROC d           2.184   8.813   7.575  0.00  0.00     0.098 H 
ATOM     62  C3A ROC d           2.142  11.948   9.063  0.00  0.00    -0.047 C 
ATOM     63  H28 ROC d           2.449  11.081   7.153  0.00  0.00     0.037 H 
ATOM     64  H29 ROC d           3.685  10.661   8.387  0.00  0.00     0.037 H 
ATOM     65  C41 ROC d           2.700  11.839  10.497  0.00  0.00    -0.061 C 
ATOM     66  C7A ROC d           0.648  12.057   9.025  0.00  0.00    -0.027 C 
ATOM     67  H30 ROC d           2.548  12.873   8.628  0.00  0.00     0.040 H 
ATOM     68  C51 ROC d           2.232  12.919  11.392  0.00  0.00    -0.065 C 
ATOM     69  H31 ROC d           3.798  11.879  10.448  0.00  0.00     0.033 H 
ATOM     70  H32 ROC d           2.387  10.873  10.922  0.00  0.00     0.033 H 
ATOM     71  C61 ROC d           0.715  13.011  11.399  0.00  0.00    -0.065 C 
ATOM     72  H33 ROC d           2.648  13.876  11.047  0.00  0.00     0.033 H 
ATOM     73  H34 ROC d           2.582  12.714  12.414  0.00  0.00     0.033 H 
ATOM     74  C71 ROC d           0.128  13.099   9.988  0.00  0.00    -0.060 C 
ATOM     75  H35 ROC d           0.419  13.909  11.961  0.00  0.00     0.033 H 
ATOM     76  H36 ROC d           0.309  12.118  11.895  0.00  0.00     0.033 H 
ATOM     77  H37 ROC d           0.363  14.093   9.578  0.00  0.00     0.033 H 
ATOM     78  H38 ROC d          -0.963  12.983  10.062  0.00  0.00     0.033 H 
ATOM     79  C81 ROC d          -0.027  10.697   9.285  0.00  0.00     0.088 C 
ATOM     80  H39 ROC d           0.370  12.377   8.010  0.00  0.00     0.043 H 
ATOM     81  H40 ROC d           0.180  10.395  10.323  0.00  0.00     0.076 H 
ATOM     82  H41 ROC d          -1.112  10.812   9.146  0.00  0.00     0.076 H 
ATOM     83  H24 ROC d           0.225   9.920   7.445  0.00  0.00     0.281 HD
BRANCH  59  84
ATOM     84  CC  ROC d           2.510   8.778   9.659  0.00  0.00     0.183 C 
ATOM     85  O3  ROC d           3.689   8.207   9.516  0.00  0.00    -0.175 OA
ATOM     86  N3  ROC d           1.660   8.888  10.757  0.00  0.00    -0.362 N 
ATOM     87  H42 ROC d           0.819   9.422  10.675  0.00  0.00     0.162 HD
BRANCH  86  88
ATOM     88  CD  ROC d           1.985   8.220  12.062  0.00  0.00     0.021 C 
BRANCH  88  89
ATOM     89  C11 ROC d           0.871   8.571  12.991  0.00  0.00    -0.054 C 
ATOM     90  H43 ROC d           1.282   9.045  13.893  0.00  0.00     0.030 H 
ATOM     91  H44 ROC d           0.327   7.657  13.272  0.00  0.00     0.030 H 
ATOM     92  H45 ROC d           0.183   9.267  12.491  0.00  0.00     0.030 H 
ENDBRANCH  88  89
BRANCH  88  93
ATOM     93  C22 ROC d           3.288   8.723  12.616  0.00  0.00    -0.054 C 
ATOM     94  H46 ROC d           4.071   7.966  12.458  0.00  0.00     0.030 H 
ATOM     95  H47 ROC d           3.179   8.917  13.693  0.00  0.00     0.030 H 
ATOM     96  H48 ROC d           3.570   9.653  12.102  0.00  0.00     0.030 H 
ENDBRANCH  88  93
BRANCH  88  97
ATOM     97  C32 ROC d           2.053   6.713  11.903  0.00  0.00    -0.054 C 
ATOM     98  H49 ROC d           2.459   6.467  10.911  0.00  0.00     0.030 H 
ATOM     99  H50 ROC d           1.044   6.287  12.003  0.00  0.00     0.030 H 
ATOM    100  H51 ROC d           2.707   6.291  12.682  0.00  0.00     0.030 H 
ENDBRANCH  88  97
ENDBRANCH  86  88
ENDBRANCH  59  84
ENDBRANCH  55  58
ENDBRANCH   1  55
TORSDOF 17
ENDMDL
MODEL 5
REMARK VINA RESULT:      -8.1      2.120      5.020
REMARK  17 active torsions:
REMARK  status: ('A' for Active; 'I' for Inactive)
REMARK    1  A    between atoms: C_1  and  C2_4 
REMARK    2  A    between atoms: CA_14  and  N_13 
REMARK    3  A    between atoms: C1_15  and  CA_14 
REMARK    4  A    between atoms: CA_14  and  CB_17 
REMARK       I    between atoms: N2_24  and  C1_15 
REMARK    5  A    between atoms: CB_17  and  CG_18 
REMARK    6  A    between atoms: C9_21  and  O2_22 
REMARK    7  A    between atoms: CA1_23  and  C9_21 
REMARK    8  A    between atoms: C9_21  and  CM_33 
REMARK    9  A    between atoms: CA1_23  and  N2_24 
REMARK   10  A    between atoms: CA1_23  and  CB1_25 
REMARK   11  A    between atoms: CB1_25  and  CG1_26 
REMARK   12  A    between atoms: CM_33  and  N11_32 
REMARK   13  A    between atoms: C21_34  and  CC_35 
REMARK       I    between atoms: CC_35  and  N3_45 
REMARK   14  A    between atoms: N3_45  and  CD_46 
REMARK   15  A    between atoms: CD_46  and  C11_47 
REMARK   16  A    between atoms: CD_46  and  C22_48 
REMARK   17  A    between atoms: CD_46  and  C32_49 
ROOT
ATOM      1  C9  ROC d           0.768   7.172  10.095  0.00  0.00     0.078 C 
ATOM      2  H13 ROC d           1.397   6.287   9.920  0.00  0.00     0.088 H 
ENDROOT
BRANCH   1   3
ATOM      3  O2  ROC d          -0.207   6.890  11.054  0.00  0.00    -0.392 OA
ATOM      4  H14 ROC d          -0.856   6.304  10.681  0.00  0.00     0.210 HD
ENDBRANCH   1   3
BRANCH   1   5
ATOM      5  CA1 ROC d           0.055   7.575   8.796  0.00  0.00     0.041 C 
ATOM      6  H15 ROC d           0.672   7.190   7.970  0.00  0.00     0.076 H 
BRANCH   5   7
ATOM      7  N2  ROC d          -1.256   6.890   8.708  0.00  0.00    -0.363 N 
ATOM      8  C1  ROC d          -1.244   5.505   8.642  0.00  0.00     0.175 C 
ATOM      9  O1  ROC d          -0.293   4.573   8.757  0.00  0.00    -0.175 OA
ATOM     10  H16 ROC d          -2.113   7.405   8.696  0.00  0.00     0.162 HD
BRANCH   8  11
ATOM     11  CA  ROC d          -2.641   4.932   8.393  0.00  0.00     0.083 C 
ATOM     12  H8  ROC d          -2.738   4.779   7.308  0.00  0.00     0.086 H 
BRANCH  11  13
ATOM     13  N   ROC d          -2.772   3.646   9.031  0.00  0.00    -0.354 N 
ATOM     14  C   ROC d          -3.482   2.714   8.343  0.00  0.00     0.204 C 
ATOM     15  O   ROC d          -4.023   2.634   7.132  0.00  0.00    -0.170 OA
ATOM     16  H7  ROC d          -2.366   3.452   9.925  0.00  0.00     0.162 HD
BRANCH  14  17
ATOM     17  C2  ROC d          -3.737   1.479   9.212  0.00  0.00     0.111 A 
ATOM     18  N1  ROC d          -5.030   1.070   9.413  0.00  0.00    -0.244 NA
ATOM     19  C8A ROC d          -5.307  -0.034  10.205  0.00  0.00     0.068 A 
ATOM     20  C8  ROC d          -6.618  -0.418  10.393  0.00  0.00    -0.054 A 
ATOM     21  C4A ROC d          -4.262  -0.739  10.801  0.00  0.00    -0.007 A 
ATOM     22  C7  ROC d          -6.905  -1.542  11.203  0.00  0.00    -0.081 A 
ATOM     23  H6  ROC d          -7.422   0.137   9.923  0.00  0.00     0.087 H 
ATOM     24  C6  ROC d          -5.873  -2.244  11.792  0.00  0.00    -0.082 A 
ATOM     25  H5  ROC d          -7.932  -1.850  11.362  0.00  0.00     0.083 H 
ATOM     26  C5  ROC d          -4.553  -1.854  11.600  0.00  0.00    -0.071 A 
ATOM     27  H4  ROC d          -6.094  -3.107  12.410  0.00  0.00     0.083 H 
ATOM     28  H3  ROC d          -3.750  -2.412  12.067  0.00  0.00     0.084 H 
ATOM     29  C4  ROC d          -2.952  -0.334  10.598  0.00  0.00    -0.068 A 
ATOM     30  C3  ROC d          -2.682   0.776   9.808  0.00  0.00    -0.050 A 
ATOM     31  H2  ROC d          -2.138  -0.883  11.057  0.00  0.00     0.085 H 
ATOM     32  H1  ROC d          -1.659   1.096   9.653  0.00  0.00     0.087 H 
ENDBRANCH  14  17
ENDBRANCH  11  13
BRANCH  11  33
ATOM     33  CB  ROC d          -3.783   5.867   8.817  0.00  0.00     0.023 C 
ATOM     34  H9  ROC d          -3.366   6.685   9.423  0.00  0.00     0.049 H 
ATOM     35  H10 ROC d          -4.505   5.295   9.419  0.00  0.00     0.049 H 
BRANCH  33  36
ATOM     36  CG  ROC d          -4.519   6.474   7.600  0.00  0.00     0.151 C 
ATOM     37  OD1 ROC d          -4.943   7.744   7.819  0.00  0.00    -0.178 OA
ATOM     38  ND2 ROC d          -4.569   5.567   6.582  0.00  0.00    -0.381 N 
ATOM     39  H11 ROC d          -5.014   5.808   5.720  0.00  0.00     0.158 HD
ATOM     40  H12 ROC d          -4.160   4.662   6.698  0.00  0.00     0.158 HD
ENDBRANCH  33  36
ENDBRANCH  11  33
ENDBRANCH   8  11
ENDBRANCH   5   7
BRANCH   5  41
ATOM     41  CB1 ROC d          -0.058   9.080   8.569  0.00  0.00    -0.020 C 
ATOM     42  H17 ROC d           0.884   9.449   8.138  0.00  0.00     0.043 H 
ATOM     43  H18 ROC d          -0.240   9.576   9.534  0.00  0.00     0.043 H 
BRANCH  41  44
ATOM     44  CG1 ROC d          -1.218   9.413   7.604  0.00  0.00    -0.056 A 
ATOM     45  CD1 ROC d          -2.017  10.524   7.799  0.00  0.00    -0.077 A 
ATOM     46  CE1 ROC d          -3.077  10.803   6.906  0.00  0.00    -0.082 A 
ATOM     47  H19 ROC d          -1.831  11.184   8.639  0.00  0.00     0.084 H 
ATOM     48  CZ  ROC d          -3.321   9.964   5.825  0.00  0.00    -0.083 A 
ATOM     49  H21 ROC d          -3.701  11.675   7.064  0.00  0.00     0.083 H 
ATOM     50  CE2 ROC d          -2.526   8.851   5.628  0.00  0.00    -0.082 A 
ATOM     51  H23 ROC d          -4.133  10.181   5.140  0.00  0.00     0.083 H 
ATOM     52  CD2 ROC d          -1.473   8.572   6.520  0.00  0.00    -0.077 A 
ATOM     53  H22 ROC d          -2.713   8.193   4.788  0.00  0.00     0.083 H 
ATOM     54  H20 ROC d          -0.854   7.696   6.363  0.00  0.00     0.084 H 
ENDBRANCH  41  44
ENDBRANCH   5  41
ENDBRANCH   1   5
BRANCH   1  55
ATOM     55  CM  ROC d           1.615   8.309  10.587  0.00  0.00     0.110 C 
ATOM     56  H25 ROC d           1.320   9.220  10.044  0.00  0.00     0.080 H 
ATOM     57  H26 ROC d           2.668   8.076  10.366  0.00  0.00     0.080 H 
BRANCH  55  58
ATOM     58  N11 ROC d           1.494   8.574  12.038  0.00  0.00    -0.057 N 
ATOM     59  C21 ROC d           0.670   9.774  12.362  0.00  0.00     0.167 C 
ATOM     60  C31 ROC d           0.666   9.997  13.864  0.00  0.00    -0.027 C 
ATOM     61  H27 ROC d          -0.359   9.527  12.061  0.00  0.00     0.098 H 
ATOM     62  C3A ROC d           2.009  10.018  14.550  0.00  0.00    -0.047 C 
ATOM     63  H28 ROC d           0.072   9.189  14.318  0.00  0.00     0.037 H 
ATOM     64  H29 ROC d           0.178  10.963  14.056  0.00  0.00     0.037 H 
ATOM     65  C41 ROC d           2.747  11.349  14.296  0.00  0.00    -0.061 C 
ATOM     66  C7A ROC d           2.817   8.819  14.158  0.00  0.00    -0.027 C 
ATOM     67  H30 ROC d           1.830   9.950  15.633  0.00  0.00     0.040 H 
ATOM     68  C51 ROC d           4.092  11.400  14.910  0.00  0.00    -0.065 C 
ATOM     69  H31 ROC d           2.143  12.168  14.712  0.00  0.00     0.033 H 
ATOM     70  H32 ROC d           2.855  11.487  13.210  0.00  0.00     0.033 H 
ATOM     71  C61 ROC d           4.939  10.213  14.485  0.00  0.00    -0.065 C 
ATOM     72  H33 ROC d           3.986  11.391  16.005  0.00  0.00     0.033 H 
ATOM     73  H34 ROC d           4.593  12.328  14.598  0.00  0.00     0.033 H 
ATOM     74  C71 ROC d           4.225   8.876  14.704  0.00  0.00    -0.060 C 
ATOM     75  H35 ROC d           5.870  10.216  15.070  0.00  0.00     0.033 H 
ATOM     76  H36 ROC d           5.177  10.314  13.416  0.00  0.00     0.033 H 
ATOM     77  H37 ROC d           4.182   8.683  15.786  0.00  0.00     0.033 H 
ATOM     78  H38 ROC d           4.816   8.088  14.214  0.00  0.00     0.033 H 
ATOM     79  C81 ROC d           2.839   8.624  12.630  0.00  0.00     0.088 C 
ATOM     80  H39 ROC d           2.328   7.937  14.598  0.00  0.00     0.043 H 
ATOM     81  H40 ROC d           3.391   9.462  12.177  0.00  0.00     0.076 H 
ATOM     82  H41 ROC d           3.356   7.680  12.404  0.00  0.00     0.076 H 
ATOM     83  H24 ROC d           1.018   7.784  12.445  0.00  0.00     0.281 HD
BRANCH  59  84
ATOM     84  CC  ROC d           1.020  11.068  11.642  0.00  0.00     0.183 C 
ATOM     85  O3  ROC d           0.293  12.125  11.945  0.00  0.00    -0.175 OA
ATOM     86  N3  ROC d           2.086  10.896  10.763  0.00  0.00    -0.362 N 
ATOM     87  H42 ROC d           2.549  10.011  10.719  0.00  0.00     0.162 HD
BRANCH  86  88
ATOM     88  CD  ROC d           2.555  12.017   9.880  0.00  0.00     0.021 C 
BRANCH  88  89
ATOM     89  C11 ROC d           3.134  13.045  10.793  0.00  0.00    -0.054 C 
ATOM     90  H43 ROC d           3.593  13.847  10.198  0.00  0.00     0.030 H 
ATOM     91  H44 ROC d           3.898  12.578  11.432  0.00  0.00     0.030 H 
ATOM     92  H45 ROC d           2.337  13.466  11.423  0.00  0.00     0.030 H 
ENDBRANCH  88  89
BRANCH  88  93
ATOM     93  C22 ROC d           1.409  12.609   9.107  0.00  0.00    -0.054 C 
ATOM     94  H46 ROC d           1.627  13.662   8.877  0.00  0.00     0.030 H 
ATOM     95  H47 ROC d           0.490  12.546   9.708  0.00  0.00     0.030 H 
ATOM     96  H48 ROC d           1.272  12.050   8.170  0.00  0.00     0.030 H 
ENDBRANCH  88  93
BRANCH  88  97
ATOM     97  C32 ROC d           3.622  11.543   8.913  0.00  0.00    -0.054 C 
ATOM     98  H49 ROC d           4.599  11.949   9.216  0.00  0.00     0.030 H 
ATOM     99  H50 ROC d           3.379  11.891   7.898  0.00  0.00     0.030 H 
ATOM    100  H51 ROC d           3.663  10.443   8.922  0.00  0.00     0.030 H 
ENDBRANCH  88  97
ENDBRANCH  86  88
ENDBRANCH  59  84
ENDBRANCH  55  58
ENDBRANCH   1  55
TORSDOF 17
ENDMDL
