MODEL 1
REMARK VINA RESULT:      -6.4      0.000      0.000
REMARK  7 active torsions:
REMARK  status: ('A' for Active; 'I' for Inactive)
REMARK    1  A    between atoms: C1_1  and  O1_8 
REMARK    2  A    between atoms: C2_2  and  O2_9 
REMARK    3  A    between atoms: C3_3  and  O3_10 
REMARK    4  A    between atoms: C4_4  and  O4_11 
REMARK    5  A    between atoms: C5_5  and  C6_6 
REMARK    6  A    between atoms: C6_6  and  O6_13 
REMARK    7  A    between atoms: O1_8  and  C7_7 
ROOT
ATOM      1  C1  MMA d          -4.351 -17.716  -5.923  0.00  0.00     0.158 C 
ATOM      2  C2  MMA d          -3.582 -17.035  -4.777  0.00  0.00     0.110 C 
ATOM      3  C3  MMA d          -4.526 -16.597  -3.656  0.00  0.00     0.092 C 
ATOM      4  C4  MMA d          -5.682 -15.771  -4.220  0.00  0.00     0.090 C 
ATOM      5  C5  MMA d          -6.400 -16.656  -5.233  0.00  0.00     0.089 C 
ATOM      6  O5  MMA d          -5.486 -16.935  -6.312  0.00  0.00    -0.349 OA
ATOM      7  H1  MMA d          -3.684 -17.855  -6.787  0.00  0.00     0.133 H 
ATOM      8  H2  MMA d          -2.847 -17.746  -4.371  0.00  0.00     0.094 H 
ATOM      9  H3  MMA d          -4.916 -17.483  -3.133  0.00  0.00     0.091 H 
ATOM     10  H4  MMA d          -5.284 -14.886  -4.737  0.00  0.00     0.091 H 
ATOM     11  H5  MMA d          -6.677 -17.599  -4.740  0.00  0.00     0.090 H 
ENDROOT
BRANCH   1  12
ATOM     12  O1  MMA d          -4.812 -18.981  -5.443  0.00  0.00    -0.363 OA
BRANCH  12  13
ATOM     13  C7  MMA d          -5.057 -19.905  -6.524  0.00  0.00     0.007 C 
ATOM     14  H8  MMA d          -5.117 -19.352  -7.472  0.00  0.00     0.066 H 
ATOM     15  H9  MMA d          -6.006 -20.433  -6.347  0.00  0.00     0.066 H 
ATOM     16  H10 MMA d          -4.235 -20.634  -6.576  0.00  0.00     0.066 H 
ENDBRANCH  12  13
ENDBRANCH   1  12
BRANCH   2  17
ATOM     17  O2  MMA d          -2.895 -15.869  -5.285  0.00  0.00    -0.388 OA
ATOM     18  H11 MMA d          -3.231 -15.654  -6.147  0.00  0.00     0.210 HD
ENDBRANCH   2  17
BRANCH   3  19
ATOM     19  O3  MMA d          -3.810 -15.749  -2.736  0.00  0.00    -0.390 OA
ATOM     20  H12 MMA d          -2.889 -15.985  -2.740  0.00  0.00     0.210 HD
ENDBRANCH   3  19
BRANCH   5  21
ATOM     21  C6  MMA d          -7.672 -16.014  -5.794  0.00  0.00     0.043 C 
ATOM     22  H6  MMA d          -7.976 -15.164  -5.166  0.00  0.00     0.078 H 
ATOM     23  H7  MMA d          -8.485 -16.753  -5.829  0.00  0.00     0.078 H 
BRANCH  21  24
ATOM     24  O6  MMA d          -7.355 -15.559  -7.131  0.00  0.00    -0.398 OA
ATOM     25  H14 MMA d          -7.164 -14.628  -7.110  0.00  0.00     0.209 HD
ENDBRANCH  21  24
ENDBRANCH   5  21
BRANCH   4  26
ATOM     26  O4  MMA d          -6.544 -15.320  -3.148  0.00  0.00    -0.390 OA
ATOM     27  H13 MMA d          -6.407 -14.391  -3.003  0.00  0.00     0.210 HD
ENDBRANCH   4  26
TORSDOF 7
ENDMDL
MODEL 2
REMARK VINA RESULT:      -5.6      1.895      3.803
REMARK  7 active torsions:
REMARK  status: ('A' for Active; 'I' for Inactive)
REMARK    1  A    between atoms: C1_1  and  O1_8 
REMARK    2  A    between atoms: C2_2  and  O2_9 
REMARK    3  A    between atoms: C3_3  and  O3_10 
REMARK    4  A    between atoms: C4_4  and  O4_11 
REMARK    5  A    between atoms: C5_5  and  C6_6 
REMARK    6  A    between atoms: C6_6  and  O6_13 
REMARK    7  A    between atoms: O1_8  and  C7_7 
ROOT
ATOM      1  C1  MMA d          -6.819 -18.030  -3.781  0.00  0.00     0.158 C 
ATOM      2  C2  MMA d          -6.928 -16.513  -4.010  0.00  0.00     0.110 C 
ATOM      3  C3  MMA d          -5.767 -15.993  -4.859  0.00  0.00     0.092 C 
ATOM      4  C4  MMA d          -4.429 -16.450  -4.278  0.00  0.00     0.090 C 
ATOM      5  C5  MMA d          -4.459 -17.974  -4.255  0.00  0.00     0.089 C 
ATOM      6  O5  MMA d          -5.502 -18.390  -3.351  0.00  0.00    -0.349 OA
ATOM      7  H1  MMA d          -7.554 -18.347  -3.026  0.00  0.00     0.133 H 
ATOM      8  H2  MMA d          -7.875 -16.299  -4.527  0.00  0.00     0.094 H 
ATOM      9  H3  MMA d          -5.872 -16.356  -5.892  0.00  0.00     0.091 H 
ATOM     10  H4  MMA d          -4.331 -16.080  -3.247  0.00  0.00     0.091 H 
ATOM     11  H5  MMA d          -4.692 -18.334  -5.268  0.00  0.00     0.090 H 
ENDROOT
BRANCH   1  12
ATOM     12  O1  MMA d          -7.081 -18.676  -5.030  0.00  0.00    -0.363 OA
BRANCH  12  13
ATOM     13  C7  MMA d          -8.375 -18.315  -5.556  0.00  0.00     0.007 C 
ATOM     14  H8  MMA d          -8.630 -17.295  -5.234  0.00  0.00     0.066 H 
ATOM     15  H9  MMA d          -9.133 -19.018  -5.180  0.00  0.00     0.066 H 
ATOM     16  H10 MMA d          -8.348 -18.356  -6.655  0.00  0.00     0.066 H 
ENDBRANCH  12  13
ENDBRANCH   1  12
BRANCH   2  17
ATOM     17  O2  MMA d          -6.909 -15.832  -2.735  0.00  0.00    -0.388 OA
ATOM     18  H11 MMA d          -6.051 -15.929  -2.337  0.00  0.00     0.210 HD
ENDBRANCH   2  17
BRANCH   3  19
ATOM     19  O3  MMA d          -5.768 -14.551  -4.834  0.00  0.00    -0.390 OA
ATOM     20  H12 MMA d          -5.511 -14.220  -5.687  0.00  0.00     0.210 HD
ENDBRANCH   3  19
BRANCH   5  21
ATOM     21  C6  MMA d          -3.128 -18.593  -3.819  0.00  0.00     0.043 C 
ATOM     22  H6  MMA d          -2.554 -18.916  -4.701  0.00  0.00     0.078 H 
ATOM     23  H7  MMA d          -3.309 -19.457  -3.163  0.00  0.00     0.078 H 
BRANCH  21  24
ATOM     24  O6  MMA d          -2.405 -17.565  -3.102  0.00  0.00    -0.398 OA
ATOM     25  H14 MMA d          -2.982 -16.827  -2.941  0.00  0.00     0.209 HD
ENDBRANCH  21  24
ENDBRANCH   5  21
BRANCH   4  26
ATOM     26  O4  MMA d          -3.334 -15.914  -5.058  0.00  0.00    -0.390 OA
ATOM     27  H13 MMA d          -2.582 -16.490  -4.984  0.00  0.00     0.210 HD
ENDBRANCH   4  26
TORSDOF 7
ENDMDL
MODEL 3
REMARK VINA RESULT:      -4.7      2.088      3.801
REMARK  7 active torsions:
REMARK  status: ('A' for Active; 'I' for Inactive)
REMARK    1  A    between atoms: C1_1  and  O1_8 
REMARK    2  A    between atoms: C2_2  and  O2_9 
REMARK    3  A    between atoms: C3_3  and  O3_10 
REMARK    4  A    between atoms: C4_4  and  O4_11 
REMARK    5  A    between atoms: C5_5  and  C6_6 
REMARK    6  A    between atoms: C6_6  and  O6_13 
REMARK    7  A    between atoms: O1_8  and  C7_7 
ROOT
ATOM      1  C1  MMA d          -6.558 -18.023  -3.037  0.00  0.00     0.158 C 
ATOM      2  C2  MMA d          -7.591 -16.943  -3.403  0.00  0.00     0.110 C 
ATOM      3  C3  MMA d          -7.621 -16.690  -4.912  0.00  0.00     0.092 C 
ATOM      4  C4  MMA d          -6.212 -16.424  -5.440  0.00  0.00     0.090 C 
ATOM      5  C5  MMA d          -5.377 -17.653  -5.102  0.00  0.00     0.089 C 
ATOM      6  O5  MMA d          -5.299 -17.762  -3.666  0.00  0.00    -0.349 OA
ATOM      7  H1  MMA d          -6.426 -18.056  -1.945  0.00  0.00     0.133 H 
ATOM      8  H2  MMA d          -8.586 -17.277  -3.075  0.00  0.00     0.094 H 
ATOM      9  H3  MMA d          -8.057 -17.561  -5.424  0.00  0.00     0.091 H 
ATOM     10  H4  MMA d          -5.786 -15.549  -4.926  0.00  0.00     0.091 H 
ATOM     11  H5  MMA d          -5.882 -18.542  -5.506  0.00  0.00     0.090 H 
ENDROOT
BRANCH   1  12
ATOM     12  O1  MMA d          -7.055 -19.276  -3.514  0.00  0.00    -0.363 OA
BRANCH  12  13
ATOM     13  C7  MMA d          -8.382 -19.548  -3.019  0.00  0.00     0.007 C 
ATOM     14  H8  MMA d          -8.376 -19.515  -1.920  0.00  0.00     0.066 H 
ATOM     15  H9  MMA d          -8.700 -20.547  -3.354  0.00  0.00     0.066 H 
ATOM     16  H10 MMA d          -9.080 -18.791  -3.405  0.00  0.00     0.066 H 
ENDBRANCH  12  13
ENDBRANCH   1  12
BRANCH   2  17
ATOM     17  O2  MMA d          -7.252 -15.706  -2.735  0.00  0.00    -0.388 OA
ATOM     18  H11 MMA d          -6.344 -15.490  -2.912  0.00  0.00     0.210 HD
ENDBRANCH   2  17
BRANCH   3  19
ATOM     19  O3  MMA d          -8.404 -15.510  -5.181  0.00  0.00    -0.390 OA
ATOM     20  H12 MMA d          -8.107 -14.800  -4.623  0.00  0.00     0.210 HD
ENDBRANCH   3  19
BRANCH   5  21
ATOM     21  C6  MMA d          -3.963 -17.596  -5.686  0.00  0.00     0.043 C 
ATOM     22  H6  MMA d          -3.273 -18.191  -5.068  0.00  0.00     0.078 H 
ATOM     23  H7  MMA d          -3.612 -16.555  -5.728  0.00  0.00     0.078 H 
BRANCH  21  24
ATOM     24  O6  MMA d          -4.040 -18.150  -7.021  0.00  0.00    -0.398 OA
ATOM     25  H14 MMA d          -4.157 -17.445  -7.648  0.00  0.00     0.209 HD
ENDBRANCH  21  24
ENDBRANCH   5  21
BRANCH   4  26
ATOM     26  O4  MMA d          -6.255 -16.138  -6.859  0.00  0.00    -0.390 OA
ATOM     27  H13 MMA d          -7.056 -16.490  -7.227  0.00  0.00     0.210 HD
ENDBRANCH   4  26
TORSDOF 7
ENDMDL
MODEL 4
REMARK VINA RESULT:      -4.4      1.832      2.422
REMARK  7 active torsions:
REMARK  status: ('A' for Active; 'I' for Inactive)
REMARK    1  A    between atoms: C1_1  and  O1_8 
REMARK    2  A    between atoms: C2_2  and  O2_9 
REMARK    3  A    between atoms: C3_3  and  O3_10 
REMARK    4  A    between atoms: C4_4  and  O4_11 
REMARK    5  A    between atoms: C5_5  and  C6_6 
REMARK    6  A    between atoms: C6_6  and  O6_13 
REMARK    7  A    between atoms: O1_8  and  C7_7 
ROOT
ATOM      1  C1  MMA d          -4.488 -17.183  -5.226  0.00  0.00     0.158 C 
ATOM      2  C2  MMA d          -5.013 -16.113  -4.254  0.00  0.00     0.110 C 
ATOM      3  C3  MMA d          -6.199 -16.634  -3.439  0.00  0.00     0.092 C 
ATOM      4  C4  MMA d          -7.263 -17.229  -4.360  0.00  0.00     0.090 C 
ATOM      5  C5  MMA d          -6.590 -18.353  -5.140  0.00  0.00     0.089 C 
ATOM      6  O5  MMA d          -5.561 -17.773  -5.966  0.00  0.00    -0.349 OA
ATOM      7  H1  MMA d          -3.764 -16.731  -5.921  0.00  0.00     0.133 H 
ATOM      8  H2  MMA d          -4.203 -15.827  -3.567  0.00  0.00     0.094 H 
ATOM      9  H3  MMA d          -5.850 -17.395  -2.725  0.00  0.00     0.091 H 
ATOM     10  H4  MMA d          -7.608 -16.461  -5.068  0.00  0.00     0.091 H 
ATOM     11  H5  MMA d          -6.130 -19.049  -4.423  0.00  0.00     0.090 H 
ENDROOT
BRANCH   1  12
ATOM     12  O1  MMA d          -3.857 -18.203  -4.447  0.00  0.00    -0.363 OA
BRANCH  12  13
ATOM     13  C7  MMA d          -3.154 -19.150  -5.277  0.00  0.00     0.007 C 
ATOM     14  H8  MMA d          -3.066 -20.108  -4.746  0.00  0.00     0.066 H 
ATOM     15  H9  MMA d          -2.149 -18.763  -5.503  0.00  0.00     0.066 H 
ATOM     16  H10 MMA d          -3.709 -19.299  -6.215  0.00  0.00     0.066 H 
ENDBRANCH  12  13
ENDBRANCH   1  12
BRANCH   2  17
ATOM     17  O2  MMA d          -5.442 -14.952  -5.002  0.00  0.00    -0.388 OA
ATOM     18  H11 MMA d          -6.360 -15.043  -5.228  0.00  0.00     0.210 HD
ENDBRANCH   2  17
BRANCH   3  19
ATOM     19  O3  MMA d          -6.813 -15.535  -2.737  0.00  0.00    -0.390 OA
ATOM     20  H12 MMA d          -6.240 -14.777  -2.773  0.00  0.00     0.210 HD
ENDBRANCH   3  19
BRANCH   5  21
ATOM     21  C6  MMA d          -7.566 -19.142  -6.017  0.00  0.00     0.043 C 
ATOM     22  H6  MMA d          -8.356 -18.477  -6.396  0.00  0.00     0.078 H 
ATOM     23  H7  MMA d          -8.020 -19.958  -5.438  0.00  0.00     0.078 H 
BRANCH  21  24
ATOM     24  O6  MMA d          -6.796 -19.680  -7.118  0.00  0.00    -0.398 OA
ATOM     25  H14 MMA d          -5.889 -19.779  -6.850  0.00  0.00     0.209 HD
ENDBRANCH  21  24
ENDBRANCH   5  21
BRANCH   4  26
ATOM     26  O4  MMA d          -8.402 -17.676  -3.586  0.00  0.00    -0.390 OA
ATOM     27  H13 MMA d          -9.071 -18.010  -4.173  0.00  0.00     0.210 HD
ENDBRANCH   4  26
TORSDOF 7
ENDMDL
MODEL 5
REMARK VINA RESULT:      -4.2      1.474      3.634
REMARK  7 active torsions:
REMARK  status: ('A' for Active; 'I' for Inactive)
REMARK    1  A    between atoms: C1_1  and  O1_8 
REMARK    2  A    between atoms: C2_2  and  O2_9 
REMARK    3  A    between atoms: C3_3  and  O3_10 
REMARK    4  A    between atoms: C4_4  and  O4_11 
REMARK    5  A    between atoms: C5_5  and  C6_6 
REMARK    6  A    between atoms: C6_6  and  O6_13 
REMARK    7  A    between atoms: O1_8  and  C7_7 
ROOT
ATOM      1  C1  MMA d          -7.306 -17.995  -5.048  0.00  0.00     0.158 C 
ATOM      2  C2  MMA d          -7.266 -16.784  -4.101  0.00  0.00     0.110 C 
ATOM      3  C3  MMA d          -5.935 -16.037  -4.208  0.00  0.00     0.092 C 
ATOM      4  C4  MMA d          -4.762 -17.003  -4.049  0.00  0.00     0.090 C 
ATOM      5  C5  MMA d          -4.901 -18.047  -5.152  0.00  0.00     0.089 C 
ATOM      6  O5  MMA d          -6.118 -18.784  -4.922  0.00  0.00    -0.349 OA
ATOM      7  H1  MMA d          -8.187 -18.615  -4.824  0.00  0.00     0.133 H 
ATOM      8  H2  MMA d          -8.085 -16.099  -4.364  0.00  0.00     0.094 H 
ATOM      9  H3  MMA d          -5.875 -15.527  -5.181  0.00  0.00     0.091 H 
ATOM     10  H4  MMA d          -4.829 -17.505  -3.072  0.00  0.00     0.091 H 
ATOM     11  H5  MMA d          -4.969 -17.527  -6.118  0.00  0.00     0.090 H 
ENDROOT
BRANCH   1  12
ATOM     12  O1  MMA d          -7.379 -17.496  -6.386  0.00  0.00    -0.363 OA
BRANCH  12  13
ATOM     13  C7  MMA d          -8.395 -16.481  -6.521  0.00  0.00     0.007 C 
ATOM     14  H8  MMA d          -7.924 -15.487  -6.515  0.00  0.00     0.066 H 
ATOM     15  H9  MMA d          -9.103 -16.556  -5.682  0.00  0.00     0.066 H 
ATOM     16  H10 MMA d          -8.934 -16.625  -7.470  0.00  0.00     0.066 H 
ENDBRANCH  12  13
ENDBRANCH   1  12
BRANCH   2  17
ATOM     17  O2  MMA d          -7.434 -17.235  -2.737  0.00  0.00    -0.388 OA
ATOM     18  H11 MMA d          -6.734 -16.883  -2.199  0.00  0.00     0.210 HD
ENDBRANCH   2  17
BRANCH   3  19
ATOM     19  O3  MMA d          -5.841 -15.078  -3.135  0.00  0.00    -0.390 OA
ATOM     20  H12 MMA d          -5.026 -14.595  -3.214  0.00  0.00     0.210 HD
ENDBRANCH   3  19
BRANCH   5  21
ATOM     21  C6  MMA d          -3.719 -19.018  -5.210  0.00  0.00     0.043 C 
ATOM     22  H6  MMA d          -4.040 -19.980  -5.636  0.00  0.00     0.078 H 
ATOM     23  H7  MMA d          -3.312 -19.181  -4.201  0.00  0.00     0.078 H 
BRANCH  21  24
ATOM     24  O6  MMA d          -2.718 -18.406  -6.058  0.00  0.00    -0.398 OA
ATOM     25  H14 MMA d          -2.691 -17.472  -5.890  0.00  0.00     0.209 HD
ENDBRANCH  21  24
ENDBRANCH   5  21
BRANCH   4  26
ATOM     26  O4  MMA d          -3.508 -16.282  -4.103  0.00  0.00    -0.390 OA
ATOM     27  H13 MMA d          -3.311 -15.928  -3.244  0.00  0.00     0.210 HD
ENDBRANCH   4  26
TORSDOF 7
ENDMDL
MODEL 6
REMARK VINA RESULT:      -4.0      1.568      4.241
REMARK  7 active torsions:
REMARK  status: ('A' for Active; 'I' for Inactive)
REMARK    1  A    between atoms: C1_1  and  O1_8 
REMARK    2  A    between atoms: C2_2  and  O2_9 
REMARK    3  A    between atoms: C3_3  and  O3_10 
REMARK    4  A    between atoms: C4_4  and  O4_11 
REMARK    5  A    between atoms: C5_5  and  C6_6 
REMARK    6  A    between atoms: C6_6  and  O6_13 
REMARK    7  A    between atoms: O1_8  and  C7_7 
ROOT
ATOM      1  C1  MMA d          -5.889 -15.723  -4.744  0.00  0.00     0.158 C 
ATOM      2  C2  MMA d          -7.132 -16.291  -5.451  0.00  0.00     0.110 C 
ATOM      3  C3  MMA d          -7.039 -17.810  -5.606  0.00  0.00     0.092 C 
ATOM      4  C4  MMA d          -5.710 -18.205  -6.249  0.00  0.00     0.090 C 
ATOM      5  C5  MMA d          -4.608 -17.673  -5.340  0.00  0.00     0.089 C 
ATOM      6  O5  MMA d          -4.688 -16.234  -5.331  0.00  0.00    -0.349 OA
ATOM      7  H1  MMA d          -5.894 -14.625  -4.807  0.00  0.00     0.133 H 
ATOM      8  H2  MMA d          -8.024 -16.044  -4.856  0.00  0.00     0.094 H 
ATOM      9  H3  MMA d          -7.138 -18.289  -4.621  0.00  0.00     0.091 H 
ATOM     10  H4  MMA d          -5.622 -17.725  -7.235  0.00  0.00     0.091 H 
ATOM     11  H5  MMA d          -4.782 -18.051  -4.322  0.00  0.00     0.090 H 
ENDROOT
BRANCH   1  12
ATOM     12  O1  MMA d          -5.940 -16.142  -3.377  0.00  0.00    -0.363 OA
BRANCH  12  13
ATOM     13  C7  MMA d          -7.281 -16.076  -2.849  0.00  0.00     0.007 C 
ATOM     14  H8  MMA d          -7.445 -16.917  -2.160  0.00  0.00     0.066 H 
ATOM     15  H9  MMA d          -8.004 -16.134  -3.676  0.00  0.00     0.066 H 
ATOM     16  H10 MMA d          -7.416 -15.127  -2.308  0.00  0.00     0.066 H 
ENDBRANCH  12  13
ENDBRANCH   1  12
BRANCH   2  17
ATOM     17  O2  MMA d          -7.250 -15.699  -6.765  0.00  0.00    -0.388 OA
ATOM     18  H11 MMA d          -7.054 -14.771  -6.712  0.00  0.00     0.210 HD
ENDBRANCH   2  17
BRANCH   3  19
ATOM     19  O3  MMA d          -8.086 -18.263  -6.488  0.00  0.00    -0.390 OA
ATOM     20  H12 MMA d          -8.574 -18.962  -6.067  0.00  0.00     0.210 HD
ENDBRANCH   3  19
BRANCH   5  21
ATOM     21  C6  MMA d          -3.207 -18.104  -5.781  0.00  0.00     0.043 C 
ATOM     22  H6  MMA d          -3.030 -19.155  -5.505  0.00  0.00     0.078 H 
ATOM     23  H7  MMA d          -2.447 -17.467  -5.305  0.00  0.00     0.078 H 
BRANCH  21  24
ATOM     24  O6  MMA d          -3.157 -17.951  -7.219  0.00  0.00    -0.398 OA
ATOM     25  H14 MMA d          -3.714 -18.604  -7.626  0.00  0.00     0.209 HD
ENDBRANCH  21  24
ENDBRANCH   5  21
BRANCH   4  26
ATOM     26  O4  MMA d          -5.650 -19.639  -6.437  0.00  0.00    -0.390 OA
ATOM     27  H13 MMA d          -6.533 -19.986  -6.491  0.00  0.00     0.210 HD
ENDBRANCH   4  26
TORSDOF 7
ENDMDL
