MODEL 1
REMARK VINA RESULT:      -6.5      0.000      0.000
REMARK  6 active torsions:
REMARK  status: ('A' for Active; 'I' for Inactive)
REMARK    1  A    between atoms: C1_1  and  O1_7 
REMARK    2  A    between atoms: C2_2  and  O2_8 
REMARK    3  A    between atoms: C3_3  and  O3_9 
REMARK    4  A    between atoms: C4_4  and  O4_10 
REMARK    5  A    between atoms: C5_5  and  C6_6 
REMARK    6  A    between atoms: O1_7  and  CM_12 
ROOT
ATOM      1  C1  MFU d         -40.061  20.533  11.033  0.00  0.00     0.158 C 
ATOM      2  C2  MFU d         -38.689  19.959  11.224  0.00  0.00     0.110 C 
ATOM      3  C3  MFU d         -38.155  20.318  12.625  0.00  0.00     0.092 C 
ATOM      4  C4  MFU d         -39.099  19.970  13.769  0.00  0.00     0.087 C 
ATOM      5  C5  MFU d         -40.440  20.618  13.468  0.00  0.00     0.065 C 
ATOM      6  O5  MFU d         -40.900  20.158  12.168  0.00  0.00    -0.351 OA
ATOM      7  H1  MFU d         -40.500  20.150  10.101  0.00  0.00     0.133 H 
ATOM      8  H2  MFU d         -38.773  18.864  11.155  0.00  0.00     0.094 H 
ATOM      9  H3  MFU d         -37.953  21.399  12.657  0.00  0.00     0.091 H 
ATOM     10  H4  MFU d         -38.711  20.374  14.716  0.00  0.00     0.091 H 
ATOM     11  H5  MFU d         -40.268  21.702  13.385  0.00  0.00     0.086 H 
ENDROOT
BRANCH   1  12
ATOM     12  O1  MFU d         -39.962  21.973  10.972  0.00  0.00    -0.363 OA
BRANCH  12  13
ATOM     13  CM  MFU d         -41.002  22.485  10.090  0.00  0.00     0.007 C 
ATOM     14  H12 MFU d         -41.693  23.118  10.666  0.00  0.00     0.066 H 
ATOM     15  H13 MFU d         -41.557  21.644   9.649  0.00  0.00     0.066 H 
ATOM     16  H14 MFU d         -40.542  23.082   9.287  0.00  0.00     0.066 H 
ENDBRANCH  12  13
ENDBRANCH   1  12
BRANCH   2  17
ATOM     17  O2  MFU d         -37.739  20.396  10.215  0.00  0.00    -0.388 OA
ATOM     18  H9  MFU d         -37.040  20.887  10.631  0.00  0.00     0.210 HD
ENDBRANCH   2  17
BRANCH   3  19
ATOM     19  O3  MFU d         -36.925  19.584  12.806  0.00  0.00    -0.390 OA
ATOM     20  H10 MFU d         -36.432  19.589  11.995  0.00  0.00     0.210 HD
ENDBRANCH   3  19
BRANCH   5  21
ATOM     21  C6  MFU d         -41.469  20.430  14.603  0.00  0.00    -0.050 C 
ATOM     22  H6  MFU d         -42.295  21.146  14.471  0.00  0.00     0.031 H 
ATOM     23  H7  MFU d         -40.982  20.606  15.573  0.00  0.00     0.031 H 
ATOM     24  H8  MFU d         -41.866  19.404  14.572  0.00  0.00     0.031 H 
ENDBRANCH   5  21
BRANCH   4  25
ATOM     25  O4  MFU d         -39.168  18.529  13.866  0.00  0.00    -0.390 OA
ATOM     26  H11 MFU d         -40.069  18.248  13.754  0.00  0.00     0.210 HD
ENDBRANCH   4  25
TORSDOF 6
ENDMDL
MODEL 2
REMARK VINA RESULT:      -5.1      1.681      3.402
REMARK  6 active torsions:
REMARK  status: ('A' for Active; 'I' for Inactive)
REMARK    1  A    between atoms: C1_1  and  O1_7 
REMARK    2  A    between atoms: C2_2  and  O2_8 
REMARK    3  A    between atoms: C3_3  and  O3_9 
REMARK    4  A    between atoms: C4_4  and  O4_10 
REMARK    5  A    between atoms: C5_5  and  C6_6 
REMARK    6  A    between atoms: O1_7  and  CM_12 
ROOT
ATOM      1  C1  MFU d         -39.886  21.952  13.639  0.00  0.00     0.158 C 
ATOM      2  C2  MFU d         -39.635  20.608  14.256  0.00  0.00     0.110 C 
ATOM      3  C3  MFU d         -39.463  19.544  13.154  0.00  0.00     0.092 C 
ATOM      4  C4  MFU d         -38.433  19.900  12.088  0.00  0.00     0.087 C 
ATOM      5  C5  MFU d         -38.804  21.266  11.533  0.00  0.00     0.065 C 
ATOM      6  O5  MFU d         -38.862  22.216  12.632  0.00  0.00    -0.351 OA
ATOM      7  H1  MFU d         -39.855  22.731  14.415  0.00  0.00     0.133 H 
ATOM      8  H2  MFU d         -38.697  20.673  14.826  0.00  0.00     0.094 H 
ATOM      9  H3  MFU d         -40.434  19.389  12.661  0.00  0.00     0.091 H 
ATOM     10  H4  MFU d         -38.463  19.162  11.273  0.00  0.00     0.091 H 
ATOM     11  H5  MFU d         -39.820  21.186  11.120  0.00  0.00     0.086 H 
ENDROOT
BRANCH   1  12
ATOM     12  O1  MFU d         -41.184  21.943  13.006  0.00  0.00    -0.363 OA
BRANCH  12  13
ATOM     13  CM  MFU d         -41.943  23.102  13.456  0.00  0.00     0.007 C 
ATOM     14  H12 MFU d         -42.138  23.016  14.536  0.00  0.00     0.066 H 
ATOM     15  H13 MFU d         -42.899  23.148  12.914  0.00  0.00     0.066 H 
ATOM     16  H14 MFU d         -41.366  24.018  13.260  0.00  0.00     0.066 H 
ENDBRANCH  12  13
ENDBRANCH   1  12
BRANCH   2  17
ATOM     17  O2  MFU d         -40.684  20.193  15.172  0.00  0.00    -0.388 OA
ATOM     18  H9  MFU d         -40.958  20.936  15.696  0.00  0.00     0.210 HD
ENDBRANCH   2  17
BRANCH   3  19
ATOM     19  O3  MFU d         -39.044  18.327  13.808  0.00  0.00    -0.390 OA
ATOM     20  H10 MFU d         -38.402  17.883  13.267  0.00  0.00     0.210 HD
ENDBRANCH   3  19
BRANCH   5  21
ATOM     21  C6  MFU d         -37.896  21.708  10.366  0.00  0.00    -0.050 C 
ATOM     22  H6  MFU d         -38.175  21.156   9.456  0.00  0.00     0.031 H 
ATOM     23  H7  MFU d         -36.846  21.497  10.617  0.00  0.00     0.031 H 
ATOM     24  H8  MFU d         -38.022  22.788  10.192  0.00  0.00     0.031 H 
ENDBRANCH   5  21
BRANCH   4  25
ATOM     25  O4  MFU d         -37.126  19.867  12.705  0.00  0.00    -0.390 OA
ATOM     26  H11 MFU d         -36.533  20.427  12.217  0.00  0.00     0.210 HD
ENDBRANCH   4  25
TORSDOF 6
ENDMDL
MODEL 3
REMARK VINA RESULT:      -5.1      1.209      3.443
REMARK  6 active torsions:
REMARK  status: ('A' for Active; 'I' for Inactive)
REMARK    1  A    between atoms: C1_1  and  O1_7 
REMARK    2  A    between atoms: C2_2  and  O2_8 
REMARK    3  A    between atoms: C3_3  and  O3_9 
REMARK    4  A    between atoms: C4_4  and  O4_10 
REMARK    5  A    between atoms: C5_5  and  C6_6 
REMARK    6  A    between atoms: O1_7  and  CM_12 
ROOT
ATOM      1  C1  MFU d         -39.220  21.086  13.209  0.00  0.00     0.158 C 
ATOM      2  C2  MFU d         -38.040  20.813  12.325  0.00  0.00     0.110 C 
ATOM      3  C3  MFU d         -38.500  20.652  10.863  0.00  0.00     0.092 C 
ATOM      4  C4  MFU d         -39.368  21.792  10.344  0.00  0.00     0.087 C 
ATOM      5  C5  MFU d         -40.529  21.958  11.310  0.00  0.00     0.065 C 
ATOM      6  O5  MFU d         -39.998  22.186  12.644  0.00  0.00    -0.351 OA
ATOM      7  H1  MFU d         -38.877  21.353  14.219  0.00  0.00     0.133 H 
ATOM      8  H2  MFU d         -37.370  21.684  12.384  0.00  0.00     0.094 H 
ATOM      9  H3  MFU d         -39.069  19.714  10.775  0.00  0.00     0.091 H 
ATOM     10  H4  MFU d         -39.763  21.543   9.348  0.00  0.00     0.091 H 
ATOM     11  H5  MFU d         -41.071  21.001  11.337  0.00  0.00     0.086 H 
ENDROOT
BRANCH   1  12
ATOM     12  O1  MFU d         -40.045  19.903  13.268  0.00  0.00    -0.363 OA
BRANCH  12  13
ATOM     13  CM  MFU d         -40.965  20.018  14.393  0.00  0.00     0.007 C 
ATOM     14  H12 MFU d         -40.393  20.134  15.325  0.00  0.00     0.066 H 
ATOM     15  H13 MFU d         -41.586  19.112  14.453  0.00  0.00     0.066 H 
ATOM     16  H14 MFU d         -41.612  20.896  14.248  0.00  0.00     0.066 H 
ENDBRANCH  12  13
ENDBRANCH   1  12
BRANCH   2  17
ATOM     17  O2  MFU d         -37.281  19.641  12.728  0.00  0.00    -0.388 OA
ATOM     18  H9  MFU d         -36.867  19.806  13.567  0.00  0.00     0.210 HD
ENDBRANCH   2  17
BRANCH   3  19
ATOM     19  O3  MFU d         -37.307  20.578  10.053  0.00  0.00    -0.390 OA
ATOM     20  H10 MFU d         -36.543  20.702  10.604  0.00  0.00     0.210 HD
ENDBRANCH   3  19
BRANCH   5  21
ATOM     21  C6  MFU d         -41.550  23.020  10.849  0.00  0.00    -0.050 C 
ATOM     22  H6  MFU d         -42.146  23.354  11.712  0.00  0.00     0.031 H 
ATOM     23  H7  MFU d         -42.216  22.583  10.090  0.00  0.00     0.031 H 
ATOM     24  H8  MFU d         -41.016  23.879  10.417  0.00  0.00     0.031 H 
ENDBRANCH   5  21
BRANCH   4  25
ATOM     25  O4  MFU d         -38.537  22.970  10.238  0.00  0.00    -0.390 OA
ATOM     26  H11 MFU d         -37.674  22.780  10.588  0.00  0.00     0.210 HD
ENDBRANCH   4  25
TORSDOF 6
ENDMDL
MODEL 4
REMARK VINA RESULT:      -5.1      1.105      3.435
REMARK  6 active torsions:
REMARK  status: ('A' for Active; 'I' for Inactive)
REMARK    1  A    between atoms: C1_1  and  O1_7 
REMARK    2  A    between atoms: C2_2  and  O2_8 
REMARK    3  A    between atoms: C3_3  and  O3_9 
REMARK    4  A    between atoms: C4_4  and  O4_10 
REMARK    5  A    between atoms: C5_5  and  C6_6 
REMARK    6  A    between atoms: O1_7  and  CM_12 
ROOT
ATOM      1  C1  MFU d         -40.198  21.449  13.586  0.00  0.00     0.158 C 
ATOM      2  C2  MFU d         -38.818  20.879  13.723  0.00  0.00     0.110 C 
ATOM      3  C3  MFU d         -38.482  20.007  12.497  0.00  0.00     0.092 C 
ATOM      4  C4  MFU d         -38.700  20.694  11.155  0.00  0.00     0.087 C 
ATOM      5  C5  MFU d         -40.129  21.212  11.133  0.00  0.00     0.065 C 
ATOM      6  O5  MFU d         -40.326  22.086  12.278  0.00  0.00    -0.351 OA
ATOM      7  H1  MFU d         -40.377  22.189  14.379  0.00  0.00     0.133 H 
ATOM      8  H2  MFU d         -38.111  21.720  13.755  0.00  0.00     0.094 H 
ATOM      9  H3  MFU d         -39.105  19.101  12.529  0.00  0.00     0.091 H 
ATOM     10  H4  MFU d         -38.568  19.973  10.335  0.00  0.00     0.091 H 
ATOM     11  H5  MFU d         -40.793  20.345  11.270  0.00  0.00     0.086 H 
ENDROOT
BRANCH   1  12
ATOM     12  O1  MFU d         -41.161  20.378  13.689  0.00  0.00    -0.363 OA
BRANCH  12  13
ATOM     13  CM  MFU d         -41.905  20.523  14.933  0.00  0.00     0.007 C 
ATOM     14  H12 MFU d         -42.926  20.138  14.798  0.00  0.00     0.066 H 
ATOM     15  H13 MFU d         -41.949  21.587  15.213  0.00  0.00     0.066 H 
ATOM     16  H14 MFU d         -41.402  19.956  15.730  0.00  0.00     0.066 H 
ENDBRANCH  12  13
ENDBRANCH   1  12
BRANCH   2  17
ATOM     17  O2  MFU d         -38.638  20.100  14.937  0.00  0.00    -0.388 OA
ATOM     18  H9  MFU d         -38.692  19.175  14.729  0.00  0.00     0.210 HD
ENDBRANCH   2  17
BRANCH   3  19
ATOM     19  O3  MFU d         -37.088  19.647  12.607  0.00  0.00    -0.390 OA
ATOM     20  H10 MFU d         -36.550  20.385  12.347  0.00  0.00     0.210 HD
ENDBRANCH   3  19
BRANCH   5  21
ATOM     21  C6  MFU d         -40.520  21.846   9.781  0.00  0.00    -0.050 C 
ATOM     22  H6  MFU d         -40.936  21.072   9.120  0.00  0.00     0.031 H 
ATOM     23  H7  MFU d         -39.629  22.290   9.313  0.00  0.00     0.031 H 
ATOM     24  H8  MFU d         -41.275  22.629   9.948  0.00  0.00     0.031 H 
ENDBRANCH   5  21
BRANCH   4  25
ATOM     25  O4  MFU d         -37.709  21.739  11.024  0.00  0.00    -0.390 OA
ATOM     26  H11 MFU d         -36.865  21.350  10.827  0.00  0.00     0.210 HD
ENDBRANCH   4  25
TORSDOF 6
ENDMDL
MODEL 5
REMARK VINA RESULT:      -4.9      1.324      1.396
REMARK  6 active torsions:
REMARK  status: ('A' for Active; 'I' for Inactive)
REMARK    1  A    between atoms: C1_1  and  O1_7 
REMARK    2  A    between atoms: C2_2  and  O2_8 
REMARK    3  A    between atoms: C3_3  and  O3_9 
REMARK    4  A    between atoms: C4_4  and  O4_10 
REMARK    5  A    between atoms: C5_5  and  C6_6 
REMARK    6  A    between atoms: O1_7  and  CM_12 
ROOT
ATOM      1  C1  MFU d         -39.797  21.243  11.513  0.00  0.00     0.158 C 
ATOM      2  C2  MFU d         -38.891  20.204  12.104  0.00  0.00     0.110 C 
ATOM      3  C3  MFU d         -38.706  20.460  13.612  0.00  0.00     0.092 C 
ATOM      4  C4  MFU d         -40.007  20.612  14.391  0.00  0.00     0.087 C 
ATOM      5  C5  MFU d         -40.824  21.697  13.708  0.00  0.00     0.065 C 
ATOM      6  O5  MFU d         -41.015  21.329  12.314  0.00  0.00    -0.351 OA
ATOM      7  H1  MFU d         -40.050  20.973  10.477  0.00  0.00     0.133 H 
ATOM      8  H2  MFU d         -39.377  19.226  11.974  0.00  0.00     0.094 H 
ATOM      9  H3  MFU d         -38.113  21.377  13.743  0.00  0.00     0.091 H 
ATOM     10  H4  MFU d         -39.795  20.922  15.425  0.00  0.00     0.091 H 
ATOM     11  H5  MFU d         -40.221  22.617  13.720  0.00  0.00     0.086 H 
ENDROOT
BRANCH   1  12
ATOM     12  O1  MFU d         -39.123  22.520  11.535  0.00  0.00    -0.363 OA
BRANCH  12  13
ATOM     13  CM  MFU d         -39.122  23.082  10.190  0.00  0.00     0.007 C 
ATOM     14  H12 MFU d         -39.214  22.271   9.453  0.00  0.00     0.066 H 
ATOM     15  H13 MFU d         -38.182  23.627  10.021  0.00  0.00     0.066 H 
ATOM     16  H14 MFU d         -39.971  23.774  10.082  0.00  0.00     0.066 H 
ENDBRANCH  12  13
ENDBRANCH   1  12
BRANCH   2  17
ATOM     17  O2  MFU d         -37.590  20.144  11.458  0.00  0.00    -0.388 OA
ATOM     18  H9  MFU d         -37.659  20.490  10.576  0.00  0.00     0.210 HD
ENDBRANCH   2  17
BRANCH   3  19
ATOM     19  O3  MFU d         -37.984  19.329  14.144  0.00  0.00    -0.390 OA
ATOM     20  H10 MFU d         -38.571  18.586  14.218  0.00  0.00     0.210 HD
ENDBRANCH   3  19
BRANCH   5  21
ATOM     21  C6  MFU d         -42.132  22.028  14.456  0.00  0.00    -0.050 C 
ATOM     22  H6  MFU d         -41.976  22.910  15.095  0.00  0.00     0.031 H 
ATOM     23  H7  MFU d         -42.426  21.171  15.079  0.00  0.00     0.031 H 
ATOM     24  H8  MFU d         -42.929  22.241  13.727  0.00  0.00     0.031 H 
ENDBRANCH   5  21
BRANCH   4  25
ATOM     25  O4  MFU d         -40.666  19.326  14.413  0.00  0.00    -0.390 OA
ATOM     26  H11 MFU d         -41.266  19.291  15.149  0.00  0.00     0.210 HD
ENDBRANCH   4  25
TORSDOF 6
ENDMDL
MODEL 6
REMARK VINA RESULT:      -4.2      1.952      3.423
REMARK  6 active torsions:
REMARK  status: ('A' for Active; 'I' for Inactive)
REMARK    1  A    between atoms: C1_1  and  O1_7 
REMARK    2  A    between atoms: C2_2  and  O2_8 
REMARK    3  A    between atoms: C3_3  and  O3_9 
REMARK    4  A    between atoms: C4_4  and  O4_10 
REMARK    5  A    between atoms: C5_5  and  C6_6 
REMARK    6  A    between atoms: O1_7  and  CM_12 
ROOT
ATOM      1  C1  MFU d         -38.417  21.885  13.565  0.00  0.00     0.158 C 
ATOM      2  C2  MFU d         -38.114  20.419  13.652  0.00  0.00     0.110 C 
ATOM      3  C3  MFU d         -39.358  19.597  13.265  0.00  0.00     0.092 C 
ATOM      4  C4  MFU d         -39.982  19.986  11.929  0.00  0.00     0.087 C 
ATOM      5  C5  MFU d         -40.255  21.480  11.971  0.00  0.00     0.065 C 
ATOM      6  O5  MFU d         -39.011  22.174  12.262  0.00  0.00    -0.351 OA
ATOM      7  H1  MFU d         -37.493  22.466  13.690  0.00  0.00     0.133 H 
ATOM      8  H2  MFU d         -37.314  20.200  12.930  0.00  0.00     0.094 H 
ATOM      9  H3  MFU d         -40.118  19.717  14.051  0.00  0.00     0.091 H 
ATOM     10  H4  MFU d         -40.933  19.452  11.786  0.00  0.00     0.091 H 
ATOM     11  H5  MFU d         -40.934  21.665  12.817  0.00  0.00     0.086 H 
ENDROOT
BRANCH   1  12
ATOM     12  O1  MFU d         -39.359  22.232  14.603  0.00  0.00    -0.363 OA
BRANCH  12  13
ATOM     13  CM  MFU d         -38.703  23.102  15.571  0.00  0.00     0.007 C 
ATOM     14  H12 MFU d         -38.665  24.128  15.175  0.00  0.00     0.066 H 
ATOM     15  H13 MFU d         -37.680  22.742  15.753  0.00  0.00     0.066 H 
ATOM     16  H14 MFU d         -39.269  23.093  16.514  0.00  0.00     0.066 H 
ENDBRANCH  12  13
ENDBRANCH   1  12
BRANCH   2  17
ATOM     17  O2  MFU d         -37.650  20.007  14.967  0.00  0.00    -0.388 OA
ATOM     18  H9  MFU d         -38.106  19.216  15.229  0.00  0.00     0.210 HD
ENDBRANCH   2  17
BRANCH   3  19
ATOM     19  O3  MFU d         -38.944  18.216  13.192  0.00  0.00    -0.390 OA
ATOM     20  H10 MFU d         -38.029  18.174  12.941  0.00  0.00     0.210 HD
ENDBRANCH   3  19
BRANCH   5  21
ATOM     21  C6  MFU d         -40.984  21.996  10.712  0.00  0.00    -0.050 C 
ATOM     22  H6  MFU d         -41.041  23.094  10.745  0.00  0.00     0.031 H 
ATOM     23  H7  MFU d         -42.000  21.576  10.679  0.00  0.00     0.031 H 
ATOM     24  H8  MFU d         -40.430  21.684   9.814  0.00  0.00     0.031 H 
ENDBRANCH   5  21
BRANCH   4  25
ATOM     25  O4  MFU d         -39.064  19.600  10.881  0.00  0.00    -0.390 OA
ATOM     26  H11 MFU d         -39.139  18.665  10.724  0.00  0.00     0.210 HD
ENDBRANCH   4  25
TORSDOF 6
ENDMDL
MODEL 7
REMARK VINA RESULT:      -4.1      2.025      2.633
REMARK  6 active torsions:
REMARK  status: ('A' for Active; 'I' for Inactive)
REMARK    1  A    between atoms: C1_1  and  O1_7 
REMARK    2  A    between atoms: C2_2  and  O2_8 
REMARK    3  A    between atoms: C3_3  and  O3_9 
REMARK    4  A    between atoms: C4_4  and  O4_10 
REMARK    5  A    between atoms: C5_5  and  C6_6 
REMARK    6  A    between atoms: O1_7  and  CM_12 
ROOT
ATOM      1  C1  MFU d         -39.261  22.884  12.533  0.00  0.00     0.158 C 
ATOM      2  C2  MFU d         -38.672  22.185  11.344  0.00  0.00     0.110 C 
ATOM      3  C3  MFU d         -38.324  20.728  11.705  0.00  0.00     0.092 C 
ATOM      4  C4  MFU d         -39.467  19.944  12.339  0.00  0.00     0.087 C 
ATOM      5  C5  MFU d         -39.963  20.743  13.533  0.00  0.00     0.065 C 
ATOM      6  O5  MFU d         -40.343  22.071  13.080  0.00  0.00    -0.351 OA
ATOM      7  H1  MFU d         -39.649  23.869  12.233  0.00  0.00     0.133 H 
ATOM      8  H2  MFU d         -39.436  22.173  10.552  0.00  0.00     0.094 H 
ATOM      9  H3  MFU d         -37.476  20.733  12.407  0.00  0.00     0.091 H 
ATOM     10  H4  MFU d         -39.106  18.965  12.688  0.00  0.00     0.091 H 
ATOM     11  H5  MFU d         -39.112  20.867  14.219  0.00  0.00     0.086 H 
ENDROOT
BRANCH   1  12
ATOM     12  O1  MFU d         -38.235  23.047  13.536  0.00  0.00    -0.363 OA
BRANCH  12  13
ATOM     13  CM  MFU d         -38.859  23.102  14.852  0.00  0.00     0.007 C 
ATOM     14  H12 MFU d         -38.153  23.538  15.575  0.00  0.00     0.066 H 
ATOM     15  H13 MFU d         -39.129  22.085  15.172  0.00  0.00     0.066 H 
ATOM     16  H14 MFU d         -39.765  23.724  14.803  0.00  0.00     0.066 H 
ENDBRANCH  12  13
ENDBRANCH   1  12
BRANCH   2  17
ATOM     17  O2  MFU d         -37.493  22.849  10.813  0.00  0.00    -0.388 OA
ATOM     18  H9  MFU d         -37.330  22.544   9.929  0.00  0.00     0.210 HD
ENDBRANCH   2  17
BRANCH   3  19
ATOM     19  O3  MFU d         -37.941  20.071  10.479  0.00  0.00    -0.390 OA
ATOM     20  H10 MFU d         -36.994  20.034  10.422  0.00  0.00     0.210 HD
ENDBRANCH   3  19
BRANCH   5  21
ATOM     21  C6  MFU d         -41.061  20.012  14.333  0.00  0.00    -0.050 C 
ATOM     22  H6  MFU d         -40.620  19.562  15.235  0.00  0.00     0.031 H 
ATOM     23  H7  MFU d         -41.507  19.224  13.709  0.00  0.00     0.031 H 
ATOM     24  H8  MFU d         -41.841  20.731  14.627  0.00  0.00     0.031 H 
ENDBRANCH   5  21
BRANCH   4  25
ATOM     25  O4  MFU d         -40.479  19.738  11.327  0.00  0.00    -0.390 OA
ATOM     26  H11 MFU d         -41.027  19.001  11.574  0.00  0.00     0.210 HD
ENDBRANCH   4  25
TORSDOF 6
ENDMDL
MODEL 8
REMARK VINA RESULT:      -3.9      2.276      3.181
REMARK  6 active torsions:
REMARK  status: ('A' for Active; 'I' for Inactive)
REMARK    1  A    between atoms: C1_1  and  O1_7 
REMARK    2  A    between atoms: C2_2  and  O2_8 
REMARK    3  A    between atoms: C3_3  and  O3_9 
REMARK    4  A    between atoms: C4_4  and  O4_10 
REMARK    5  A    between atoms: C5_5  and  C6_6 
REMARK    6  A    between atoms: O1_7  and  CM_12 
ROOT
ATOM      1  C1  MFU d         -39.612  21.833  12.286  0.00  0.00     0.158 C 
ATOM      2  C2  MFU d         -40.623  20.824  12.741  0.00  0.00     0.110 C 
ATOM      3  C3  MFU d         -40.160  20.167  14.056  0.00  0.00     0.092 C 
ATOM      4  C4  MFU d         -39.783  21.153  15.156  0.00  0.00     0.087 C 
ATOM      5  C5  MFU d         -38.748  22.106  14.579  0.00  0.00     0.065 C 
ATOM      6  O5  MFU d         -39.304  22.735  13.393  0.00  0.00    -0.351 OA
ATOM      7  H1  MFU d         -40.012  22.407  11.438  0.00  0.00     0.133 H 
ATOM      8  H2  MFU d         -41.565  21.358  12.932  0.00  0.00     0.094 H 
ATOM      9  H3  MFU d         -39.287  19.533  13.844  0.00  0.00     0.091 H 
ATOM     10  H4  MFU d         -39.340  20.617  16.008  0.00  0.00     0.091 H 
ATOM     11  H5  MFU d         -37.891  21.499  14.252  0.00  0.00     0.086 H 
ENDROOT
BRANCH   1  12
ATOM     12  O1  MFU d         -38.408  21.144  11.886  0.00  0.00    -0.363 OA
BRANCH  12  13
ATOM     13  CM  MFU d         -38.017  21.597  10.558  0.00  0.00     0.007 C 
ATOM     14  H12 MFU d         -36.988  21.269  10.346  0.00  0.00     0.066 H 
ATOM     15  H13 MFU d         -38.067  22.696  10.515  0.00  0.00     0.066 H 
ATOM     16  H14 MFU d         -38.700  21.170   9.808  0.00  0.00     0.066 H 
ENDBRANCH  12  13
ENDBRANCH   1  12
BRANCH   2  17
ATOM     17  O2  MFU d         -40.889  19.793  11.751  0.00  0.00    -0.388 OA
ATOM     18  H9  MFU d         -41.196  20.198  10.949  0.00  0.00     0.210 HD
ENDBRANCH   2  17
BRANCH   3  19
ATOM     19  O3  MFU d         -41.255  19.353  14.527  0.00  0.00    -0.390 OA
ATOM     20  H10 MFU d         -41.660  18.912  13.790  0.00  0.00     0.210 HD
ENDBRANCH   3  19
BRANCH   5  21
ATOM     21  C6  MFU d         -38.199  23.102  15.622  0.00  0.00    -0.050 C 
ATOM     22  H6  MFU d         -38.870  23.971  15.688  0.00  0.00     0.031 H 
ATOM     23  H7  MFU d         -37.195  23.435  15.318  0.00  0.00     0.031 H 
ATOM     24  H8  MFU d         -38.140  22.610  16.605  0.00  0.00     0.031 H 
ENDBRANCH   5  21
BRANCH   4  25
ATOM     25  O4  MFU d         -40.991  21.815  15.593  0.00  0.00    -0.390 OA
ATOM     26  H11 MFU d         -40.763  22.589  16.096  0.00  0.00     0.210 HD
ENDBRANCH   4  25
TORSDOF 6
ENDMDL
MODEL 9
REMARK VINA RESULT:      -3.8      1.552      2.187
REMARK  6 active torsions:
REMARK  status: ('A' for Active; 'I' for Inactive)
REMARK    1  A    between atoms: C1_1  and  O1_7 
REMARK    2  A    between atoms: C2_2  and  O2_8 
REMARK    3  A    between atoms: C3_3  and  O3_9 
REMARK    4  A    between atoms: C4_4  and  O4_10 
REMARK    5  A    between atoms: C5_5  and  C6_6 
REMARK    6  A    between atoms: O1_7  and  CM_12 
ROOT
ATOM      1  C1  MFU d         -40.709  21.270  10.540  0.00  0.00     0.158 C 
ATOM      2  C2  MFU d         -39.384  21.882  10.194  0.00  0.00     0.110 C 
ATOM      3  C3  MFU d         -38.615  22.241  11.480  0.00  0.00     0.092 C 
ATOM      4  C4  MFU d         -38.487  21.097  12.479  0.00  0.00     0.087 C 
ATOM      5  C5  MFU d         -39.887  20.576  12.758  0.00  0.00     0.065 C 
ATOM      6  O5  MFU d         -40.501  20.188  11.499  0.00  0.00    -0.351 OA
ATOM      7  H1  MFU d         -41.187  20.876   9.631  0.00  0.00     0.133 H 
ATOM      8  H2  MFU d         -38.804  21.130   9.640  0.00  0.00     0.094 H 
ATOM      9  H3  MFU d         -39.128  23.078  11.975  0.00  0.00     0.091 H 
ATOM     10  H4  MFU d         -38.047  21.463  13.419  0.00  0.00     0.091 H 
ATOM     11  H5  MFU d         -40.475  21.415  13.159  0.00  0.00     0.086 H 
ENDROOT
BRANCH   1  12
ATOM     12  O1  MFU d         -41.550  22.279  11.138  0.00  0.00    -0.363 OA
BRANCH  12  13
ATOM     13  CM  MFU d         -42.460  22.803  10.127  0.00  0.00     0.007 C 
ATOM     14  H12 MFU d         -41.931  23.538   9.503  0.00  0.00     0.066 H 
ATOM     15  H13 MFU d         -43.316  23.288  10.620  0.00  0.00     0.066 H 
ATOM     16  H14 MFU d         -42.820  21.977   9.495  0.00  0.00     0.066 H 
ENDBRANCH  12  13
ENDBRANCH   1  12
BRANCH   2  17
ATOM     17  O2  MFU d         -39.500  23.061   9.353  0.00  0.00    -0.388 OA
ATOM     18  H9  MFU d         -39.539  23.837   9.900  0.00  0.00     0.210 HD
ENDBRANCH   2  17
BRANCH   3  19
ATOM     19  O3  MFU d         -37.290  22.647  11.077  0.00  0.00    -0.390 OA
ATOM     20  H10 MFU d         -37.308  23.556  10.802  0.00  0.00     0.210 HD
ENDBRANCH   3  19
BRANCH   5  21
ATOM     21  C6  MFU d         -39.916  19.474  13.839  0.00  0.00    -0.050 C 
ATOM     22  H6  MFU d         -40.155  18.508  13.370  0.00  0.00     0.031 H 
ATOM     23  H7  MFU d         -40.682  19.717  14.590  0.00  0.00     0.031 H 
ATOM     24  H8  MFU d         -38.932  19.411  14.326  0.00  0.00     0.031 H 
ENDBRANCH   5  21
BRANCH   4  25
ATOM     25  O4  MFU d         -37.609  20.102  11.906  0.00  0.00    -0.390 OA
ATOM     26  H11 MFU d         -36.729  20.457  11.840  0.00  0.00     0.210 HD
ENDBRANCH   4  25
TORSDOF 6
ENDMDL
MODEL 10
REMARK VINA RESULT:      -3.8      1.975      3.484
REMARK  6 active torsions:
REMARK  status: ('A' for Active; 'I' for Inactive)
REMARK    1  A    between atoms: C1_1  and  O1_7 
REMARK    2  A    between atoms: C2_2  and  O2_8 
REMARK    3  A    between atoms: C3_3  and  O3_9 
REMARK    4  A    between atoms: C4_4  and  O4_10 
REMARK    5  A    between atoms: C5_5  and  C6_6 
REMARK    6  A    between atoms: O1_7  and  CM_12 
ROOT
ATOM      1  C1  MFU d         -39.627  20.039  12.397  0.00  0.00     0.158 C 
ATOM      2  C2  MFU d         -39.577  20.528  10.981  0.00  0.00     0.110 C 
ATOM      3  C3  MFU d         -39.852  22.044  10.934  0.00  0.00     0.092 C 
ATOM      4  C4  MFU d         -38.980  22.873  11.870  0.00  0.00     0.087 C 
ATOM      5  C5  MFU d         -39.129  22.291  13.267  0.00  0.00     0.065 C 
ATOM      6  O5  MFU d         -38.771  20.883  13.226  0.00  0.00    -0.351 OA
ATOM      7  H1  MFU d         -39.281  18.996  12.445  0.00  0.00     0.133 H 
ATOM      8  H2  MFU d         -38.560  20.347  10.601  0.00  0.00     0.094 H 
ATOM      9  H3  MFU d         -40.906  22.218  11.196  0.00  0.00     0.091 H 
ATOM     10  H4  MFU d         -39.322  23.918  11.880  0.00  0.00     0.091 H 
ATOM     11  H5  MFU d         -40.195  22.347  13.532  0.00  0.00     0.086 H 
ENDROOT
BRANCH   1  12
ATOM     12  O1  MFU d         -40.987  20.126  12.876  0.00  0.00    -0.363 OA
BRANCH  12  13
ATOM     13  CM  MFU d         -41.012  19.822  14.301  0.00  0.00     0.007 C 
ATOM     14  H12 MFU d         -41.702  18.986  14.485  0.00  0.00     0.066 H 
ATOM     15  H13 MFU d         -41.352  20.708  14.859  0.00  0.00     0.066 H 
ATOM     16  H14 MFU d         -40.001  19.544  14.635  0.00  0.00     0.066 H 
ENDBRANCH  12  13
ENDBRANCH   1  12
BRANCH   2  17
ATOM     17  O2  MFU d         -40.508  19.839  10.103  0.00  0.00    -0.388 OA
ATOM     18  H9  MFU d         -40.359  20.115   9.206  0.00  0.00     0.210 HD
ENDBRANCH   2  17
BRANCH   3  19
ATOM     19  O3  MFU d         -39.605  22.474   9.578  0.00  0.00    -0.390 OA
ATOM     20  H10 MFU d         -40.329  22.205   9.026  0.00  0.00     0.210 HD
ENDBRANCH   3  19
BRANCH   5  21
ATOM     21  C6  MFU d         -38.374  23.102  14.341  0.00  0.00    -0.050 C 
ATOM     22  H6  MFU d         -37.420  22.605  14.572  0.00  0.00     0.031 H 
ATOM     23  H7  MFU d         -38.986  23.163  15.253  0.00  0.00     0.031 H 
ATOM     24  H8  MFU d         -38.176  24.117  13.964  0.00  0.00     0.031 H 
ENDBRANCH   5  21
BRANCH   4  25
ATOM     25  O4  MFU d         -37.624  22.827  11.372  0.00  0.00    -0.390 OA
ATOM     26  H11 MFU d         -37.606  22.353  10.548  0.00  0.00     0.210 HD
ENDBRANCH   4  25
TORSDOF 6
ENDMDL
