MODEL 1
REMARK VINA RESULT:     -10.5      0.000      0.000
REMARK  6 active torsions:
REMARK  status: ('A' for Active; 'I' for Inactive)
REMARK       I    between atoms: C22_2  and  N24_3 
REMARK    1  A    between atoms: C22_2  and  C19_16 
REMARK    2  A    between atoms: N24_3  and  C26_4 
REMARK    3  A    between atoms: C29_6  and  N31_10 
REMARK    4  A    between atoms: C18_19  and  C21_20 
REMARK    5  A    between atoms: C15_21  and  C12_23 
REMARK    6  A    between atoms: C2_30  and  C5_32 
ROOT
ATOM      1  C19 MOL d          39.945  30.557  33.566  0.00  0.00     0.033 A 
ATOM      2  C23 MOL d          39.049  31.424  32.927  0.00  0.00    -0.067 A 
ATOM      3  C20 MOL d          39.414  32.037  31.726  0.00  0.00    -0.075 A 
ATOM      4  C18 MOL d          40.662  31.795  31.152  0.00  0.00    -0.051 A 
ATOM      5  C15 MOL d          41.548  30.934  31.803  0.00  0.00    -0.019 A 
ATOM      6  C17 MOL d          41.206  30.323  32.993  0.00  0.00    -0.057 A 
ATOM      7  H14 MOL d          38.075  31.618  33.363  0.00  0.00     0.085 H 
ATOM      8  H15 MOL d          38.719  32.710  31.235  0.00  0.00     0.084 H 
ATOM      9  H19 MOL d          41.911  29.664  33.485  0.00  0.00     0.086 H 
ENDROOT
BRANCH   5  10
ATOM     10  C12 MOL d          42.866  30.668  31.202  0.00  0.00    -0.023 A 
ATOM     11  C9  MOL d          43.323  29.353  31.136  0.00  0.00    -0.071 A 
ATOM     12  C4  MOL d          44.560  29.086  30.546  0.00  0.00    -0.067 A 
ATOM     13  H20 MOL d          42.723  28.545  31.538  0.00  0.00     0.084 H 
ATOM     14  C1  MOL d          45.315  30.167  30.033  0.00  0.00     0.027 A 
ATOM     15  H21 MOL d          44.935  28.071  30.483  0.00  0.00     0.085 H 
ATOM     16  C3  MOL d          44.836  31.445  30.114  0.00  0.00     0.114 A 
ATOM     17  C2  MOL d          46.563  30.199  29.404  0.00  0.00     0.079 A 
ATOM     18  O8  MOL d          45.763  32.270  29.545  0.00  0.00    -0.212 OA
ATOM     19  C7  MOL d          43.623  31.718  30.682  0.00  0.00    -0.037 A 
ATOM     20  N6  MOL d          46.778  31.525  29.127  0.00  0.00    -0.131 NA
ATOM     21  H22 MOL d          43.254  32.737  30.729  0.00  0.00     0.089 H 
BRANCH  17  22
ATOM     22  C5  MOL d          47.485  29.037  29.109  0.00  0.00    -0.006 C 
ATOM     23  C10 MOL d          46.807  27.973  28.213  0.00  0.00    -0.034 C 
ATOM     24  C13 MOL d          47.860  26.997  27.690  0.00  0.00     0.082 C 
ATOM     25  H24 MOL d          46.315  28.469  27.364  0.00  0.00     0.036 H 
ATOM     26  H25 MOL d          46.057  27.423  28.800  0.00  0.00     0.036 H 
ATOM     27  N16 MOL d          48.589  26.314  28.771  0.00  0.00    -0.075 N 
ATOM     28  H26 MOL d          48.583  27.555  27.077  0.00  0.00     0.075 H 
ATOM     29  H27 MOL d          47.360  26.239  27.070  0.00  0.00     0.075 H 
ATOM     30  C14 MOL d          48.956  27.135  29.949  0.00  0.00     0.082 C 
ATOM     31  H28 MOL d          49.440  25.945  28.379  0.00  0.00     0.277 HD
ATOM     32  H29 MOL d          48.012  25.555  29.096  0.00  0.00     0.277 HD
ATOM     33  C11 MOL d          47.977  28.273  30.352  0.00  0.00    -0.034 C 
ATOM     34  H30 MOL d          49.933  27.597  29.739  0.00  0.00     0.075 H 
ATOM     35  H31 MOL d          49.049  26.457  30.810  0.00  0.00     0.075 H 
ATOM     36  H32 MOL d          47.112  27.836  30.873  0.00  0.00     0.036 H 
ATOM     37  H33 MOL d          48.494  28.973  31.025  0.00  0.00     0.036 H 
ATOM     38  H23 MOL d          48.362  29.443  28.582  0.00  0.00     0.050 H 
ENDBRANCH  17  22
ENDBRANCH   5  10
BRANCH   4  39
ATOM     39  C21 MOL d          41.032  32.475  29.837  0.00  0.00    -0.050 C 
ATOM     40  H16 MOL d          41.768  33.269  30.028  0.00  0.00     0.033 H 
ATOM     41  H17 MOL d          40.130  32.912  29.384  0.00  0.00     0.033 H 
ATOM     42  H18 MOL d          41.465  31.732  29.150  0.00  0.00     0.033 H 
ENDBRANCH   4  39
BRANCH   1  43
ATOM     43  C22 MOL d          39.665  29.887  34.859  0.00  0.00     0.256 C 
ATOM     44  O25 MOL d          39.220  30.566  35.780  0.00  0.00    -0.267 OA
ATOM     45  N24 MOL d          39.827  28.535  34.958  0.00  0.00    -0.323 N 
ATOM     46  H1  MOL d          40.165  28.053  34.150  0.00  0.00     0.169 HD
BRANCH  45  47
ATOM     47  C26 MOL d          39.559  27.768  36.098  0.00  0.00     0.037 A 
ATOM     48  C27 MOL d          39.754  28.210  37.441  0.00  0.00    -0.032 A 
ATOM     49  C29 MOL d          39.483  27.389  38.567  0.00  0.00     0.032 A 
ATOM     50  H2  MOL d          40.124  29.214  37.609  0.00  0.00     0.090 H 
ATOM     51  C32 MOL d          39.001  26.088  38.288  0.00  0.00    -0.057 A 
ATOM     52  C30 MOL d          38.797  25.644  36.975  0.00  0.00    -0.079 A 
ATOM     53  H3  MOL d          38.784  25.417  39.112  0.00  0.00     0.086 H 
ATOM     54  C28 MOL d          39.077  26.479  35.885  0.00  0.00    -0.057 A 
ATOM     55  H4  MOL d          38.417  24.643  36.801  0.00  0.00     0.083 H 
ATOM     56  H5  MOL d          38.919  26.121  34.875  0.00  0.00     0.086 H 
BRANCH  49  57
ATOM     57  N31 MOL d          39.740  27.817  39.888  0.00  0.00    -0.377 N 
ATOM     58  C33 MOL d          40.299  29.179  40.099  0.00  0.00     0.015 C 
ATOM     59  C35 MOL d          40.087  29.743  41.518  0.00  0.00     0.034 C 
ATOM     60  H6  MOL d          39.820  29.862  39.382  0.00  0.00     0.067 H 
ATOM     61  H7  MOL d          41.380  29.140  39.902  0.00  0.00     0.067 H 
ATOM     62  O37 MOL d          40.449  28.736  42.433  0.00  0.00    -0.388 OA
ATOM     63  H8  MOL d          39.031  30.017  41.660  0.00  0.00     0.076 H 
ATOM     64  H9  MOL d          40.719  30.631  41.667  0.00  0.00     0.076 H 
ATOM     65  C36 MOL d          39.543  27.649  42.427  0.00  0.00     0.034 C 
ATOM     66  C34 MOL d          39.583  26.910  41.070  0.00  0.00     0.015 C 
ATOM     67  H10 MOL d          38.525  28.028  42.601  0.00  0.00     0.076 H 
ATOM     68  H11 MOL d          39.816  26.947  43.228  0.00  0.00     0.076 H 
ATOM     69  H12 MOL d          40.431  26.209  41.082  0.00  0.00     0.067 H 
ATOM     70  H13 MOL d          38.645  26.349  40.953  0.00  0.00     0.067 H 
ENDBRANCH  49  57
ENDBRANCH  45  47
ENDBRANCH   1  43
TORSDOF 6
ENDMDL
MODEL 2
REMARK VINA RESULT:      -9.9      1.950     10.794
REMARK  6 active torsions:
REMARK  status: ('A' for Active; 'I' for Inactive)
REMARK       I    between atoms: C22_2  and  N24_3 
REMARK    1  A    between atoms: C22_2  and  C19_16 
REMARK    2  A    between atoms: N24_3  and  C26_4 
REMARK    3  A    between atoms: C29_6  and  N31_10 
REMARK    4  A    between atoms: C18_19  and  C21_20 
REMARK    5  A    between atoms: C15_21  and  C12_23 
REMARK    6  A    between atoms: C2_30  and  C5_32 
ROOT
ATOM      1  C19 MOL d          41.694  31.615  31.426  0.00  0.00     0.033 A 
ATOM      2  C23 MOL d          40.569  32.183  30.814  0.00  0.00    -0.067 A 
ATOM      3  C20 MOL d          39.318  32.077  31.427  0.00  0.00    -0.075 A 
ATOM      4  C18 MOL d          39.174  31.413  32.645  0.00  0.00    -0.051 A 
ATOM      5  C15 MOL d          40.302  30.845  33.241  0.00  0.00    -0.019 A 
ATOM      6  C17 MOL d          41.546  30.936  32.647  0.00  0.00    -0.057 A 
ATOM      7  H14 MOL d          40.668  32.703  29.867  0.00  0.00     0.085 H 
ATOM      8  H15 MOL d          38.449  32.516  30.950  0.00  0.00     0.084 H 
ATOM      9  H19 MOL d          42.407  30.483  33.123  0.00  0.00     0.086 H 
ENDROOT
BRANCH   5  10
ATOM     10  C12 MOL d          40.162  30.147  34.530  0.00  0.00    -0.023 A 
ATOM     11  C9  MOL d          40.611  30.777  35.690  0.00  0.00    -0.071 A 
ATOM     12  C4  MOL d          40.460  30.135  36.921  0.00  0.00    -0.067 A 
ATOM     13  H20 MOL d          41.071  31.757  35.636  0.00  0.00     0.084 H 
ATOM     14  C1  MOL d          39.855  28.857  36.950  0.00  0.00     0.027 A 
ATOM     15  H21 MOL d          40.801  30.607  37.835  0.00  0.00     0.085 H 
ATOM     16  C3  MOL d          39.425  28.268  35.793  0.00  0.00     0.114 A 
ATOM     17  C2  MOL d          39.582  27.994  38.015  0.00  0.00     0.079 A 
ATOM     18  O8  MOL d          38.889  27.057  36.121  0.00  0.00    -0.212 OA
ATOM     19  C7  MOL d          39.560  28.890  34.583  0.00  0.00    -0.037 A 
ATOM     20  N6  MOL d          38.984  26.905  37.435  0.00  0.00    -0.131 NA
ATOM     21  H22 MOL d          39.204  28.413  33.677  0.00  0.00     0.089 H 
BRANCH  17  22
ATOM     22  C5  MOL d          39.892  28.201  39.482  0.00  0.00    -0.006 C 
ATOM     23  C10 MOL d          39.615  26.927  40.316  0.00  0.00    -0.034 C 
ATOM     24  C13 MOL d          40.233  27.080  41.705  0.00  0.00     0.082 C 
ATOM     25  H24 MOL d          40.058  26.055  39.813  0.00  0.00     0.036 H 
ATOM     26  H25 MOL d          38.529  26.780  40.413  0.00  0.00     0.036 H 
ATOM     27  N16 MOL d          39.713  28.249  42.433  0.00  0.00    -0.075 N 
ATOM     28  H26 MOL d          41.321  27.191  41.595  0.00  0.00     0.075 H 
ATOM     29  H27 MOL d          40.013  26.175  42.290  0.00  0.00     0.075 H 
ATOM     30  C14 MOL d          39.508  29.487  41.646  0.00  0.00     0.082 C 
ATOM     31  H28 MOL d          40.363  28.461  43.173  0.00  0.00     0.277 HD
ATOM     32  H29 MOL d          38.824  27.989  42.831  0.00  0.00     0.277 HD
ATOM     33  C11 MOL d          39.081  29.320  40.161  0.00  0.00    -0.034 C 
ATOM     34  H30 MOL d          40.456  30.047  41.657  0.00  0.00     0.075 H 
ATOM     35  H31 MOL d          38.729  30.076  42.151  0.00  0.00     0.075 H 
ATOM     36  H32 MOL d          38.011  29.066  40.120  0.00  0.00     0.036 H 
ATOM     37  H33 MOL d          39.254  30.266  39.626  0.00  0.00     0.036 H 
ATOM     38  H23 MOL d          40.961  28.452  39.556  0.00  0.00     0.050 H 
ENDBRANCH  17  22
ENDBRANCH   5  10
BRANCH   4  39
ATOM     39  C21 MOL d          37.796  31.318  33.295  0.00  0.00    -0.050 C 
ATOM     40  H16 MOL d          37.399  30.300  33.167  0.00  0.00     0.033 H 
ATOM     41  H17 MOL d          37.117  32.040  32.819  0.00  0.00     0.033 H 
ATOM     42  H18 MOL d          37.881  31.546  34.368  0.00  0.00     0.033 H 
ENDBRANCH   4  39
BRANCH   1  43
ATOM     43  C22 MOL d          43.055  31.642  30.839  0.00  0.00     0.256 C 
ATOM     44  O25 MOL d          43.621  32.727  30.736  0.00  0.00    -0.267 OA
ATOM     45  N24 MOL d          43.665  30.465  30.516  0.00  0.00    -0.323 N 
ATOM     46  H1  MOL d          43.145  29.623  30.661  0.00  0.00     0.169 HD
BRANCH  45  47
ATOM     47  C26 MOL d          44.960  30.338  29.999  0.00  0.00     0.037 A 
ATOM     48  C27 MOL d          45.606  29.098  29.715  0.00  0.00    -0.032 A 
ATOM     49  C29 MOL d          46.928  29.019  29.206  0.00  0.00     0.032 A 
ATOM     50  H2  MOL d          45.064  28.177  29.897  0.00  0.00     0.090 H 
ATOM     51  C32 MOL d          47.587  30.252  28.988  0.00  0.00    -0.057 A 
ATOM     52  C30 MOL d          46.962  31.477  29.253  0.00  0.00    -0.079 A 
ATOM     53  H3  MOL d          48.601  30.248  28.606  0.00  0.00     0.086 H 
ATOM     54  C28 MOL d          45.656  31.520  29.759  0.00  0.00    -0.057 A 
ATOM     55  H4  MOL d          47.495  32.402  29.065  0.00  0.00     0.083 H 
ATOM     56  H5  MOL d          45.186  32.475  29.963  0.00  0.00     0.086 H 
BRANCH  49  57
ATOM     57  N31 MOL d          47.577  27.783  28.990  0.00  0.00    -0.377 N 
ATOM     58  C33 MOL d          47.563  26.771  30.079  0.00  0.00     0.015 C 
ATOM     59  C35 MOL d          47.835  25.327  29.613  0.00  0.00     0.034 C 
ATOM     60  H6  MOL d          46.573  26.797  30.559  0.00  0.00     0.067 H 
ATOM     61  H7  MOL d          48.334  27.046  30.814  0.00  0.00     0.067 H 
ATOM     62  O37 MOL d          48.958  25.360  28.764  0.00  0.00    -0.388 OA
ATOM     63  H8  MOL d          46.963  24.937  29.067  0.00  0.00     0.076 H 
ATOM     64  H9  MOL d          48.040  24.684  30.482  0.00  0.00     0.076 H 
ATOM     65  C36 MOL d          48.685  26.004  27.534  0.00  0.00     0.034 C 
ATOM     66  C34 MOL d          48.379  27.503  27.756  0.00  0.00     0.015 C 
ATOM     67  H10 MOL d          47.816  25.525  27.060  0.00  0.00     0.076 H 
ATOM     68  H11 MOL d          49.561  25.909  26.875  0.00  0.00     0.076 H 
ATOM     69  H12 MOL d          49.333  28.045  27.833  0.00  0.00     0.067 H 
ATOM     70  H13 MOL d          47.816  27.874  26.886  0.00  0.00     0.067 H 
ENDBRANCH  49  57
ENDBRANCH  45  47
ENDBRANCH   1  43
TORSDOF 6
ENDMDL
MODEL 3
REMARK VINA RESULT:      -8.5      2.463     10.924
REMARK  6 active torsions:
REMARK  status: ('A' for Active; 'I' for Inactive)
REMARK       I    between atoms: C22_2  and  N24_3 
REMARK    1  A    between atoms: C22_2  and  C19_16 
REMARK    2  A    between atoms: N24_3  and  C26_4 
REMARK    3  A    between atoms: C29_6  and  N31_10 
REMARK    4  A    between atoms: C18_19  and  C21_20 
REMARK    5  A    between atoms: C15_21  and  C12_23 
REMARK    6  A    between atoms: C2_30  and  C5_32 
ROOT
ATOM      1  C19 MOL d          41.359  31.799  31.888  0.00  0.00     0.033 A 
ATOM      2  C23 MOL d          40.206  32.187  31.192  0.00  0.00    -0.067 A 
ATOM      3  C20 MOL d          38.947  31.839  31.687  0.00  0.00    -0.075 A 
ATOM      4  C18 MOL d          38.822  31.110  32.871  0.00  0.00    -0.051 A 
ATOM      5  C15 MOL d          39.979  30.724  33.551  0.00  0.00    -0.019 A 
ATOM      6  C17 MOL d          41.232  31.055  33.073  0.00  0.00    -0.057 A 
ATOM      7  H14 MOL d          40.290  32.755  30.272  0.00  0.00     0.085 H 
ATOM      8  H15 MOL d          38.056  32.138  31.146  0.00  0.00     0.084 H 
ATOM      9  H19 MOL d          42.117  30.740  33.612  0.00  0.00     0.086 H 
ENDROOT
BRANCH   5  10
ATOM     10  C12 MOL d          39.858  29.960  34.803  0.00  0.00    -0.023 A 
ATOM     11  C9  MOL d          40.010  30.628  36.017  0.00  0.00    -0.071 A 
ATOM     12  C4  MOL d          39.873  29.918  37.212  0.00  0.00    -0.067 A 
ATOM     13  H20 MOL d          40.233  31.688  36.033  0.00  0.00     0.084 H 
ATOM     14  C1  MOL d          39.583  28.534  37.150  0.00  0.00     0.027 A 
ATOM     15  H21 MOL d          39.986  30.417  38.167  0.00  0.00     0.085 H 
ATOM     16  C3  MOL d          39.439  27.911  35.941  0.00  0.00     0.114 A 
ATOM     17  C2  MOL d          39.398  27.589  38.162  0.00  0.00     0.079 A 
ATOM     18  O8  MOL d          39.166  26.596  36.185  0.00  0.00    -0.212 OA
ATOM     19  C7  MOL d          39.564  28.597  34.765  0.00  0.00    -0.037 A 
ATOM     20  N6  MOL d          39.141  26.416  37.499  0.00  0.00    -0.131 NA
ATOM     21  H22 MOL d          39.436  28.089  33.816  0.00  0.00     0.089 H 
BRANCH  17  22
ATOM     22  C5  MOL d          39.480  27.800  39.658  0.00  0.00    -0.006 C 
ATOM     23  C10 MOL d          40.635  28.755  40.045  0.00  0.00    -0.034 C 
ATOM     24  C13 MOL d          40.480  29.181  41.504  0.00  0.00     0.082 C 
ATOM     25  H24 MOL d          40.607  29.644  39.399  0.00  0.00     0.036 H 
ATOM     26  H25 MOL d          41.597  28.238  39.914  0.00  0.00     0.036 H 
ATOM     27  N16 MOL d          40.475  28.039  42.432  0.00  0.00    -0.075 N 
ATOM     28  H26 MOL d          39.531  29.726  41.613  0.00  0.00     0.075 H 
ATOM     29  H27 MOL d          41.317  29.844  41.767  0.00  0.00     0.075 H 
ATOM     30  C14 MOL d          39.732  26.832  42.000  0.00  0.00     0.082 C 
ATOM     31  H28 MOL d          40.070  28.353  43.300  0.00  0.00     0.277 HD
ATOM     32  H29 MOL d          41.433  27.768  42.588  0.00  0.00     0.277 HD
ATOM     33  C11 MOL d          39.715  26.518  40.478  0.00  0.00    -0.034 C 
ATOM     34  H30 MOL d          38.687  26.953  42.325  0.00  0.00     0.075 H 
ATOM     35  H31 MOL d          40.178  25.967  42.513  0.00  0.00     0.075 H 
ATOM     36  H32 MOL d          40.682  26.078  40.191  0.00  0.00     0.036 H 
ATOM     37  H33 MOL d          38.909  25.801  40.266  0.00  0.00     0.036 H 
ATOM     38  H23 MOL d          38.525  28.246  39.976  0.00  0.00     0.050 H 
ENDBRANCH  17  22
ENDBRANCH   5  10
BRANCH   4  39
ATOM     39  C21 MOL d          37.434  30.749  33.392  0.00  0.00    -0.050 C 
ATOM     40  H16 MOL d          37.090  31.526  34.091  0.00  0.00     0.033 H 
ATOM     41  H17 MOL d          37.478  29.782  33.912  0.00  0.00     0.033 H 
ATOM     42  H18 MOL d          36.732  30.680  32.547  0.00  0.00     0.033 H 
ENDBRANCH   4  39
BRANCH   1  43
ATOM     43  C22 MOL d          42.738  32.088  31.426  0.00  0.00     0.256 C 
ATOM     44  O25 MOL d          43.260  33.141  31.782  0.00  0.00    -0.267 OA
ATOM     45  N24 MOL d          43.409  31.147  30.701  0.00  0.00    -0.323 N 
ATOM     46  H1  MOL d          42.920  30.303  30.481  0.00  0.00     0.169 HD
BRANCH  45  47
ATOM     47  C26 MOL d          44.726  31.265  30.240  0.00  0.00     0.037 A 
ATOM     48  C27 MOL d          45.475  32.479  30.220  0.00  0.00    -0.032 A 
ATOM     49  C29 MOL d          46.804  32.554  29.727  0.00  0.00     0.032 A 
ATOM     50  H2  MOL d          45.010  33.383  30.596  0.00  0.00     0.090 H 
ATOM     51  C32 MOL d          47.361  31.343  29.249  0.00  0.00    -0.057 A 
ATOM     52  C30 MOL d          46.640  30.143  29.272  0.00  0.00    -0.079 A 
ATOM     53  H3  MOL d          48.370  31.346  28.856  0.00  0.00     0.086 H 
ATOM     54  C28 MOL d          45.327  30.104  29.762  0.00  0.00    -0.057 A 
ATOM     55  H4  MOL d          47.103  29.233  28.905  0.00  0.00     0.083 H 
ATOM     56  H5  MOL d          44.780  29.169  29.769  0.00  0.00     0.086 H 
BRANCH  49  57
ATOM     57  N31 MOL d          47.511  33.774  29.655  0.00  0.00    -0.377 N 
ATOM     58  C33 MOL d          47.271  34.669  28.492  0.00  0.00     0.015 C 
ATOM     59  C35 MOL d          47.673  36.139  28.724  0.00  0.00     0.034 C 
ATOM     60  H6  MOL d          46.198  34.639  28.252  0.00  0.00     0.067 H 
ATOM     61  H7  MOL d          47.849  34.285  27.639  0.00  0.00     0.067 H 
ATOM     62  O37 MOL d          48.957  36.143  29.298  0.00  0.00    -0.388 OA
ATOM     63  H8  MOL d          46.956  36.622  29.404  0.00  0.00     0.076 H 
ATOM     64  H9  MOL d          47.688  36.680  27.766  0.00  0.00     0.076 H 
ATOM     65  C36 MOL d          48.958  35.641  30.622  0.00  0.00     0.034 C 
ATOM     66  C34 MOL d          48.577  34.143  30.641  0.00  0.00     0.015 C 
ATOM     67  H10 MOL d          48.229  36.206  31.222  0.00  0.00     0.076 H 
ATOM     68  H11 MOL d          49.962  35.764  31.054  0.00  0.00     0.076 H 
ATOM     69  H12 MOL d          49.478  33.554  30.413  0.00  0.00     0.067 H 
ATOM     70  H13 MOL d          48.219  33.890  31.649  0.00  0.00     0.067 H 
ENDBRANCH  49  57
ENDBRANCH  45  47
ENDBRANCH   1  43
TORSDOF 6
ENDMDL
