MODEL 1
REMARK VINA RESULT:     -11.2      0.000      0.000
REMARK  1 active torsions:
REMARK  status: ('A' for Active; 'I' for Inactive)
REMARK    1  A    between atoms: CAI_24  and  OAJ_25 
ROOT
ATOM      1  CAV SY9 d         -42.669   7.234 -16.961  0.00  0.00     0.118 C 
ATOM      2  CAU SY9 d         -41.766   6.863 -18.143  0.00  0.00    -0.030 C 
ATOM      3  CAT SY9 d         -40.568   6.066 -17.649  0.00  0.00    -0.021 C 
ATOM      4  CAN SY9 d         -41.066   4.739 -17.074  0.00  0.00    -0.001 C 
ATOM      5  CAK SY9 d         -42.032   4.932 -15.910  0.00  0.00     0.034 C 
ATOM      6  NAH SY9 d         -42.823   3.693 -15.860  0.00  0.00    -0.347 N 
ATOM      7  CAA SY9 d         -44.173   3.926 -16.107  0.00  0.00     0.040 A 
ATOM      8  CAF SY9 d         -45.202   3.001 -16.295  0.00  0.00    -0.057 A 
ATOM      9  CAE SY9 d         -46.480   3.425 -16.619  0.00  0.00    -0.081 A 
ATOM     10  CAD SY9 d         -46.712   4.784 -16.794  0.00  0.00    -0.082 A 
ATOM     11  CAC SY9 d         -45.680   5.707 -16.640  0.00  0.00    -0.074 A 
ATOM     12  CAB SY9 d         -44.394   5.282 -16.341  0.00  0.00    -0.019 A 
ATOM     13  CAG SY9 d         -43.086   6.046 -16.051  0.00  0.00     0.040 C 
ATOM     14  CAW SY9 d         -43.307   6.737 -14.707  0.00  0.00    -0.027 C 
ATOM     15  CAX SY9 d         -42.067   7.618 -14.657  0.00  0.00     0.085 C 
ATOM     16  NAY SY9 d         -41.947   8.168 -16.035  0.00  0.00    -0.062 N 
ATOM     17  CAS SY9 d         -40.503   8.295 -16.305  0.00  0.00     0.104 C 
ATOM     18  CAR SY9 d         -39.930   6.911 -16.586  0.00  0.00    -0.051 C 
ATOM     19  CAQ SY9 d         -38.859   6.553 -15.786  0.00  0.00    -0.076 C 
ATOM     20  CAP SY9 d         -38.250   5.307 -15.911  0.00  0.00     0.035 C 
ATOM     21  OAO SY9 d         -39.041   4.123 -15.647  0.00  0.00    -0.382 OA
ATOM     22  CAM SY9 d         -39.978   3.725 -16.644  0.00  0.00     0.049 C 
ATOM     23  CAL SY9 d         -40.596   2.496 -15.886  0.00  0.00     0.000 C 
ATOM     24  CAI SY9 d         -42.126   2.494 -15.931  0.00  0.00     0.105 C 
ATOM     25  H1  SY9 d         -43.571   7.718 -17.362  0.00  0.00     0.086 H 
ATOM     26  H2  SY9 d         -41.415   7.781 -18.637  0.00  0.00     0.037 H 
ATOM     27  H3  SY9 d         -42.335   6.256 -18.862  0.00  0.00     0.037 H 
ATOM     28  H4  SY9 d         -39.857   5.875 -18.466  0.00  0.00     0.048 H 
ATOM     29  H5  SY9 d         -41.632   4.259 -17.886  0.00  0.00     0.048 H 
ATOM     30  H6  SY9 d         -41.457   5.089 -14.985  0.00  0.00     0.075 H 
ATOM     31  H7  SY9 d         -44.999   1.942 -16.187  0.00  0.00     0.086 H 
ATOM     32  H8  SY9 d         -47.286   2.709 -16.733  0.00  0.00     0.083 H 
ATOM     33  H9  SY9 d         -47.706   5.129 -17.054  0.00  0.00     0.083 H 
ATOM     34  H10 SY9 d         -45.884   6.765 -16.755  0.00  0.00     0.084 H 
ATOM     35  H11 SY9 d         -43.329   6.016 -13.876  0.00  0.00     0.037 H 
ATOM     36  H12 SY9 d         -44.232   7.332 -14.700  0.00  0.00     0.037 H 
ATOM     37  H13 SY9 d         -41.177   7.025 -14.396  0.00  0.00     0.076 H 
ATOM     38  H14 SY9 d         -42.195   8.429 -13.925  0.00  0.00     0.076 H 
ATOM     39  H15 SY9 d         -42.376   9.078 -16.091  0.00  0.00     0.280 HD
ATOM     40  H16 SY9 d         -40.001   8.731 -15.428  0.00  0.00     0.083 H 
ATOM     41  H17 SY9 d         -40.346   8.944 -17.179  0.00  0.00     0.083 H 
ATOM     42  H18 SY9 d         -38.485   7.259 -15.045  0.00  0.00     0.080 H 
ATOM     43  H19 SY9 d         -37.398   5.291 -15.217  0.00  0.00     0.080 H 
ATOM     44  H20 SY9 d         -37.882   5.228 -16.945  0.00  0.00     0.080 H 
ATOM     45  H21 SY9 d         -39.446   3.408 -17.554  0.00  0.00     0.084 H 
ATOM     46  H22 SY9 d         -40.273   2.531 -14.835  0.00  0.00     0.043 H 
ATOM     47  H23 SY9 d         -40.227   1.571 -16.353  0.00  0.00     0.043 H 
ATOM     48  H24 SY9 d         -42.119   2.524 -17.031  0.00  0.00     0.117 H 
ENDROOT
BRANCH  24  49
ATOM     49  OAJ SY9 d         -42.830   1.328 -15.932  0.00  0.00    -0.377 OA
ATOM     50  H25 SY9 d         -43.756   1.518 -15.826  0.00  0.00     0.212 HD
ENDBRANCH  24  49
TORSDOF 1
ENDMDL
MODEL 2
REMARK VINA RESULT:     -10.7      1.298      4.827
REMARK  1 active torsions:
REMARK  status: ('A' for Active; 'I' for Inactive)
REMARK    1  A    between atoms: CAI_24  and  OAJ_25 
ROOT
ATOM      1  CAV SY9 d         -41.514   7.275 -16.015  0.00  0.00     0.118 C 
ATOM      2  CAU SY9 d         -42.357   7.147 -14.741  0.00  0.00    -0.030 C 
ATOM      3  CAT SY9 d         -43.497   6.166 -14.971  0.00  0.00    -0.021 C 
ATOM      4  CAN SY9 d         -42.906   4.777 -15.220  0.00  0.00    -0.001 C 
ATOM      5  CAK SY9 d         -41.986   4.743 -16.435  0.00  0.00     0.034 C 
ATOM      6  NAH SY9 d         -41.098   3.592 -16.210  0.00  0.00    -0.347 N 
ATOM      7  CAA SY9 d         -39.766   3.977 -16.086  0.00  0.00     0.040 A 
ATOM      8  CAF SY9 d         -38.661   3.206 -15.718  0.00  0.00    -0.057 A 
ATOM      9  CAE SY9 d         -37.415   3.791 -15.564  0.00  0.00    -0.081 A 
ATOM     10  CAD SY9 d         -37.290   5.163 -15.740  0.00  0.00    -0.082 A 
ATOM     11  CAC SY9 d         -38.397   5.940 -16.074  0.00  0.00    -0.074 A 
ATOM     12  CAB SY9 d         -39.650   5.362 -16.205  0.00  0.00    -0.019 A 
ATOM     13  CAG SY9 d         -41.022   5.931 -16.619  0.00  0.00     0.040 C 
ATOM     14  CAW SY9 d         -40.889   6.277 -18.101  0.00  0.00    -0.027 C 
ATOM     15  CAX SY9 d         -42.198   7.025 -18.315  0.00  0.00     0.085 C 
ATOM     16  NAY SY9 d         -42.330   7.892 -17.112  0.00  0.00    -0.062 N 
ATOM     17  CAS SY9 d         -43.774   7.976 -16.822  0.00  0.00     0.104 C 
ATOM     18  CAR SY9 d         -44.226   6.669 -16.182  0.00  0.00    -0.051 C 
ATOM     19  CAQ SY9 d         -45.282   6.045 -16.823  0.00  0.00    -0.076 C 
ATOM     20  CAP SY9 d         -45.784   4.829 -16.367  0.00  0.00     0.035 C 
ATOM     21  OAO SY9 d         -44.906   3.678 -16.363  0.00  0.00    -0.382 OA
ATOM     22  CAM SY9 d         -43.917   3.611 -15.339  0.00  0.00     0.049 C 
ATOM     23  CAL SY9 d         -43.219   2.281 -15.794  0.00  0.00     0.000 C 
ATOM     24  CAI SY9 d         -41.693   2.401 -15.814  0.00  0.00     0.105 C 
ATOM     25  H1  SY9 d         -40.645   7.908 -15.785  0.00  0.00     0.086 H 
ATOM     26  H2  SY9 d         -42.771   8.131 -14.476  0.00  0.00     0.037 H 
ATOM     27  H3  SY9 d         -41.724   6.783 -13.918  0.00  0.00     0.037 H 
ATOM     28  H4  SY9 d         -44.172   6.134 -14.103  0.00  0.00     0.048 H 
ATOM     29  H5  SY9 d         -42.285   4.559 -14.338  0.00  0.00     0.048 H 
ATOM     30  H6  SY9 d         -42.593   4.621 -17.345  0.00  0.00     0.075 H 
ATOM     31  H7  SY9 d         -38.780   2.142 -15.551  0.00  0.00     0.086 H 
ATOM     32  H8  SY9 d         -36.551   3.187 -15.309  0.00  0.00     0.083 H 
ATOM     33  H9  SY9 d         -36.322   5.634 -15.616  0.00  0.00     0.083 H 
ATOM     34  H10 SY9 d         -38.277   7.006 -16.234  0.00  0.00     0.084 H 
ATOM     35  H11 SY9 d         -40.828   5.375 -18.727  0.00  0.00     0.037 H 
ATOM     36  H12 SY9 d         -40.016   6.918 -18.294  0.00  0.00     0.037 H 
ATOM     37  H13 SY9 d         -43.042   6.322 -18.383  0.00  0.00     0.076 H 
ATOM     38  H14 SY9 d         -42.153   7.634 -19.230  0.00  0.00     0.076 H 
ATOM     39  H15 SY9 d         -41.975   8.816 -17.302  0.00  0.00     0.280 HD
ATOM     40  H16 SY9 d         -44.329   8.141 -17.757  0.00  0.00     0.083 H 
ATOM     41  H17 SY9 d         -43.963   8.810 -16.130  0.00  0.00     0.083 H 
ATOM     42  H18 SY9 d         -45.728   6.514 -17.699  0.00  0.00     0.080 H 
ATOM     43  H19 SY9 d         -46.648   4.577 -16.999  0.00  0.00     0.080 H 
ATOM     44  H20 SY9 d         -46.121   4.985 -15.332  0.00  0.00     0.080 H 
ATOM     45  H21 SY9 d         -44.401   3.494 -14.357  0.00  0.00     0.084 H 
ATOM     46  H22 SY9 d         -43.567   2.028 -16.806  0.00  0.00     0.043 H 
ATOM     47  H23 SY9 d         -43.501   1.477 -15.097  0.00  0.00     0.043 H 
ATOM     48  H24 SY9 d         -41.678   2.705 -14.757  0.00  0.00     0.117 H 
ENDROOT
BRANCH  24  49
ATOM     49  OAJ SY9 d         -40.897   1.328 -15.555  0.00  0.00    -0.377 OA
ATOM     50  H25 SY9 d         -40.850   1.188 -14.616  0.00  0.00     0.212 HD
ENDBRANCH  24  49
TORSDOF 1
ENDMDL
MODEL 3
REMARK VINA RESULT:      -8.4      2.265      4.397
REMARK  1 active torsions:
REMARK  status: ('A' for Active; 'I' for Inactive)
REMARK    1  A    between atoms: CAI_24  and  OAJ_25 
ROOT
ATOM      1  CAV SY9 d         -41.344   6.369 -15.914  0.00  0.00     0.118 C 
ATOM      2  CAU SY9 d         -42.051   7.235 -14.865  0.00  0.00    -0.030 C 
ATOM      3  CAT SY9 d         -43.282   7.887 -15.477  0.00  0.00    -0.021 C 
ATOM      4  CAN SY9 d         -44.281   6.790 -15.852  0.00  0.00    -0.001 C 
ATOM      5  CAK SY9 d         -43.709   5.798 -16.858  0.00  0.00     0.034 C 
ATOM      6  NAH SY9 d         -44.500   4.571 -16.677  0.00  0.00    -0.347 N 
ATOM      7  CAA SY9 d         -43.718   3.506 -16.238  0.00  0.00     0.040 A 
ATOM      8  CAF SY9 d         -44.123   2.240 -15.811  0.00  0.00    -0.057 A 
ATOM      9  CAE SY9 d         -43.197   1.332 -15.323  0.00  0.00    -0.081 A 
ATOM     10  CAD SY9 d         -41.866   1.717 -15.226  0.00  0.00    -0.082 A 
ATOM     11  CAC SY9 d         -41.464   2.992 -15.620  0.00  0.00    -0.074 A 
ATOM     12  CAB SY9 d         -42.393   3.911 -16.085  0.00  0.00    -0.019 A 
ATOM     13  CAG SY9 d         -42.253   5.342 -16.643  0.00  0.00     0.040 C 
ATOM     14  CAW SY9 d         -41.545   5.187 -17.988  0.00  0.00    -0.027 C 
ATOM     15  CAX SY9 d         -41.268   6.650 -18.309  0.00  0.00     0.085 C 
ATOM     16  NAY SY9 d         -40.808   7.231 -17.018  0.00  0.00    -0.062 N 
ATOM     17  CAS SY9 d         -41.299   8.622 -16.995  0.00  0.00     0.104 C 
ATOM     18  CAR SY9 d         -42.793   8.613 -16.695  0.00  0.00    -0.051 C 
ATOM     19  CAQ SY9 d         -43.575   9.278 -17.623  0.00  0.00    -0.076 C 
ATOM     20  CAP SY9 d         -44.960   9.329 -17.493  0.00  0.00     0.035 C 
ATOM     21  OAO SY9 d         -45.703   8.087 -17.528  0.00  0.00    -0.382 OA
ATOM     22  CAM SY9 d         -45.662   7.265 -16.364  0.00  0.00     0.049 C 
ATOM     23  CAL SY9 d         -46.522   6.070 -16.908  0.00  0.00     0.000 C 
ATOM     24  CAI SY9 d         -45.880   4.711 -16.618  0.00  0.00     0.105 C 
ATOM     25  H1  SY9 d         -40.522   5.835 -15.416  0.00  0.00     0.086 H 
ATOM     26  H2  SY9 d         -41.361   8.017 -14.512  0.00  0.00     0.037 H 
ATOM     27  H3  SY9 d         -42.355   6.606 -14.016  0.00  0.00     0.037 H 
ATOM     28  H4  SY9 d         -43.747   8.590 -14.771  0.00  0.00     0.048 H 
ATOM     29  H5  SY9 d         -44.471   6.234 -14.922  0.00  0.00     0.048 H 
ATOM     30  H6  SY9 d         -43.816   6.210 -17.873  0.00  0.00     0.075 H 
ATOM     31  H7  SY9 d         -45.170   1.965 -15.861  0.00  0.00     0.086 H 
ATOM     32  H8  SY9 d         -43.506   0.338 -15.021  0.00  0.00     0.083 H 
ATOM     33  H9  SY9 d         -41.132   1.019 -14.840  0.00  0.00     0.083 H 
ATOM     34  H10 SY9 d         -40.417   3.267 -15.563  0.00  0.00     0.084 H 
ATOM     35  H11 SY9 d         -42.196   4.721 -18.741  0.00  0.00     0.037 H 
ATOM     36  H12 SY9 d         -40.616   4.606 -17.896  0.00  0.00     0.037 H 
ATOM     37  H13 SY9 d         -42.182   7.152 -18.659  0.00  0.00     0.076 H 
ATOM     38  H14 SY9 d         -40.485   6.738 -19.076  0.00  0.00     0.076 H 
ATOM     39  H15 SY9 d         -39.801   7.234 -16.971  0.00  0.00     0.280 HD
ATOM     40  H16 SY9 d         -41.122   9.092 -17.974  0.00  0.00     0.083 H 
ATOM     41  H17 SY9 d         -40.769   9.188 -16.215  0.00  0.00     0.083 H 
ATOM     42  H18 SY9 d         -43.098   9.769 -18.471  0.00  0.00     0.080 H 
ATOM     43  H19 SY9 d         -45.340   9.958 -18.311  0.00  0.00     0.080 H 
ATOM     44  H20 SY9 d         -45.178   9.812 -16.529  0.00  0.00     0.080 H 
ATOM     45  H21 SY9 d         -46.166   7.774 -15.528  0.00  0.00     0.084 H 
ATOM     46  H22 SY9 d         -46.636   6.183 -17.996  0.00  0.00     0.043 H 
ATOM     47  H23 SY9 d         -47.513   6.102 -16.431  0.00  0.00     0.043 H 
ATOM     48  H24 SY9 d         -45.847   4.928 -15.541  0.00  0.00     0.117 H 
ENDROOT
BRANCH  24  49
ATOM     49  OAJ SY9 d         -46.641   3.602 -16.408  0.00  0.00    -0.377 OA
ATOM     50  H25 SY9 d         -46.142   2.967 -15.906  0.00  0.00     0.212 HD
ENDBRANCH  24  49
TORSDOF 1
ENDMDL
MODEL 4
REMARK VINA RESULT:      -8.2      2.276      3.985
REMARK  1 active torsions:
REMARK  status: ('A' for Active; 'I' for Inactive)
REMARK    1  A    between atoms: CAI_24  and  OAJ_25 
ROOT
ATOM      1  CAV SY9 d         -40.987   5.422 -15.135  0.00  0.00     0.118 C 
ATOM      2  CAU SY9 d         -41.446   6.577 -14.238  0.00  0.00    -0.030 C 
ATOM      3  CAT SY9 d         -41.954   7.727 -15.095  0.00  0.00    -0.021 C 
ATOM      4  CAN SY9 d         -43.203   7.264 -15.846  0.00  0.00    -0.001 C 
ATOM      5  CAK SY9 d         -42.929   6.070 -16.754  0.00  0.00     0.034 C 
ATOM      6  NAH SY9 d         -44.236   5.416 -16.931  0.00  0.00    -0.347 N 
ATOM      7  CAA SY9 d         -44.249   4.127 -16.407  0.00  0.00     0.040 A 
ATOM      8  CAF SY9 d         -45.330   3.258 -16.246  0.00  0.00    -0.057 A 
ATOM      9  CAE SY9 d         -45.163   2.034 -15.620  0.00  0.00    -0.081 A 
ATOM     10  CAD SY9 d         -43.911   1.702 -15.117  0.00  0.00    -0.082 A 
ATOM     11  CAC SY9 d         -42.837   2.581 -15.246  0.00  0.00    -0.074 A 
ATOM     12  CAB SY9 d         -43.009   3.818 -15.851  0.00  0.00    -0.019 A 
ATOM     13  CAG SY9 d         -42.025   4.955 -16.193  0.00  0.00     0.040 C 
ATOM     14  CAW SY9 d         -41.127   4.399 -17.297  0.00  0.00    -0.027 C 
ATOM     15  CAX SY9 d         -40.085   5.507 -17.371  0.00  0.00     0.085 C 
ATOM     16  NAY SY9 d         -39.800   5.842 -15.949  0.00  0.00    -0.062 N 
ATOM     17  CAS SY9 d         -39.522   7.291 -15.916  0.00  0.00     0.104 C 
ATOM     18  CAR SY9 d         -40.838   8.048 -16.044  0.00  0.00    -0.051 C 
ATOM     19  CAQ SY9 d         -40.879   8.968 -17.078  0.00  0.00    -0.076 C 
ATOM     20  CAP SY9 d         -42.026   9.715 -17.332  0.00  0.00     0.035 C 
ATOM     21  OAO SY9 d         -43.237   9.014 -17.704  0.00  0.00    -0.382 OA
ATOM     22  CAM SY9 d         -43.950   8.342 -16.668  0.00  0.00     0.049 C 
ATOM     23  CAL SY9 d         -45.085   7.715 -17.553  0.00  0.00     0.000 C 
ATOM     24  CAI SY9 d         -45.314   6.234 -17.243  0.00  0.00     0.105 C 
ATOM     25  H1  SY9 d         -40.723   4.573 -14.488  0.00  0.00     0.086 H 
ATOM     26  H2  SY9 d         -40.599   6.924 -13.627  0.00  0.00     0.037 H 
ATOM     27  H3  SY9 d         -42.254   6.229 -13.578  0.00  0.00     0.037 H 
ATOM     28  H4  SY9 d         -42.195   8.604 -14.475  0.00  0.00     0.048 H 
ATOM     29  H5  SY9 d         -43.906   6.926 -15.070  0.00  0.00     0.048 H 
ATOM     30  H6  SY9 d         -42.517   6.428 -17.709  0.00  0.00     0.075 H 
ATOM     31  H7  SY9 d         -46.309   3.543 -16.614  0.00  0.00     0.086 H 
ATOM     32  H8  SY9 d         -45.995   1.346 -15.523  0.00  0.00     0.083 H 
ATOM     33  H9  SY9 d         -43.767   0.751 -14.619  0.00  0.00     0.083 H 
ATOM     34  H10 SY9 d         -41.861   2.296 -14.872  0.00  0.00     0.084 H 
ATOM     35  H11 SY9 d         -41.670   4.286 -18.246  0.00  0.00     0.037 H 
ATOM     36  H12 SY9 d         -40.680   3.435 -17.012  0.00  0.00     0.037 H 
ATOM     37  H13 SY9 d         -40.484   6.382 -17.905  0.00  0.00     0.076 H 
ATOM     38  H14 SY9 d         -39.175   5.151 -17.877  0.00  0.00     0.076 H 
ATOM     39  H15 SY9 d         -38.987   5.342 -15.624  0.00  0.00     0.280 HD
ATOM     40  H16 SY9 d         -38.859   7.559 -16.751  0.00  0.00     0.083 H 
ATOM     41  H17 SY9 d         -39.038   7.552 -14.963  0.00  0.00     0.083 H 
ATOM     42  H18 SY9 d         -39.998   9.110 -17.702  0.00  0.00     0.080 H 
ATOM     43  H19 SY9 d         -41.787  10.407 -18.152  0.00  0.00     0.080 H 
ATOM     44  H20 SY9 d         -42.249  10.289 -16.421  0.00  0.00     0.080 H 
ATOM     45  H21 SY9 d         -44.357   9.076 -15.956  0.00  0.00     0.084 H 
ATOM     46  H22 SY9 d         -44.803   7.815 -18.612  0.00  0.00     0.043 H 
ATOM     47  H23 SY9 d         -46.020   8.263 -17.370  0.00  0.00     0.043 H 
ATOM     48  H24 SY9 d         -45.495   6.458 -16.182  0.00  0.00     0.117 H 
ENDROOT
BRANCH  24  49
ATOM     49  OAJ SY9 d         -46.546   5.668 -17.371  0.00  0.00    -0.377 OA
ATOM     50  H25 SY9 d         -47.192   6.216 -16.940  0.00  0.00     0.212 HD
ENDBRANCH  24  49
TORSDOF 1
ENDMDL
