MODEL 1
REMARK VINA RESULT:      -6.3      0.000      0.000
REMARK  6 active torsions:
REMARK  status: ('A' for Active; 'I' for Inactive)
REMARK    1  A    between atoms: CA_1  and  C_2 
REMARK    2  A    between atoms: C6_6  and  CA_1 
REMARK    3  A    between atoms: CA_1  and  N_8 
REMARK    4  A    between atoms: C7_7  and  C3_3 
REMARK    5  A    between atoms: C4_4  and  N4_11 
REMARK    6  A    between atoms: C6_6  and  C7_7 
ROOT
ATOM      1  C7  Z70 d         -20.563  13.927  -4.940  0.00  0.00    -0.023 C 
ATOM      2  H5  Z70 d         -20.780  13.914  -3.861  0.00  0.00     0.042 H 
ATOM      3  H6  Z70 d         -21.410  14.379  -5.478  0.00  0.00     0.042 H 
ENDROOT
BRANCH   1   4
ATOM      4  C3  Z70 d         -20.400  12.488  -5.416  0.00  0.00     0.029 A 
ATOM      5  C5  Z70 d         -19.300  12.134  -6.334  0.00  0.00     0.028 A 
ATOM      6  N3  Z70 d         -19.485  10.770  -6.547  0.00  0.00    -0.226 NA
ATOM      7  H2  Z70 d         -18.529  12.783  -6.746  0.00  0.00     0.117 H 
ATOM      8  C4  Z70 d         -20.603  10.364  -5.811  0.00  0.00     0.199 A 
ATOM      9  N2  Z70 d         -21.167  11.381  -5.125  0.00  0.00    -0.329 N 
ATOM     10  H10 Z70 d         -21.995  11.338  -4.513  0.00  0.00     0.169 HD
BRANCH   8  11
ATOM     11  N4  Z70 d         -21.084   9.067  -5.790  0.00  0.00    -0.369 N 
ATOM     12  H11 Z70 d         -20.559   8.331  -5.296  0.00  0.00     0.159 HD
ATOM     13  H12 Z70 d         -21.966   8.836  -6.269  0.00  0.00     0.159 HD
ENDBRANCH   8  11
ENDBRANCH   1   4
BRANCH   1  14
ATOM     14  C6  Z70 d         -19.326  14.792  -5.174  0.00  0.00    -0.024 C 
ATOM     15  H3  Z70 d         -18.480  14.335  -4.639  0.00  0.00     0.037 H 
ATOM     16  H4  Z70 d         -19.114  14.803  -6.253  0.00  0.00     0.037 H 
BRANCH  14  17
ATOM     17  CA  Z70 d         -19.469  16.257  -4.691  0.00  0.00     0.182 C 
ATOM     18  H1  Z70 d         -18.603  16.832  -5.050  0.00  0.00     0.101 H 
BRANCH  17  19
ATOM     19  C   Z70 d         -20.755  16.978  -5.157  0.00  0.00     0.204 C 
ATOM     20  OXT Z70 d         -20.785  17.627  -6.274  0.00  0.00    -0.646 OA
ATOM     21  O   Z70 d         -21.811  16.945  -4.430  0.00  0.00    -0.646 OA
ENDBRANCH  17  19
BRANCH  17  22
ATOM     22  N   Z70 d         -19.466  16.208  -3.269  0.00  0.00    -0.065 N 
ATOM     23  H7  Z70 d         -19.734  17.108  -2.901  0.00  0.00     0.275 HD
ATOM     24  H8  Z70 d         -18.542  15.972  -2.943  0.00  0.00     0.275 HD
ATOM     25  H9  Z70 d         -20.121  15.508  -2.956  0.00  0.00     0.275 HD
ENDBRANCH  17  22
ENDBRANCH  14  17
ENDBRANCH   1  14
TORSDOF 6
ENDMDL
MODEL 2
REMARK VINA RESULT:      -5.4      3.488      5.809
REMARK  6 active torsions:
REMARK  status: ('A' for Active; 'I' for Inactive)
REMARK    1  A    between atoms: CA_1  and  C_2 
REMARK    2  A    between atoms: C6_6  and  CA_1 
REMARK    3  A    between atoms: CA_1  and  N_8 
REMARK    4  A    between atoms: C7_7  and  C3_3 
REMARK    5  A    between atoms: C4_4  and  N4_11 
REMARK    6  A    between atoms: C6_6  and  C7_7 
ROOT
ATOM      1  C7  Z70 d         -19.463  14.083  -6.853  0.00  0.00    -0.023 C 
ATOM      2  H5  Z70 d         -18.475  14.399  -7.219  0.00  0.00     0.042 H 
ATOM      3  H6  Z70 d         -20.106  13.826  -7.708  0.00  0.00     0.042 H 
ENDROOT
BRANCH   1   4
ATOM      4  C3  Z70 d         -20.098  15.250  -6.104  0.00  0.00     0.029 A 
ATOM      5  C5  Z70 d         -20.012  15.318  -4.633  0.00  0.00     0.028 A 
ATOM      6  N3  Z70 d         -20.702  16.487  -4.324  0.00  0.00    -0.226 NA
ATOM      7  H2  Z70 d         -19.526  14.620  -3.952  0.00  0.00     0.117 H 
ATOM      8  C4  Z70 d         -21.152  17.053  -5.521  0.00  0.00     0.199 A 
ATOM      9  N2  Z70 d         -20.800  16.326  -6.602  0.00  0.00    -0.329 N 
ATOM     10  H10 Z70 d         -21.010  16.532  -7.589  0.00  0.00     0.169 HD
BRANCH   8  11
ATOM     11  N4  Z70 d         -21.882  18.227  -5.592  0.00  0.00    -0.369 N 
ATOM     12  H11 Z70 d         -22.550  18.464  -4.846  0.00  0.00     0.159 HD
ATOM     13  H12 Z70 d         -21.757  18.863  -6.392  0.00  0.00     0.159 HD
ENDBRANCH   8  11
ENDBRANCH   1   4
BRANCH   1  14
ATOM     14  C6  Z70 d         -19.282  12.832  -5.994  0.00  0.00    -0.024 C 
ATOM     15  H3  Z70 d         -18.339  12.348  -6.285  0.00  0.00     0.037 H 
ATOM     16  H4  Z70 d         -19.224  13.144  -4.940  0.00  0.00     0.037 H 
BRANCH  14  17
ATOM     17  CA  Z70 d         -20.423  11.793  -6.130  0.00  0.00     0.182 C 
ATOM     18  H1  Z70 d         -20.828  11.846  -7.151  0.00  0.00     0.101 H 
BRANCH  17  19
ATOM     19  C   Z70 d         -20.014  10.329  -5.846  0.00  0.00     0.204 C 
ATOM     20  OXT Z70 d         -19.640   9.547  -6.805  0.00  0.00    -0.646 OA
ATOM     21  O   Z70 d         -20.049   9.871  -4.649  0.00  0.00    -0.646 OA
ENDBRANCH  17  19
BRANCH  17  22
ATOM     22  N   Z70 d         -21.421  12.175  -5.190  0.00  0.00    -0.065 N 
ATOM     23  H7  Z70 d         -20.990  12.675  -4.427  0.00  0.00     0.275 HD
ATOM     24  H8  Z70 d         -21.882  11.351  -4.836  0.00  0.00     0.275 HD
ATOM     25  H9  Z70 d         -22.097  12.770  -5.642  0.00  0.00     0.275 HD
ENDBRANCH  17  22
ENDBRANCH  14  17
ENDBRANCH   1  14
TORSDOF 6
ENDMDL
MODEL 3
REMARK VINA RESULT:      -5.3      1.714      2.345
REMARK  6 active torsions:
REMARK  status: ('A' for Active; 'I' for Inactive)
REMARK    1  A    between atoms: CA_1  and  C_2 
REMARK    2  A    between atoms: C6_6  and  CA_1 
REMARK    3  A    between atoms: CA_1  and  N_8 
REMARK    4  A    between atoms: C7_7  and  C3_3 
REMARK    5  A    between atoms: C4_4  and  N4_11 
REMARK    6  A    between atoms: C6_6  and  C7_7 
ROOT
ATOM      1  C7  Z70 d         -18.494  15.669  -6.909  0.00  0.00    -0.023 C 
ATOM      2  H5  Z70 d         -17.877  15.508  -7.805  0.00  0.00     0.042 H 
ATOM      3  H6  Z70 d         -17.856  16.014  -6.081  0.00  0.00     0.042 H 
ENDROOT
BRANCH   1   4
ATOM      4  C3  Z70 d         -19.123  14.338  -6.510  0.00  0.00     0.029 A 
ATOM      5  C5  Z70 d         -18.413  13.074  -6.785  0.00  0.00     0.028 A 
ATOM      6  N3  Z70 d         -19.287  12.102  -6.302  0.00  0.00    -0.226 NA
ATOM      7  H2  Z70 d         -17.440  12.933  -7.254  0.00  0.00     0.117 H 
ATOM      8  C4  Z70 d         -20.414  12.751  -5.788  0.00  0.00     0.199 A 
ATOM      9  N2  Z70 d         -20.335  14.094  -5.902  0.00  0.00    -0.329 N 
ATOM     10  H10 Z70 d         -21.033  14.789  -5.600  0.00  0.00     0.169 HD
BRANCH   8  11
ATOM     11  N4  Z70 d         -21.493  12.093  -5.226  0.00  0.00    -0.369 N 
ATOM     12  H11 Z70 d         -21.363  11.511  -4.386  0.00  0.00     0.159 HD
ATOM     13  H12 Z70 d         -22.429  12.184  -5.648  0.00  0.00     0.159 HD
ENDBRANCH   8  11
ENDBRANCH   1   4
BRANCH   1  14
ATOM     14  C6  Z70 d         -19.518  16.760  -7.216  0.00  0.00    -0.024 C 
ATOM     15  H3  Z70 d         -19.174  17.316  -8.101  0.00  0.00     0.037 H 
ATOM     16  H4  Z70 d         -20.480  16.276  -7.439  0.00  0.00     0.037 H 
BRANCH  14  17
ATOM     17  CA  Z70 d         -19.739  17.772  -6.064  0.00  0.00     0.182 C 
ATOM     18  H1  Z70 d         -19.598  18.790  -6.457  0.00  0.00     0.101 H 
BRANCH  17  19
ATOM     19  C   Z70 d         -21.127  17.702  -5.387  0.00  0.00     0.204 C 
ATOM     20  OXT Z70 d         -21.549  16.605  -4.850  0.00  0.00    -0.646 OA
ATOM     21  O   Z70 d         -21.882  18.738  -5.358  0.00  0.00    -0.646 OA
ENDBRANCH  17  19
BRANCH  17  22
ATOM     22  N   Z70 d         -18.743  17.485  -5.089  0.00  0.00    -0.065 N 
ATOM     23  H7  Z70 d         -18.975  17.951  -4.225  0.00  0.00     0.275 HD
ATOM     24  H8  Z70 d         -17.847  17.812  -5.417  0.00  0.00     0.275 HD
ATOM     25  H9  Z70 d         -18.701  16.490  -4.934  0.00  0.00     0.275 HD
ENDBRANCH  17  22
ENDBRANCH  14  17
ENDBRANCH   1  14
TORSDOF 6
ENDMDL
MODEL 4
REMARK VINA RESULT:      -4.6      2.728      5.589
REMARK  6 active torsions:
REMARK  status: ('A' for Active; 'I' for Inactive)
REMARK    1  A    between atoms: CA_1  and  C_2 
REMARK    2  A    between atoms: C6_6  and  CA_1 
REMARK    3  A    between atoms: CA_1  and  N_8 
REMARK    4  A    between atoms: C7_7  and  C3_3 
REMARK    5  A    between atoms: C4_4  and  N4_11 
REMARK    6  A    between atoms: C6_6  and  C7_7 
ROOT
ATOM      1  C7  Z70 d         -18.347  15.414  -7.068  0.00  0.00    -0.023 C 
ATOM      2  H5  Z70 d         -17.630  15.181  -6.267  0.00  0.00     0.042 H 
ATOM      3  H6  Z70 d         -17.799  15.661  -7.990  0.00  0.00     0.042 H 
ENDROOT
BRANCH   1   4
ATOM      4  C3  Z70 d         -19.159  16.635  -6.649  0.00  0.00     0.029 A 
ATOM      5  C5  Z70 d         -18.551  17.979  -6.695  0.00  0.00     0.028 A 
ATOM      6  N3  Z70 d         -19.571  18.810  -6.238  0.00  0.00    -0.226 NA
ATOM      7  H2  Z70 d         -17.546  18.255  -7.010  0.00  0.00     0.117 H 
ATOM      8  C4  Z70 d         -20.683  18.012  -5.950  0.00  0.00     0.199 A 
ATOM      9  N2  Z70 d         -20.457  16.703  -6.190  0.00  0.00    -0.329 N 
ATOM     10  H10 Z70 d         -21.114  15.921  -6.058  0.00  0.00     0.169 HD
BRANCH   8  11
ATOM     11  N4  Z70 d         -21.882  18.505  -5.467  0.00  0.00    -0.369 N 
ATOM     12  H11 Z70 d         -22.651  17.859  -5.239  0.00  0.00     0.159 HD
ATOM     13  H12 Z70 d         -22.006  19.520  -5.336  0.00  0.00     0.159 HD
ENDBRANCH   8  11
ENDBRANCH   1   4
BRANCH   1  14
ATOM     14  C6  Z70 d         -19.199  14.174  -7.329  0.00  0.00    -0.024 C 
ATOM     15  H3  Z70 d         -20.233  14.499  -7.514  0.00  0.00     0.037 H 
ATOM     16  H4  Z70 d         -18.807  13.670  -8.226  0.00  0.00     0.037 H 
BRANCH  14  17
ATOM     17  CA  Z70 d         -19.213  13.151  -6.165  0.00  0.00     0.182 C 
ATOM     18  H1  Z70 d         -18.246  13.199  -5.643  0.00  0.00     0.101 H 
BRANCH  17  19
ATOM     19  C   Z70 d         -20.336  13.359  -5.124  0.00  0.00     0.204 C 
ATOM     20  OXT Z70 d         -20.264  14.309  -4.250  0.00  0.00    -0.646 OA
ATOM     21  O   Z70 d         -21.355  12.581  -5.111  0.00  0.00    -0.646 OA
ENDBRANCH  17  19
BRANCH  17  22
ATOM     22  N   Z70 d         -19.381  11.872  -6.764  0.00  0.00    -0.065 N 
ATOM     23  H7  Z70 d         -18.914  11.175  -6.205  0.00  0.00     0.275 HD
ATOM     24  H8  Z70 d         -18.984  11.880  -7.691  0.00  0.00     0.275 HD
ATOM     25  H9  Z70 d         -20.364  11.654  -6.821  0.00  0.00     0.275 HD
ENDBRANCH  17  22
ENDBRANCH  14  17
ENDBRANCH   1  14
TORSDOF 6
ENDMDL
MODEL 5
REMARK VINA RESULT:      -3.7      2.528      5.235
REMARK  6 active torsions:
REMARK  status: ('A' for Active; 'I' for Inactive)
REMARK    1  A    between atoms: CA_1  and  C_2 
REMARK    2  A    between atoms: C6_6  and  CA_1 
REMARK    3  A    between atoms: CA_1  and  N_8 
REMARK    4  A    between atoms: C7_7  and  C3_3 
REMARK    5  A    between atoms: C4_4  and  N4_11 
REMARK    6  A    between atoms: C6_6  and  C7_7 
ROOT
ATOM      1  C7  Z70 d         -18.815  14.110  -7.315  0.00  0.00    -0.023 C 
ATOM      2  H5  Z70 d         -17.875  13.776  -6.852  0.00  0.00     0.042 H 
ATOM      3  H6  Z70 d         -18.745  14.001  -8.408  0.00  0.00     0.042 H 
ENDROOT
BRANCH   1   4
ATOM      4  C3  Z70 d         -19.017  15.586  -6.989  0.00  0.00     0.029 A 
ATOM      5  C5  Z70 d         -20.292  16.249  -7.324  0.00  0.00     0.028 A 
ATOM      6  N3  Z70 d         -20.095  17.560  -6.896  0.00  0.00    -0.226 NA
ATOM      7  H2  Z70 d         -21.174  15.818  -7.794  0.00  0.00     0.117 H 
ATOM      8  C4  Z70 d         -18.809  17.650  -6.355  0.00  0.00     0.199 A 
ATOM      9  N2  Z70 d         -18.144  16.475  -6.400  0.00  0.00    -0.329 N 
ATOM     10  H10 Z70 d         -17.189  16.285  -6.066  0.00  0.00     0.169 HD
BRANCH   8  11
ATOM     11  N4  Z70 d         -18.271  18.813  -5.834  0.00  0.00    -0.369 N 
ATOM     12  H11 Z70 d         -18.764  19.317  -5.083  0.00  0.00     0.159 HD
ATOM     13  H12 Z70 d         -17.378  19.176  -6.197  0.00  0.00     0.159 HD
ENDBRANCH   8  11
ENDBRANCH   1   4
BRANCH   1  14
ATOM     14  C6  Z70 d         -19.946  13.213  -6.813  0.00  0.00    -0.024 C 
ATOM     15  H3  Z70 d         -20.903  13.677  -7.092  0.00  0.00     0.037 H 
ATOM     16  H4  Z70 d         -19.854  12.235  -7.307  0.00  0.00     0.037 H 
BRANCH  14  17
ATOM     17  CA  Z70 d         -19.947  12.985  -5.280  0.00  0.00     0.182 C 
ATOM     18  H1  Z70 d         -19.032  12.440  -5.004  0.00  0.00     0.101 H 
BRANCH  17  19
ATOM     19  C   Z70 d         -20.022  14.271  -4.426  0.00  0.00     0.204 C 
ATOM     20  OXT Z70 d         -21.134  14.916  -4.293  0.00  0.00    -0.646 OA
ATOM     21  O   Z70 d         -18.971  14.718  -3.841  0.00  0.00    -0.646 OA
ENDBRANCH  17  19
BRANCH  17  22
ATOM     22  N   Z70 d         -21.091  12.187  -5.000  0.00  0.00    -0.065 N 
ATOM     23  H7  Z70 d         -20.878  11.544  -4.253  0.00  0.00     0.275 HD
ATOM     24  H8  Z70 d         -21.350  11.669  -5.826  0.00  0.00     0.275 HD
ATOM     25  H9  Z70 d         -21.856  12.782  -4.723  0.00  0.00     0.275 HD
ENDBRANCH  17  22
ENDBRANCH  14  17
ENDBRANCH   1  14
TORSDOF 6
ENDMDL
MODEL 6
REMARK VINA RESULT:      -3.4      1.637      2.064
REMARK  6 active torsions:
REMARK  status: ('A' for Active; 'I' for Inactive)
REMARK    1  A    between atoms: CA_1  and  C_2 
REMARK    2  A    between atoms: C6_6  and  CA_1 
REMARK    3  A    between atoms: CA_1  and  N_8 
REMARK    4  A    between atoms: C7_7  and  C3_3 
REMARK    5  A    between atoms: C4_4  and  N4_11 
REMARK    6  A    between atoms: C6_6  and  C7_7 
ROOT
ATOM      1  C7  Z70 d         -20.134  13.573  -5.057  0.00  0.00    -0.023 C 
ATOM      2  H5  Z70 d         -19.939  13.585  -3.974  0.00  0.00     0.042 H 
ATOM      3  H6  Z70 d         -21.083  14.090  -5.265  0.00  0.00     0.042 H 
ENDROOT
BRANCH   1   4
ATOM      4  C3  Z70 d         -20.265  12.122  -5.508  0.00  0.00     0.029 A 
ATOM      5  C5  Z70 d         -21.473  11.348  -5.163  0.00  0.00     0.028 A 
ATOM      6  N3  Z70 d         -21.224  10.097  -5.723  0.00  0.00    -0.226 NA
ATOM      7  H2  Z70 d         -22.348  11.675  -4.604  0.00  0.00     0.117 H 
ATOM      8  C4  Z70 d         -19.971  10.142  -6.344  0.00  0.00     0.199 A 
ATOM      9  N2  Z70 d         -19.379  11.349  -6.227  0.00  0.00    -0.329 N 
ATOM     10  H10 Z70 d         -18.460  11.633  -6.596  0.00  0.00     0.169 HD
BRANCH   8  11
ATOM     11  N4  Z70 d         -19.398   9.069  -7.002  0.00  0.00    -0.369 N 
ATOM     12  H11 Z70 d         -18.382   8.909  -6.940  0.00  0.00     0.159 HD
ATOM     13  H12 Z70 d         -19.986   8.428  -7.554  0.00  0.00     0.159 HD
ENDBRANCH   8  11
ENDBRANCH   1   4
BRANCH   1  14
ATOM     14  C6  Z70 d         -19.008  14.331  -5.758  0.00  0.00    -0.024 C 
ATOM     15  H3  Z70 d         -18.443  14.890  -4.998  0.00  0.00     0.037 H 
ATOM     16  H4  Z70 d         -18.346  13.596  -6.239  0.00  0.00     0.037 H 
BRANCH  14  17
ATOM     17  CA  Z70 d         -19.487  15.332  -6.839  0.00  0.00     0.182 C 
ATOM     18  H1  Z70 d         -19.734  14.772  -7.753  0.00  0.00     0.101 H 
BRANCH  17  19
ATOM     19  C   Z70 d         -20.717  16.182  -6.445  0.00  0.00     0.204 C 
ATOM     20  OXT Z70 d         -20.821  16.691  -5.262  0.00  0.00    -0.646 OA
ATOM     21  O   Z70 d         -21.658  16.385  -7.293  0.00  0.00    -0.646 OA
ENDBRANCH  17  19
BRANCH  17  22
ATOM     22  N   Z70 d         -18.392  16.206  -7.083  0.00  0.00    -0.065 N 
ATOM     23  H7  Z70 d         -17.528  15.731  -6.869  0.00  0.00     0.275 HD
ATOM     24  H8  Z70 d         -18.479  17.025  -6.502  0.00  0.00     0.275 HD
ATOM     25  H9  Z70 d         -18.392  16.482  -8.053  0.00  0.00     0.275 HD
ENDBRANCH  17  22
ENDBRANCH  14  17
ENDBRANCH   1  14
TORSDOF 6
ENDMDL
