MODEL 1
REMARK VINA RESULT:      -9.0      0.000      0.000
REMARK  2 active torsions:
REMARK  status: ('A' for Active; 'I' for Inactive)
REMARK    1  A    between atoms: C3_3  and  O3_20 
REMARK    2  A    between atoms: C5_5  and  O4_21 
ROOT
ATOM      1  C1  M1S d          55.471  75.853  -5.731  0.00  0.00     0.296 C 
ATOM      2  C2  M1S d          55.553  76.621  -4.444  0.00  0.00     0.081 A 
ATOM      3  C3  M1S d          54.657  77.687  -4.247  0.00  0.00     0.085 A 
ATOM      4  C4  M1S d          54.693  78.470  -3.102  0.00  0.00    -0.016 A 
ATOM      5  C5  M1S d          55.669  78.162  -2.151  0.00  0.00     0.090 A 
ATOM      6  C6  M1S d          56.522  77.114  -2.365  0.00  0.00     0.075 A 
ATOM      7  C7  M1S d          56.522  76.311  -3.495  0.00  0.00    -0.008 A 
ATOM      8  C8  M1S d          57.523  75.156  -3.633  0.00  0.00     0.017 C 
ATOM      9  C9  M1S d          58.802  75.495  -4.340  0.00  0.00     0.131 C 
ATOM     10  C10 M1S d          59.273  76.913  -4.503  0.00  0.00    -0.009 C 
ATOM     11  C11 M1S d          60.611  76.957  -5.250  0.00  0.00    -0.059 C 
ATOM     12  C12 M1S d          61.038  78.385  -5.553  0.00  0.00    -0.064 C 
ATOM     13  C13 M1S d          60.060  79.112  -6.474  0.00  0.00    -0.062 C 
ATOM     14  C14 M1S d          60.036  78.472  -7.861  0.00  0.00    -0.050 C 
ATOM     15  C15 M1S d          58.688  77.831  -8.109  0.00  0.00    -0.106 C 
ATOM     16  C16 M1S d          58.601  76.523  -8.338  0.00  0.00    -0.105 C 
ATOM     17  C17 M1S d          57.259  75.879  -8.603  0.00  0.00    -0.030 C 
ATOM     18  C18 M1S d          56.798  74.890  -7.537  0.00  0.00     0.032 C 
ATOM     19  O2  M1S d          54.450  75.560  -6.316  0.00  0.00    -0.259 OA
ATOM     20 CL1  M1S d          57.671  76.740  -1.072  0.00  0.00    -0.081 Cl
ATOM     21  O5  M1S d          59.465  74.533  -4.735  0.00  0.00    -0.298 OA
ATOM     22  O1  M1S d          56.750  75.589  -6.264  0.00  0.00    -0.317 OA
ATOM     23  H1  M1S d          53.995  79.285  -2.951  0.00  0.00     0.092 H 
ATOM     24  H2  M1S d          57.032  74.345  -4.190  0.00  0.00     0.051 H 
ATOM     25  H3  M1S d          57.778  74.804  -2.622  0.00  0.00     0.051 H 
ATOM     26  H4  M1S d          59.397  77.368  -3.510  0.00  0.00     0.044 H 
ATOM     27  H5  M1S d          58.522  77.479  -5.074  0.00  0.00     0.044 H 
ATOM     28  H6  M1S d          60.510  76.406  -6.197  0.00  0.00     0.033 H 
ATOM     29  H7  M1S d          61.382  76.479  -4.628  0.00  0.00     0.033 H 
ATOM     30  H8  M1S d          62.026  78.360  -6.037  0.00  0.00     0.033 H 
ATOM     31  H9  M1S d          61.108  78.940  -4.605  0.00  0.00     0.033 H 
ATOM     32  H10 M1S d          60.369  80.164  -6.569  0.00  0.00     0.033 H 
ATOM     33  H11 M1S d          59.051  79.064  -6.038  0.00  0.00     0.033 H 
ATOM     34  H12 M1S d          60.821  77.704  -7.922  0.00  0.00     0.038 H 
ATOM     35  H13 M1S d          60.219  79.245  -8.622  0.00  0.00     0.038 H 
ATOM     36  H14 M1S d          57.787  78.442  -8.101  0.00  0.00     0.076 H 
ATOM     37  H15 M1S d          59.502  75.912  -8.335  0.00  0.00     0.076 H 
ATOM     38  H16 M1S d          57.321  75.343  -9.561  0.00  0.00     0.042 H 
ATOM     39  H17 M1S d          56.506  76.678  -8.677  0.00  0.00     0.042 H 
ATOM     40  H18 M1S d          57.507  74.052  -7.475  0.00  0.00     0.075 H 
ATOM     41  H19 M1S d          55.798  74.508  -7.790  0.00  0.00     0.075 H 
ENDROOT
BRANCH   3  42
ATOM     42  O3  M1S d          53.680  77.959  -5.189  0.00  0.00    -0.360 OA
ATOM     43  H20 M1S d          53.668  78.892  -5.371  0.00  0.00     0.217 HD
ENDBRANCH   3  42
BRANCH   5  44
ATOM     44  O4  M1S d          55.788  78.930  -1.019  0.00  0.00    -0.359 OA
ATOM     45  H21 M1S d          56.706  79.016  -0.790  0.00  0.00     0.217 HD
ENDBRANCH   5  44
TORSDOF 2
ENDMDL
MODEL 2
REMARK VINA RESULT:      -6.9      2.495      5.255
REMARK  2 active torsions:
REMARK  status: ('A' for Active; 'I' for Inactive)
REMARK    1  A    between atoms: C3_3  and  O3_20 
REMARK    2  A    between atoms: C5_5  and  O4_21 
ROOT
ATOM      1  C1  M1S d          55.508  77.108  -5.517  0.00  0.00     0.296 C 
ATOM      2  C2  M1S d          56.175  76.305  -6.595  0.00  0.00     0.081 A 
ATOM      3  C3  M1S d          55.592  75.083  -6.971  0.00  0.00     0.085 A 
ATOM      4  C4  M1S d          56.167  74.264  -7.933  0.00  0.00    -0.016 A 
ATOM      5  C5  M1S d          57.363  74.700  -8.509  0.00  0.00     0.090 A 
ATOM      6  C6  M1S d          57.903  75.898  -8.130  0.00  0.00     0.075 A 
ATOM      7  C7  M1S d          57.364  76.743  -7.173  0.00  0.00    -0.008 A 
ATOM      8  C8  M1S d          58.051  78.071  -6.825  0.00  0.00     0.017 C 
ATOM      9  C9  M1S d          59.018  78.012  -5.678  0.00  0.00     0.131 C 
ATOM     10  C10 M1S d          59.611  76.718  -5.199  0.00  0.00    -0.009 C 
ATOM     11  C11 M1S d          60.572  76.962  -4.030  0.00  0.00    -0.059 C 
ATOM     12  C12 M1S d          61.076  75.657  -3.434  0.00  0.00    -0.064 C 
ATOM     13  C13 M1S d          59.954  74.807  -2.839  0.00  0.00    -0.062 C 
ATOM     14  C14 M1S d          59.324  75.500  -1.632  0.00  0.00    -0.050 C 
ATOM     15  C15 M1S d          57.897  75.889  -1.949  0.00  0.00    -0.106 C 
ATOM     16  C16 M1S d          57.528  77.168  -1.917  0.00  0.00    -0.105 C 
ATOM     17  C17 M1S d          56.100  77.562  -2.217  0.00  0.00    -0.030 C 
ATOM     18  C18 M1S d          55.914  78.392  -3.483  0.00  0.00     0.032 C 
ATOM     19  O2  M1S d          54.312  77.234  -5.367  0.00  0.00    -0.259 OA
ATOM     20 CL1  M1S d          59.372  76.415  -8.970  0.00  0.00    -0.081 Cl
ATOM     21  O5  M1S d          59.331  79.101  -5.189  0.00  0.00    -0.298 OA
ATOM     22  O1  M1S d          56.445  77.634  -4.602  0.00  0.00    -0.317 OA
ATOM     23  H1  M1S d          55.709  73.326  -8.225  0.00  0.00     0.092 H 
ATOM     24  H2  M1S d          57.270  78.802  -6.573  0.00  0.00     0.051 H 
ATOM     25  H3  M1S d          58.600  78.412  -7.715  0.00  0.00     0.051 H 
ATOM     26  H4  M1S d          60.161  76.244  -6.026  0.00  0.00     0.044 H 
ATOM     27  H5  M1S d          58.802  76.051  -4.868  0.00  0.00     0.044 H 
ATOM     28  H6  M1S d          60.047  77.531  -3.248  0.00  0.00     0.033 H 
ATOM     29  H7  M1S d          61.433  77.544  -4.391  0.00  0.00     0.033 H 
ATOM     30  H8  M1S d          61.800  75.889  -2.640  0.00  0.00     0.033 H 
ATOM     31  H9  M1S d          61.573  75.077  -4.226  0.00  0.00     0.033 H 
ATOM     32  H10 M1S d          60.367  73.837  -2.521  0.00  0.00     0.033 H 
ATOM     33  H11 M1S d          59.181  74.643  -3.604  0.00  0.00     0.033 H 
ATOM     34  H12 M1S d          59.902  76.403  -1.388  0.00  0.00     0.038 H 
ATOM     35  H13 M1S d          59.333  74.814  -0.772  0.00  0.00     0.038 H 
ATOM     36  H14 M1S d          57.169  75.121  -2.204  0.00  0.00     0.076 H 
ATOM     37  H15 M1S d          58.261  77.936  -1.673  0.00  0.00     0.076 H 
ATOM     38  H16 M1S d          55.722  78.148  -1.366  0.00  0.00     0.042 H 
ATOM     39  H17 M1S d          55.507  76.641  -2.322  0.00  0.00     0.042 H 
ATOM     40  H18 M1S d          56.456  79.344  -3.387  0.00  0.00     0.075 H 
ATOM     41  H19 M1S d          54.844  78.593  -3.644  0.00  0.00     0.075 H 
ENDROOT
BRANCH   3  42
ATOM     42  O3  M1S d          54.393  74.680  -6.409  0.00  0.00    -0.360 OA
ATOM     43  H20 M1S d          54.440  74.772  -5.465  0.00  0.00     0.217 HD
ENDBRANCH   3  42
BRANCH   5  44
ATOM     44  O4  M1S d          58.006  73.912  -9.431  0.00  0.00    -0.359 OA
ATOM     45  H21 M1S d          57.388  73.295  -9.805  0.00  0.00     0.217 HD
ENDBRANCH   5  44
TORSDOF 2
ENDMDL
MODEL 3
REMARK VINA RESULT:      -6.9      2.671      6.078
REMARK  2 active torsions:
REMARK  status: ('A' for Active; 'I' for Inactive)
REMARK    1  A    between atoms: C3_3  and  O3_20 
REMARK    2  A    between atoms: C5_5  and  O4_21 
ROOT
ATOM      1  C1  M1S d          60.346  76.890  -3.348  0.00  0.00     0.296 C 
ATOM      2  C2  M1S d          60.446  77.421  -4.748  0.00  0.00     0.081 A 
ATOM      3  C3  M1S d          61.020  78.691  -4.939  0.00  0.00     0.085 A 
ATOM      4  C4  M1S d          61.114  79.268  -6.198  0.00  0.00    -0.016 A 
ATOM      5  C5  M1S d          60.602  78.538  -7.274  0.00  0.00     0.090 A 
ATOM      6  C6  M1S d          60.057  77.302  -7.059  0.00  0.00     0.075 A 
ATOM      7  C7  M1S d          59.941  76.692  -5.821  0.00  0.00    -0.008 A 
ATOM      8  C8  M1S d          59.314  75.296  -5.693  0.00  0.00     0.017 C 
ATOM      9  C9  M1S d          57.839  75.278  -5.416  0.00  0.00     0.131 C 
ATOM     10  C10 M1S d          56.961  76.467  -5.682  0.00  0.00    -0.009 C 
ATOM     11  C11 M1S d          55.504  76.157  -5.320  0.00  0.00    -0.059 C 
ATOM     12  C12 M1S d          54.620  77.388  -5.446  0.00  0.00    -0.064 C 
ATOM     13  C13 M1S d          55.024  78.507  -4.488  0.00  0.00    -0.062 C 
ATOM     14  C14 M1S d          54.806  78.089  -3.035  0.00  0.00    -0.050 C 
ATOM     15  C15 M1S d          56.137  77.968  -2.327  0.00  0.00    -0.106 C 
ATOM     16  C16 M1S d          56.517  76.802  -1.809  0.00  0.00    -0.105 C 
ATOM     17  C17 M1S d          57.839  76.678  -1.087  0.00  0.00    -0.030 C 
ATOM     18  C18 M1S d          58.862  75.774  -1.768  0.00  0.00     0.032 C 
ATOM     19  O2  M1S d          61.180  77.028  -2.479  0.00  0.00    -0.259 OA
ATOM     20 CL1  M1S d          59.511  76.411  -8.487  0.00  0.00    -0.081 Cl
ATOM     21  O5  M1S d          57.388  74.206  -5.002  0.00  0.00    -0.298 OA
ATOM     22  O1  M1S d          59.095  76.285  -3.107  0.00  0.00    -0.317 OA
ATOM     23  H1  M1S d          61.565  80.244  -6.340  0.00  0.00     0.092 H 
ATOM     24  H2  M1S d          59.820  74.770  -4.871  0.00  0.00     0.051 H 
ATOM     25  H3  M1S d          59.489  74.758  -6.635  0.00  0.00     0.051 H 
ATOM     26  H4  M1S d          57.021  76.728  -6.749  0.00  0.00     0.044 H 
ATOM     27  H5  M1S d          57.310  77.317  -5.077  0.00  0.00     0.044 H 
ATOM     28  H6  M1S d          55.463  75.793  -4.282  0.00  0.00     0.033 H 
ATOM     29  H7  M1S d          55.127  75.377  -5.998  0.00  0.00     0.033 H 
ATOM     30  H8  M1S d          53.581  77.098  -5.229  0.00  0.00     0.033 H 
ATOM     31  H9  M1S d          54.688  77.767  -6.477  0.00  0.00     0.033 H 
ATOM     32  H10 M1S d          54.417  79.400  -4.700  0.00  0.00     0.033 H 
ATOM     33  H11 M1S d          56.089  78.743  -4.638  0.00  0.00     0.033 H 
ATOM     34  H12 M1S d          54.290  77.118  -3.009  0.00  0.00     0.038 H 
ATOM     35  H13 M1S d          54.190  78.846  -2.526  0.00  0.00     0.038 H 
ATOM     36  H14 M1S d          56.787  78.837  -2.241  0.00  0.00     0.076 H 
ATOM     37  H15 M1S d          55.870  75.931  -1.906  0.00  0.00     0.076 H 
ATOM     38  H16 M1S d          57.643  76.275  -0.082  0.00  0.00     0.042 H 
ATOM     39  H17 M1S d          58.276  77.684  -1.001  0.00  0.00     0.042 H 
ATOM     40  H18 M1S d          58.473  74.747  -1.823  0.00  0.00     0.075 H 
ATOM     41  H19 M1S d          59.803  75.780  -1.198  0.00  0.00     0.075 H 
ENDROOT
BRANCH   3  42
ATOM     42  O3  M1S d          61.545  79.387  -3.865  0.00  0.00    -0.360 OA
ATOM     43  H20 M1S d          62.332  78.950  -3.559  0.00  0.00     0.217 HD
ENDBRANCH   3  42
BRANCH   5  44
ATOM     44  O4  M1S d          60.622  79.076  -8.537  0.00  0.00    -0.359 OA
ATOM     45  H21 M1S d          60.561  80.023  -8.478  0.00  0.00     0.217 HD
ENDBRANCH   5  44
TORSDOF 2
ENDMDL
MODEL 4
REMARK VINA RESULT:      -6.2      2.515      5.871
REMARK  2 active torsions:
REMARK  status: ('A' for Active; 'I' for Inactive)
REMARK    1  A    between atoms: C3_3  and  O3_20 
REMARK    2  A    between atoms: C5_5  and  O4_21 
ROOT
ATOM      1  C1  M1S d          59.298  75.970  -2.974  0.00  0.00     0.296 C 
ATOM      2  C2  M1S d          59.754  76.904  -4.056  0.00  0.00     0.081 A 
ATOM      3  C3  M1S d          60.618  77.957  -3.706  0.00  0.00     0.085 A 
ATOM      4  C4  M1S d          61.054  78.885  -4.640  0.00  0.00    -0.016 A 
ATOM      5  C5  M1S d          60.590  78.737  -5.950  0.00  0.00     0.090 A 
ATOM      6  C6  M1S d          59.758  77.698  -6.264  0.00  0.00     0.075 A 
ATOM      7  C7  M1S d          59.296  76.753  -5.362  0.00  0.00    -0.008 A 
ATOM      8  C8  M1S d          58.366  75.623  -5.822  0.00  0.00     0.017 C 
ATOM      9  C9  M1S d          56.898  75.906  -5.693  0.00  0.00     0.131 C 
ATOM     10  C10 M1S d          56.363  77.304  -5.560  0.00  0.00    -0.009 C 
ATOM     11  C11 M1S d          54.833  77.292  -5.462  0.00  0.00    -0.059 C 
ATOM     12  C12 M1S d          54.277  78.679  -5.184  0.00  0.00    -0.064 C 
ATOM     13  C13 M1S d          54.744  79.246  -3.845  0.00  0.00    -0.062 C 
ATOM     14  C14 M1S d          54.189  78.427  -2.681  0.00  0.00    -0.050 C 
ATOM     15  C15 M1S d          55.316  77.717  -1.966  0.00  0.00    -0.106 C 
ATOM     16  C16 M1S d          55.334  76.388  -1.898  0.00  0.00    -0.105 C 
ATOM     17  C17 M1S d          56.450  75.672  -1.172  0.00  0.00    -0.030 C 
ATOM     18  C18 M1S d          57.352  74.819  -2.059  0.00  0.00     0.032 C 
ATOM     19  O2  M1S d          59.977  75.569  -2.053  0.00  0.00    -0.259 OA
ATOM     20 CL1  M1S d          59.287  77.536  -7.962  0.00  0.00    -0.081 Cl
ATOM     21  O5  M1S d          56.157  74.921  -5.753  0.00  0.00    -0.298 OA
ATOM     22  O1  M1S d          57.921  75.678  -3.082  0.00  0.00    -0.317 OA
ATOM     23  H1  M1S d          61.726  79.690  -4.366  0.00  0.00     0.092 H 
ATOM     24  H2  M1S d          58.593  74.730  -5.222  0.00  0.00     0.051 H 
ATOM     25  H3  M1S d          58.580  75.416  -6.881  0.00  0.00     0.051 H 
ATOM     26  H4  M1S d          56.664  77.890  -6.441  0.00  0.00     0.044 H 
ATOM     27  H5  M1S d          56.779  77.765  -4.653  0.00  0.00     0.044 H 
ATOM     28  H6  M1S d          54.533  76.617  -4.646  0.00  0.00     0.033 H 
ATOM     29  H7  M1S d          54.418  76.925  -6.412  0.00  0.00     0.033 H 
ATOM     30  H8  M1S d          53.178  78.623  -5.178  0.00  0.00     0.033 H 
ATOM     31  H9  M1S d          54.605  79.357  -5.987  0.00  0.00     0.033 H 
ATOM     32  H10 M1S d          54.394  80.286  -3.752  0.00  0.00     0.033 H 
ATOM     33  H11 M1S d          55.843  79.225  -3.808  0.00  0.00     0.033 H 
ATOM     34  H12 M1S d          53.476  77.684  -3.065  0.00  0.00     0.038 H 
ATOM     35  H13 M1S d          53.675  79.098  -1.976  0.00  0.00     0.038 H 
ATOM     36  H14 M1S d          56.116  78.294  -1.506  0.00  0.00     0.076 H 
ATOM     37  H15 M1S d          54.539  75.811  -2.370  0.00  0.00     0.076 H 
ATOM     38  H16 M1S d          55.998  75.015  -0.414  0.00  0.00     0.042 H 
ATOM     39  H17 M1S d          57.075  76.429  -0.676  0.00  0.00     0.042 H 
ATOM     40  H18 M1S d          56.762  74.019  -2.529  0.00  0.00     0.075 H 
ATOM     41  H19 M1S d          58.157  74.375  -1.454  0.00  0.00     0.075 H 
ENDROOT
BRANCH   3  42
ATOM     42  O3  M1S d          61.088  78.071  -2.409  0.00  0.00    -0.360 OA
ATOM     43  H20 M1S d          60.627  77.456  -1.850  0.00  0.00     0.217 HD
ENDBRANCH   3  42
BRANCH   5  44
ATOM     44  O4  M1S d          60.948  79.652  -6.910  0.00  0.00    -0.359 OA
ATOM     45  H21 M1S d          61.141  80.485  -6.496  0.00  0.00     0.217 HD
ENDBRANCH   5  44
TORSDOF 2
ENDMDL
