MODEL 1
REMARK VINA RESULT:      -9.9      0.000      0.000
REMARK  3 active torsions:
REMARK  status: ('A' for Active; 'I' for Inactive)
REMARK    1  A    between atoms: C10_12  and  C9_11 
REMARK    2  A    between atoms: C12_14  and  N2_15 
REMARK    3  A    between atoms: C14_17  and  C15_18 
ROOT
ATOM      1  C1  HUP d           0.640  68.953  60.786  0.00  0.00     0.245 A 
ATOM      2  O1  HUP d           0.165  69.446  59.727  0.00  0.00    -0.268 OA
ATOM      3  N1  HUP d           1.939  68.438  60.795  0.00  0.00    -0.327 N 
ATOM      4  C2  HUP d          -0.084  68.876  62.047  0.00  0.00    -0.017 A 
ATOM      5  C3  HUP d           0.505  68.316  63.162  0.00  0.00    -0.067 A 
ATOM      6  C4  HUP d           1.856  67.782  63.154  0.00  0.00     0.005 A 
ATOM      7  C5  HUP d           2.572  67.864  61.917  0.00  0.00     0.022 A 
ATOM      8  C6  HUP d           3.983  67.361  61.718  0.00  0.00    -0.016 C 
ATOM      9  C7  HUP d           4.639  66.780  63.048  0.00  0.00    -0.008 C 
ATOM     10  C8  HUP d           5.321  67.879  63.889  0.00  0.00    -0.093 C 
ATOM     11  C10 HUP d           3.507  64.806  64.241  0.00  0.00    -0.101 C 
ATOM     12  C11 HUP d           3.566  66.092  63.922  0.00  0.00    -0.036 C 
ATOM     13  C12 HUP d           2.536  67.127  64.434  0.00  0.00     0.179 C 
ATOM     14  C13 HUP d           3.250  68.214  65.290  0.00  0.00    -0.006 C 
ATOM     15  C14 HUP d           4.686  68.528  64.906  0.00  0.00    -0.084 C 
ATOM     16  H1  HUP d           2.458  68.480  59.941  0.00  0.00     0.169 HD
ATOM     17  H2  HUP d          -1.099  69.264  62.111  0.00  0.00     0.092 H 
ATOM     18  H3  HUP d          -0.067  68.272  64.087  0.00  0.00     0.084 H 
ATOM     19  H4  HUP d           4.604  68.195  61.359  0.00  0.00     0.043 H 
ATOM     20  H5  HUP d           3.965  66.564  60.960  0.00  0.00     0.043 H 
ATOM     21  H6  HUP d           5.398  66.036  62.761  0.00  0.00     0.053 H 
ATOM     22  H7  HUP d           6.351  68.148  63.661  0.00  0.00     0.078 H 
ATOM     23  H11 HUP d           2.685  64.512  64.892  0.00  0.00     0.076 H 
ATOM     24  H15 HUP d           3.248  67.874  66.336  0.00  0.00     0.044 H 
ATOM     25  H16 HUP d           2.668  69.144  65.205  0.00  0.00     0.044 H 
ENDROOT
BRANCH  13  26
ATOM     26  N2  HUP d           1.493  66.481  65.281  0.00  0.00    -0.062 N 
ATOM     27  H12 HUP d           0.838  67.178  65.598  0.00  0.00     0.276 HD
ATOM     28  H13 HUP d           1.930  66.043  66.076  0.00  0.00     0.276 HD
ATOM     29  H14 HUP d           1.005  65.784  64.740  0.00  0.00     0.276 HD
ENDBRANCH  13  26
BRANCH  11  30
ATOM     30  C9  HUP d           4.434  63.707  63.815  0.00  0.00    -0.059 C 
ATOM     31  H8  HUP d           4.102  62.756  64.257  0.00  0.00     0.032 H 
ATOM     32  H9  HUP d           5.454  63.935  64.158  0.00  0.00     0.032 H 
ATOM     33  H10 HUP d           4.425  63.625  62.718  0.00  0.00     0.032 H 
ENDBRANCH  11  30
BRANCH  15  34
ATOM     34  C15 HUP d           5.336  69.602  65.751  0.00  0.00    -0.055 C 
ATOM     35  H17 HUP d           6.368  69.765  65.406  0.00  0.00     0.033 H 
ATOM     36  H18 HUP d           5.347  69.284  66.804  0.00  0.00     0.033 H 
ATOM     37  H19 HUP d           4.766  70.538  65.656  0.00  0.00     0.033 H 
ENDBRANCH  15  34
TORSDOF 3
ENDMDL
