MODEL 1
REMARK VINA RESULT:      -9.8      0.000      0.000
REMARK  3 active torsions:
REMARK  status: ('A' for Active; 'I' for Inactive)
REMARK    1  A    between atoms: C10_12  and  C9_11 
REMARK    2  A    between atoms: C12_14  and  N2_15 
REMARK    3  A    between atoms: C14_17  and  C15_18 
ROOT
ATOM      1  C1  HUP d           0.612  69.012  60.938  0.00  0.00     0.245 A 
ATOM      2  O1  HUP d           0.077  69.525  59.919  0.00  0.00    -0.268 OA
ATOM      3  N1  HUP d           1.922  68.533  60.872  0.00  0.00    -0.327 N 
ATOM      4  C2  HUP d          -0.051  68.876  62.227  0.00  0.00    -0.017 A 
ATOM      5  C3  HUP d           0.602  68.297  63.296  0.00  0.00    -0.067 A 
ATOM      6  C4  HUP d           1.964  67.800  63.210  0.00  0.00     0.005 A 
ATOM      7  C5  HUP d           2.621  67.941  61.946  0.00  0.00     0.022 A 
ATOM      8  C6  HUP d           4.034  67.482  61.668  0.00  0.00    -0.016 C 
ATOM      9  C7  HUP d           4.765  66.877  62.947  0.00  0.00    -0.008 C 
ATOM     10  C8  HUP d           5.455  67.968  63.793  0.00  0.00    -0.093 C 
ATOM     11  C10 HUP d           3.738  64.837  64.124  0.00  0.00    -0.101 C 
ATOM     12  C11 HUP d           3.749  66.134  63.846  0.00  0.00    -0.036 C 
ATOM     13  C12 HUP d           2.718  67.124  64.437  0.00  0.00     0.179 C 
ATOM     14  C13 HUP d           3.443  68.202  65.294  0.00  0.00    -0.006 C 
ATOM     15  C14 HUP d           4.850  68.567  64.857  0.00  0.00    -0.084 C 
ATOM     16  H1  HUP d           2.402  68.615  59.998  0.00  0.00     0.169 HD
ATOM     17  H2  HUP d          -1.073  69.235  62.349  0.00  0.00     0.092 H 
ATOM     18  H3  HUP d           0.074  68.209  64.244  0.00  0.00     0.084 H 
ATOM     19  H4  HUP d           4.616  68.343  61.309  0.00  0.00     0.043 H 
ATOM     20  H5  HUP d           4.002  66.709  60.886  0.00  0.00     0.043 H 
ATOM     21  H6  HUP d           5.528  66.164  62.603  0.00  0.00     0.053 H 
ATOM     22  H7  HUP d           6.467  68.271  63.528  0.00  0.00     0.078 H 
ATOM     23  H11 HUP d           2.954  64.500  64.801  0.00  0.00     0.076 H 
ATOM     24  H15 HUP d           3.497  67.829  66.328  0.00  0.00     0.044 H 
ATOM     25  H16 HUP d           2.834  69.118  65.266  0.00  0.00     0.044 H 
ENDROOT
BRANCH  13  26
ATOM     26  N2  HUP d           1.732  66.423  65.307  0.00  0.00    -0.062 N 
ATOM     27  H12 HUP d           0.815  66.485  64.893  0.00  0.00     0.276 HD
ATOM     28  H13 HUP d           1.720  66.856  66.217  0.00  0.00     0.276 HD
ATOM     29  H14 HUP d           1.994  65.454  65.400  0.00  0.00     0.276 HD
ENDBRANCH  13  26
BRANCH  11  30
ATOM     30  C9  HUP d           4.673  63.778  63.622  0.00  0.00    -0.059 C 
ATOM     31  H8  HUP d           4.116  63.066  62.994  0.00  0.00     0.032 H 
ATOM     32  H9  HUP d           5.116  63.245  64.476  0.00  0.00     0.032 H 
ATOM     33  H10 HUP d           5.471  64.246  63.026  0.00  0.00     0.032 H 
ENDBRANCH  11  30
BRANCH  15  34
ATOM     34  C15 HUP d           5.512  69.631  65.707  0.00  0.00    -0.055 C 
ATOM     35  H17 HUP d           6.248  70.179  65.101  0.00  0.00     0.033 H 
ATOM     36  H18 HUP d           6.019  69.157  66.559  0.00  0.00     0.033 H 
ATOM     37  H19 HUP d           4.748  70.331  66.078  0.00  0.00     0.033 H 
ENDBRANCH  15  34
TORSDOF 3
ENDMDL
MODEL 2
REMARK VINA RESULT:      -9.5      1.373      3.473
REMARK  3 active torsions:
REMARK  status: ('A' for Active; 'I' for Inactive)
REMARK    1  A    between atoms: C10_12  and  C9_11 
REMARK    2  A    between atoms: C12_14  and  N2_15 
REMARK    3  A    between atoms: C14_17  and  C15_18 
ROOT
ATOM      1  C1  HUP d           0.517  68.913  61.347  0.00  0.00     0.245 A 
ATOM      2  O1  HUP d          -0.609  69.351  60.988  0.00  0.00    -0.268 OA
ATOM      3  N1  HUP d           0.823  68.803  62.706  0.00  0.00    -0.327 N 
ATOM      4  C2  HUP d           1.564  68.496  60.424  0.00  0.00    -0.017 A 
ATOM      5  C3  HUP d           2.774  68.033  60.897  0.00  0.00    -0.067 A 
ATOM      6  C4  HUP d           3.077  67.928  62.313  0.00  0.00     0.005 A 
ATOM      7  C5  HUP d           2.047  68.329  63.223  0.00  0.00     0.022 A 
ATOM      8  C6  HUP d           2.181  68.291  64.727  0.00  0.00    -0.016 C 
ATOM      9  C7  HUP d           3.571  67.692  65.223  0.00  0.00    -0.008 C 
ATOM     10  C8  HUP d           3.531  66.154  65.347  0.00  0.00    -0.093 C 
ATOM     11  C10 HUP d           5.754  68.837  64.498  0.00  0.00    -0.101 C 
ATOM     12  C11 HUP d           4.702  68.072  64.239  0.00  0.00    -0.036 C 
ATOM     13  C12 HUP d           4.475  67.402  62.863  0.00  0.00     0.179 C 
ATOM     14  C13 HUP d           4.452  65.853  63.019  0.00  0.00    -0.006 C 
ATOM     15  C14 HUP d           3.932  65.324  64.344  0.00  0.00    -0.084 C 
ATOM     16  H1  HUP d           0.121  69.082  63.362  0.00  0.00     0.169 HD
ATOM     17  H2  HUP d           1.389  68.551  59.350  0.00  0.00     0.092 H 
ATOM     18  H3  HUP d           3.535  67.733  60.178  0.00  0.00     0.084 H 
ATOM     19  H4  HUP d           1.369  67.670  65.135  0.00  0.00     0.043 H 
ATOM     20  H5  HUP d           2.086  69.317  65.112  0.00  0.00     0.043 H 
ATOM     21  H6  HUP d           3.798  68.119  66.211  0.00  0.00     0.053 H 
ATOM     22  H7  HUP d           3.167  65.715  66.275  0.00  0.00     0.078 H 
ATOM     23  H11 HUP d           6.461  68.970  63.680  0.00  0.00     0.076 H 
ATOM     24  H15 HUP d           5.482  65.488  62.892  0.00  0.00     0.044 H 
ATOM     25  H16 HUP d           3.816  65.445  62.220  0.00  0.00     0.044 H 
ENDROOT
BRANCH  13  26
ATOM     26  N2  HUP d           5.557  67.757  61.902  0.00  0.00    -0.062 N 
ATOM     27  H12 HUP d           6.105  68.514  62.278  0.00  0.00     0.276 HD
ATOM     28  H13 HUP d           5.149  68.040  61.026  0.00  0.00     0.276 HD
ATOM     29  H14 HUP d           6.150  66.955  61.753  0.00  0.00     0.276 HD
ENDBRANCH  13  26
BRANCH  11  30
ATOM     30  C9  HUP d           6.091  69.540  65.778  0.00  0.00    -0.059 C 
ATOM     31  H8  HUP d           5.989  68.838  66.619  0.00  0.00     0.032 H 
ATOM     32  H9  HUP d           5.404  70.387  65.923  0.00  0.00     0.032 H 
ATOM     33  H10 HUP d           7.126  69.909  65.733  0.00  0.00     0.032 H 
ENDBRANCH  11  30
BRANCH  15  34
ATOM     34  C15 HUP d           3.911  63.814  64.447  0.00  0.00    -0.055 C 
ATOM     35  H17 HUP d           4.823  63.402  63.991  0.00  0.00     0.033 H 
ATOM     36  H18 HUP d           3.029  63.422  63.919  0.00  0.00     0.033 H 
ATOM     37  H19 HUP d           3.865  63.519  65.506  0.00  0.00     0.033 H 
ENDBRANCH  15  34
TORSDOF 3
ENDMDL
MODEL 3
REMARK VINA RESULT:      -7.9      2.762      4.671
REMARK  3 active torsions:
REMARK  status: ('A' for Active; 'I' for Inactive)
REMARK    1  A    between atoms: C10_12  and  C9_11 
REMARK    2  A    between atoms: C12_14  and  N2_15 
REMARK    3  A    between atoms: C14_17  and  C15_18 
ROOT
ATOM      1  C1  HUP d           5.974  70.043  65.880  0.00  0.00     0.245 A 
ATOM      2  O1  HUP d           6.891  70.748  66.380  0.00  0.00    -0.268 OA
ATOM      3  N1  HUP d           6.163  69.426  64.641  0.00  0.00    -0.327 N 
ATOM      4  C2  HUP d           4.684  69.810  66.517  0.00  0.00    -0.017 A 
ATOM      5  C3  HUP d           3.728  69.028  65.901  0.00  0.00    -0.067 A 
ATOM      6  C4  HUP d           3.941  68.396  64.611  0.00  0.00     0.005 A 
ATOM      7  C5  HUP d           5.210  68.616  63.988  0.00  0.00     0.022 A 
ATOM      8  C6  HUP d           5.609  68.043  62.648  0.00  0.00    -0.016 C 
ATOM      9  C7  HUP d           4.497  67.100  62.008  0.00  0.00    -0.008 C 
ATOM     10  C8  HUP d           4.624  65.640  62.491  0.00  0.00    -0.093 C 
ATOM     11  C10 HUP d           2.165  68.066  61.528  0.00  0.00    -0.101 C 
ATOM     12  C11 HUP d           3.084  67.612  62.370  0.00  0.00    -0.036 C 
ATOM     13  C12 HUP d           2.838  67.501  63.894  0.00  0.00     0.179 C 
ATOM     14  C13 HUP d           2.959  66.017  64.348  0.00  0.00    -0.006 C 
ATOM     15  C14 HUP d           3.924  65.153  63.554  0.00  0.00    -0.084 C 
ATOM     16  H1  HUP d           7.041  69.569  64.183  0.00  0.00     0.169 HD
ATOM     17  H2  HUP d           4.473  70.257  67.487  0.00  0.00     0.092 H 
ATOM     18  H3  HUP d           2.775  68.878  66.404  0.00  0.00     0.084 H 
ATOM     19  H4  HUP d           6.530  67.456  62.780  0.00  0.00     0.043 H 
ATOM     20  H5  HUP d           5.801  68.876  61.955  0.00  0.00     0.043 H 
ATOM     21  H6  HUP d           4.616  67.119  60.914  0.00  0.00     0.053 H 
ATOM     22  H7  HUP d           5.300  64.972  61.961  0.00  0.00     0.078 H 
ATOM     23  H11 HUP d           1.214  68.360  61.971  0.00  0.00     0.076 H 
ATOM     24  H15 HUP d           1.961  65.560  64.276  0.00  0.00     0.044 H 
ATOM     25  H16 HUP d           3.290  66.013  65.397  0.00  0.00     0.044 H 
ENDROOT
BRANCH  13  26
ATOM     26  N2  HUP d           1.479  67.989  64.260  0.00  0.00    -0.062 N 
ATOM     27  H12 HUP d           1.409  68.069  65.263  0.00  0.00     0.276 HD
ATOM     28  H13 HUP d           0.786  67.338  63.926  0.00  0.00     0.276 HD
ATOM     29  H14 HUP d           1.321  68.892  63.841  0.00  0.00     0.276 HD
ENDBRANCH  13  26
BRANCH  11  30
ATOM     30  C9  HUP d           2.274  68.224  60.041  0.00  0.00    -0.059 C 
ATOM     31  H8  HUP d           1.267  68.304  59.606  0.00  0.00     0.032 H 
ATOM     32  H9  HUP d           2.789  67.349  59.617  0.00  0.00     0.032 H 
ATOM     33  H10 HUP d           2.847  69.134  59.810  0.00  0.00     0.032 H 
ENDBRANCH  11  30
BRANCH  15  34
ATOM     34  C15 HUP d           4.025  63.723  64.040  0.00  0.00    -0.055 C 
ATOM     35  H17 HUP d           5.069  63.385  63.970  0.00  0.00     0.033 H 
ATOM     36  H18 HUP d           3.388  63.078  63.416  0.00  0.00     0.033 H 
ATOM     37  H19 HUP d           3.690  63.666  65.086  0.00  0.00     0.033 H 
ENDBRANCH  15  34
TORSDOF 3
ENDMDL
MODEL 4
REMARK VINA RESULT:      -7.8      2.701      4.799
REMARK  3 active torsions:
REMARK  status: ('A' for Active; 'I' for Inactive)
REMARK    1  A    between atoms: C10_12  and  C9_11 
REMARK    2  A    between atoms: C12_14  and  N2_15 
REMARK    3  A    between atoms: C14_17  and  C15_18 
ROOT
ATOM      1  C1  HUP d           5.802  70.191  65.818  0.00  0.00     0.245 A 
ATOM      2  O1  HUP d           6.212  70.994  66.699  0.00  0.00    -0.268 OA
ATOM      3  N1  HUP d           4.736  69.332  66.096  0.00  0.00    -0.327 N 
ATOM      4  C2  HUP d           6.373  70.085  64.482  0.00  0.00    -0.017 A 
ATOM      5  C3  HUP d           5.871  69.175  63.574  0.00  0.00    -0.067 A 
ATOM      6  C4  HUP d           4.764  68.287  63.881  0.00  0.00     0.005 A 
ATOM      7  C5  HUP d           4.196  68.395  65.190  0.00  0.00     0.022 A 
ATOM      8  C6  HUP d           3.043  67.555  65.687  0.00  0.00    -0.016 C 
ATOM      9  C7  HUP d           2.460  66.565  64.584  0.00  0.00    -0.008 C 
ATOM     10  C8  HUP d           1.383  67.239  63.708  0.00  0.00    -0.093 C 
ATOM     11  C10 HUP d           4.016  64.810  63.534  0.00  0.00    -0.101 C 
ATOM     12  C11 HUP d           3.594  66.061  63.661  0.00  0.00    -0.036 C 
ATOM     13  C12 HUP d           4.188  67.230  62.840  0.00  0.00     0.179 C 
ATOM     14  C13 HUP d           3.081  67.880  61.958  0.00  0.00    -0.006 C 
ATOM     15  C14 HUP d           1.670  67.835  62.517  0.00  0.00    -0.084 C 
ATOM     16  H1  HUP d           4.325  69.386  67.006  0.00  0.00     0.169 HD
ATOM     17  H2  HUP d           7.203  70.729  64.197  0.00  0.00     0.092 H 
ATOM     18  H3  HUP d           6.324  69.121  62.585  0.00  0.00     0.084 H 
ATOM     19  H4  HUP d           2.235  68.228  66.013  0.00  0.00     0.043 H 
ATOM     20  H5  HUP d           3.390  66.958  66.544  0.00  0.00     0.043 H 
ATOM     21  H6  HUP d           2.007  65.704  65.098  0.00  0.00     0.053 H 
ATOM     22  H7  HUP d           0.352  67.238  64.057  0.00  0.00     0.078 H 
ATOM     23  H11 HUP d           4.813  64.646  62.811  0.00  0.00     0.076 H 
ATOM     24  H15 HUP d           3.076  67.360  60.988  0.00  0.00     0.044 H 
ATOM     25  H16 HUP d           3.350  68.936  61.807  0.00  0.00     0.044 H 
ENDROOT
BRANCH  13  26
ATOM     26  N2  HUP d           5.281  66.762  61.943  0.00  0.00    -0.062 N 
ATOM     27  H12 HUP d           5.355  65.758  61.998  0.00  0.00     0.276 HD
ATOM     28  H13 HUP d           6.153  67.179  62.229  0.00  0.00     0.276 HD
ATOM     29  H14 HUP d           5.077  67.031  60.993  0.00  0.00     0.276 HD
ENDBRANCH  13  26
BRANCH  11  30
ATOM     30  C9  HUP d           3.530  63.595  64.265  0.00  0.00    -0.059 C 
ATOM     31  H8  HUP d           3.084  62.890  63.547  0.00  0.00     0.032 H 
ATOM     32  H9  HUP d           2.773  63.891  65.006  0.00  0.00     0.032 H 
ATOM     33  H10 HUP d           4.376  63.112  64.776  0.00  0.00     0.032 H 
ENDBRANCH  11  30
BRANCH  15  34
ATOM     34  C15 HUP d           0.629  68.493  61.636  0.00  0.00    -0.055 C 
ATOM     35  H17 HUP d          -0.363  68.077  61.868  0.00  0.00     0.033 H 
ATOM     36  H18 HUP d           0.868  68.302  60.580  0.00  0.00     0.033 H 
ATOM     37  H19 HUP d           0.625  69.577  61.822  0.00  0.00     0.033 H 
ENDBRANCH  15  34
TORSDOF 3
ENDMDL
