MODEL 1
REMARK VINA RESULT:      -5.6      0.000      0.000
REMARK  11 active torsions:
REMARK  status: ('A' for Active; 'I' for Inactive)
REMARK    1  A    between atoms: N1_1  and  CA1_2 
REMARK    2  A    between atoms: CA1_2  and  C1_3 
REMARK    3  A    between atoms: CA1_2  and  CB1_6 
REMARK    4  A    between atoms: CB1_6  and  CG1_7 
REMARK    5  A    between atoms: CG1_7  and  CD1_8 
REMARK       I    between atoms: CD1_8  and  N2_10 
REMARK    6  A    between atoms: N2_10  and  CA2_11 
REMARK    7  A    between atoms: CA2_11  and  C2_12 
REMARK    8  A    between atoms: CA2_11  and  CB2_14 
REMARK       I    between atoms: C2_12  and  N3_16 
REMARK    9  A    between atoms: CB2_14  and  SG2_15 
REMARK   10  A    between atoms: N3_16  and  CA3_17 
REMARK   11  A    between atoms: CA3_17  and  C3_18 
ROOT
ATOM      1  CD1 GSH d           9.616  35.151  -4.436  0.00  0.00     0.218 C 
ATOM      2  OE1 GSH d           8.862  34.184  -4.222  0.00  0.00    -0.274 OA
ATOM      3  N2  GSH d          10.820  35.027  -5.003  0.00  0.00    -0.347 N 
ATOM      4  H9  GSH d          11.368  35.851  -5.147  0.00  0.00     0.163 HD
ENDROOT
BRANCH   3   5
ATOM      5  CA2 GSH d          11.371  33.736  -5.419  0.00  0.00     0.097 C 
ATOM      6  H10 GSH d          10.794  32.932  -4.939  0.00  0.00     0.088 H 
BRANCH   5   7
ATOM      7  C2  GSH d          12.833  33.638  -4.983  0.00  0.00     0.241 C 
ATOM      8  O2  GSH d          13.522  34.657  -4.854  0.00  0.00    -0.271 OA
ATOM      9  N3  GSH d          13.283  32.399  -4.761  0.00  0.00    -0.349 N 
ATOM     10  H14 GSH d          12.662  31.626  -4.887  0.00  0.00     0.163 HD
BRANCH   9  11
ATOM     11  CA3 GSH d          14.654  32.146  -4.341  0.00  0.00     0.075 C 
ATOM     12  H15 GSH d          15.197  33.103  -4.359  0.00  0.00     0.080 H 
ATOM     13  H16 GSH d          15.108  31.454  -5.065  0.00  0.00     0.080 H 
BRANCH  11  14
ATOM     14  C3  GSH d          14.811  31.549  -2.966  0.00  0.00     0.191 C 
ATOM     15  O31 GSH d          15.850  30.901  -2.723  0.00  0.00    -0.647 OA
ATOM     16  O32 GSH d          13.899  31.731  -2.131  0.00  0.00    -0.647 OA
ENDBRANCH  11  14
ENDBRANCH   9  11
ENDBRANCH   5   7
BRANCH   5  17
ATOM     17  CB2 GSH d          11.292  33.564  -6.948  0.00  0.00     0.001 C 
ATOM     18  H11 GSH d          12.255  33.863  -7.388  0.00  0.00     0.052 H 
ATOM     19  H12 GSH d          10.493  34.212  -7.337  0.00  0.00     0.052 H 
BRANCH  17  20
ATOM     20  SG2 GSH d          10.935  31.831  -7.436  0.00  0.00    -0.180 SA
ATOM     21  H13 GSH d          10.893  31.768  -8.441  0.00  0.00     0.101 HD
ENDBRANCH  17  20
ENDBRANCH   5  17
ENDBRANCH   3   5
BRANCH   1  22
ATOM     22  CG1 GSH d           9.226  36.573  -4.049  0.00  0.00     0.012 C 
ATOM     23  H7  GSH d           9.962  36.947  -3.323  0.00  0.00     0.047 H 
ATOM     24  H8  GSH d           9.254  37.198  -4.955  0.00  0.00     0.047 H 
BRANCH  22  25
ATOM     25  CB1 GSH d           7.828  36.689  -3.424  0.00  0.00    -0.021 C 
ATOM     26  H5  GSH d           7.082  36.571  -4.224  0.00  0.00     0.037 H 
ATOM     27  H6  GSH d           7.710  35.878  -2.690  0.00  0.00     0.037 H 
BRANCH  25  28
ATOM     28  CA1 GSH d           7.566  38.019  -2.716  0.00  0.00     0.183 C 
ATOM     29  H4  GSH d           8.434  38.267  -2.087  0.00  0.00     0.101 H 
BRANCH  28  30
ATOM     30  N1  GSH d           6.359  37.896  -1.860  0.00  0.00    -0.065 N 
ATOM     31  H1  GSH d           6.498  37.156  -1.189  0.00  0.00     0.275 HD
ATOM     32  H2  GSH d           5.560  37.683  -2.436  0.00  0.00     0.275 HD
ATOM     33  H3  GSH d           6.201  38.765  -1.374  0.00  0.00     0.275 HD
ENDBRANCH  28  30
BRANCH  28  34
ATOM     34  C1  GSH d           7.352  39.144  -3.734  0.00  0.00     0.204 C 
ATOM     35  O11 GSH d           8.356  39.738  -4.184  0.00  0.00    -0.646 OA
ATOM     36  O12 GSH d           6.184  39.425  -4.074  0.00  0.00    -0.646 OA
ENDBRANCH  28  34
ENDBRANCH  25  28
ENDBRANCH  22  25
ENDBRANCH   1  22
TORSDOF 11
ENDMDL
