MODEL 1
REMARK VINA RESULT:      -5.4      0.000      0.000
REMARK  2 active torsions:
REMARK  status: ('A' for Active; 'I' for Inactive)
REMARK    1  A    between atoms: C4_4  and  S_7 
REMARK    2  A    between atoms: S_7  and  N2_8 
ROOT
ATOM      1  C1  FBV d          17.022   6.240  14.276  0.00  0.00    -0.080 A 
ATOM      2  C2  FBV d          15.660   6.271  14.559  0.00  0.00    -0.081 A 
ATOM      3  C3  FBV d          15.058   5.329  15.410  0.00  0.00    -0.057 A 
ATOM      4  C4  FBV d          15.856   4.288  15.968  0.00  0.00     0.117 A 
ATOM      5  C5  FBV d          17.250   4.339  15.628  0.00  0.00     0.139 A 
ATOM      6  C6  FBV d          17.823   5.277  14.815  0.00  0.00    -0.044 A 
ATOM      7  F   FBV d          18.015   3.390  16.212  0.00  0.00    -0.204 F 
ATOM      8  H1  FBV d          17.451   6.988  13.620  0.00  0.00     0.083 H 
ATOM      9  H2  FBV d          15.046   7.043  14.110  0.00  0.00     0.083 H 
ATOM     10  H3  FBV d          14.001   5.393  15.640  0.00  0.00     0.086 H 
ATOM     11  H4  FBV d          18.886   5.256  14.603  0.00  0.00     0.088 H 
ENDROOT
BRANCH   4  12
ATOM     12  S   FBV d          15.185   3.064  17.039  0.00  0.00     0.259 S 
ATOM     13  O1  FBV d          15.628   3.463  18.388  0.00  0.00    -0.201 OA
ATOM     14  O2  FBV d          13.794   3.052  16.737  0.00  0.00    -0.201 OA
BRANCH  12  15
ATOM     15  N2  FBV d          15.825   1.655  16.624  0.00  0.00    -0.324 N 
ATOM     16  H5  FBV d          15.569   0.825  17.118  0.00  0.00     0.169 HD
ATOM     17  H6  FBV d          16.482   1.606  15.871  0.00  0.00     0.169 HD
ENDBRANCH  12  15
ENDBRANCH   4  12
TORSDOF 2
ENDMDL
