MODEL 1
REMARK VINA RESULT:      -5.8      0.000      0.000
REMARK  2 active torsions:
REMARK  status: ('A' for Active; 'I' for Inactive)
REMARK    1  A    between atoms: C4_4  and  S_7 
REMARK    2  A    between atoms: S_7  and  N2_8 
ROOT
ATOM      1  C1  FBV d          14.929   6.844  15.422  0.00  0.00    -0.080 A 
ATOM      2  C2  FBV d          14.323   5.867  16.205  0.00  0.00    -0.081 A 
ATOM      3  C3  FBV d          14.852   4.570  16.315  0.00  0.00    -0.057 A 
ATOM      4  C4  FBV d          16.020   4.232  15.571  0.00  0.00     0.117 A 
ATOM      5  C5  FBV d          16.581   5.303  14.796  0.00  0.00     0.139 A 
ATOM      6  C6  FBV d          16.064   6.567  14.719  0.00  0.00    -0.044 A 
ATOM      7  F   FBV d          17.726   4.998  14.146  0.00  0.00    -0.204 F 
ATOM      8  H1  FBV d          14.494   7.835  15.369  0.00  0.00     0.083 H 
ATOM      9  H2  FBV d          13.416   6.114  16.747  0.00  0.00     0.083 H 
ATOM     10  H3  FBV d          14.378   3.836  16.956  0.00  0.00     0.086 H 
ATOM     11  H4  FBV d          16.544   7.329  14.115  0.00  0.00     0.088 H 
ENDROOT
BRANCH   4  12
ATOM     12  S   FBV d          16.747   2.632  15.644  0.00  0.00     0.259 S 
ATOM     13  O1  FBV d          18.099   2.859  16.188  0.00  0.00    -0.201 OA
ATOM     14  O2  FBV d          15.818   1.853  16.388  0.00  0.00    -0.201 OA
BRANCH  12  15
ATOM     15  N2  FBV d          16.825   2.068  14.146  0.00  0.00    -0.324 N 
ATOM     16  H5  FBV d          16.311   2.518  13.415  0.00  0.00     0.169 HD
ATOM     17  H6  FBV d          17.387   1.267  13.941  0.00  0.00     0.169 HD
ENDBRANCH  12  15
ENDBRANCH   4  12
TORSDOF 2
ENDMDL
MODEL 2
REMARK VINA RESULT:      -5.7      1.706      2.266
REMARK  2 active torsions:
REMARK  status: ('A' for Active; 'I' for Inactive)
REMARK    1  A    between atoms: C4_4  and  S_7 
REMARK    2  A    between atoms: S_7  and  N2_8 
ROOT
ATOM      1  C1  FBV d          14.007   5.902  16.709  0.00  0.00    -0.080 A 
ATOM      2  C2  FBV d          14.697   6.115  15.519  0.00  0.00    -0.081 A 
ATOM      3  C3  FBV d          15.658   5.206  15.046  0.00  0.00    -0.057 A 
ATOM      4  C4  FBV d          15.964   4.053  15.825  0.00  0.00     0.117 A 
ATOM      5  C5  FBV d          15.200   3.911  17.033  0.00  0.00     0.139 A 
ATOM      6  C6  FBV d          14.252   4.795  17.466  0.00  0.00    -0.044 A 
ATOM      7  F   FBV d          15.446   2.782  17.735  0.00  0.00    -0.204 F 
ATOM      8  H1  FBV d          13.267   6.623  17.036  0.00  0.00     0.083 H 
ATOM      9  H2  FBV d          14.487   7.008  14.941  0.00  0.00     0.083 H 
ATOM     10  H3  FBV d          16.159   5.379  14.101  0.00  0.00     0.086 H 
ATOM     11  H4  FBV d          13.709   4.622  18.388  0.00  0.00     0.088 H 
ENDROOT
BRANCH   4  12
ATOM     12  S   FBV d          17.157   2.865  15.313  0.00  0.00     0.259 S 
ATOM     13  O1  FBV d          18.314   3.089  16.200  0.00  0.00    -0.201 OA
ATOM     14  O2  FBV d          16.467   1.622  15.367  0.00  0.00    -0.201 OA
BRANCH  12  15
ATOM     15  N2  FBV d          17.538   3.190  13.790  0.00  0.00    -0.324 N 
ATOM     16  H5  FBV d          18.338   3.753  13.585  0.00  0.00     0.169 HD
ATOM     17  H6  FBV d          16.977   2.829  13.046  0.00  0.00     0.169 HD
ENDBRANCH  12  15
ENDBRANCH   4  12
TORSDOF 2
ENDMDL
MODEL 3
REMARK VINA RESULT:      -5.7      2.297      3.133
REMARK  2 active torsions:
REMARK  status: ('A' for Active; 'I' for Inactive)
REMARK    1  A    between atoms: C4_4  and  S_7 
REMARK    2  A    between atoms: S_7  and  N2_8 
ROOT
ATOM      1  C1  FBV d          14.217   3.149  17.223  0.00  0.00    -0.080 A 
ATOM      2  C2  FBV d          14.067   4.395  16.622  0.00  0.00    -0.081 A 
ATOM      3  C3  FBV d          15.064   4.946  15.800  0.00  0.00    -0.057 A 
ATOM      4  C4  FBV d          16.281   4.230  15.609  0.00  0.00     0.117 A 
ATOM      5  C5  FBV d          16.345   2.952  16.261  0.00  0.00     0.139 A 
ATOM      6  C6  FBV d          15.355   2.421  17.040  0.00  0.00    -0.044 A 
ATOM      7  F   FBV d          17.473   2.245  16.023  0.00  0.00    -0.204 F 
ATOM      8  H1  FBV d          13.422   2.754  17.844  0.00  0.00     0.083 H 
ATOM      9  H2  FBV d          13.155   4.955  16.792  0.00  0.00     0.083 H 
ATOM     10  H3  FBV d          14.911   5.905  15.318  0.00  0.00     0.086 H 
ATOM     11  H4  FBV d          15.470   1.445  17.499  0.00  0.00     0.088 H 
ENDROOT
BRANCH   4  12
ATOM     12  S   FBV d          17.584   4.847  14.602  0.00  0.00     0.259 S 
ATOM     13  O1  FBV d          17.076   6.128  14.076  0.00  0.00    -0.201 OA
ATOM     14  O2  FBV d          18.724   4.846  15.455  0.00  0.00    -0.201 OA
BRANCH  12  15
ATOM     15  N2  FBV d          17.816   3.798  13.414  0.00  0.00    -0.324 N 
ATOM     16  H5  FBV d          18.470   4.003  12.686  0.00  0.00     0.169 HD
ATOM     17  H6  FBV d          17.306   2.937  13.400  0.00  0.00     0.169 HD
ENDBRANCH  12  15
ENDBRANCH   4  12
TORSDOF 2
ENDMDL
MODEL 4
REMARK VINA RESULT:      -5.6      1.788      2.094
REMARK  2 active torsions:
REMARK  status: ('A' for Active; 'I' for Inactive)
REMARK    1  A    between atoms: C4_4  and  S_7 
REMARK    2  A    between atoms: S_7  and  N2_8 
ROOT
ATOM      1  C1  FBV d          16.967   6.738  14.299  0.00  0.00    -0.080 A 
ATOM      2  C2  FBV d          15.608   6.491  14.465  0.00  0.00    -0.081 A 
ATOM      3  C3  FBV d          15.137   5.342  15.122  0.00  0.00    -0.057 A 
ATOM      4  C4  FBV d          16.076   4.381  15.596  0.00  0.00     0.117 A 
ATOM      5  C5  FBV d          17.456   4.721  15.388  0.00  0.00     0.139 A 
ATOM      6  C6  FBV d          17.896   5.856  14.765  0.00  0.00    -0.044 A 
ATOM      7  F   FBV d          18.344   3.839  15.898  0.00  0.00    -0.204 F 
ATOM      8  H1  FBV d          17.290   7.640  13.793  0.00  0.00     0.083 H 
ATOM      9  H2  FBV d          14.891   7.207  14.076  0.00  0.00     0.083 H 
ATOM     10  H3  FBV d          14.074   5.188  15.266  0.00  0.00     0.086 H 
ATOM     11  H4  FBV d          18.956   6.050  14.646  0.00  0.00     0.088 H 
ENDROOT
BRANCH   4  12
ATOM     12  S   FBV d          15.576   2.911  16.424  0.00  0.00     0.259 S 
ATOM     13  O1  FBV d          16.046   1.814  15.557  0.00  0.00    -0.201 OA
ATOM     14  O2  FBV d          16.112   3.042  17.736  0.00  0.00    -0.201 OA
BRANCH  12  15
ATOM     15  N2  FBV d          13.975   2.924  16.506  0.00  0.00    -0.324 N 
ATOM     16  H5  FBV d          13.521   3.090  17.382  0.00  0.00     0.169 HD
ATOM     17  H6  FBV d          13.431   2.766  15.683  0.00  0.00     0.169 HD
ENDBRANCH  12  15
ENDBRANCH   4  12
TORSDOF 2
ENDMDL
MODEL 5
REMARK VINA RESULT:      -5.6      1.543      2.110
REMARK  2 active torsions:
REMARK  status: ('A' for Active; 'I' for Inactive)
REMARK    1  A    between atoms: C4_4  and  S_7 
REMARK    2  A    between atoms: S_7  and  N2_8 
ROOT
ATOM      1  C1  FBV d          15.630   7.245  14.212  0.00  0.00    -0.080 A 
ATOM      2  C2  FBV d          16.986   6.938  14.269  0.00  0.00    -0.081 A 
ATOM      3  C3  FBV d          17.451   5.730  14.816  0.00  0.00    -0.057 A 
ATOM      4  C4  FBV d          16.511   4.811  15.366  0.00  0.00     0.117 A 
ATOM      5  C5  FBV d          15.135   5.207  15.258  0.00  0.00     0.139 A 
ATOM      6  C6  FBV d          14.700   6.377  14.701  0.00  0.00    -0.044 A 
ATOM      7  F   FBV d          14.243   4.302  15.720  0.00  0.00    -0.204 F 
ATOM      8  H1  FBV d          15.311   8.184  13.775  0.00  0.00     0.083 H 
ATOM      9  H2  FBV d          17.704   7.651  13.879  0.00  0.00     0.083 H 
ATOM     10  H3  FBV d          18.510   5.501  14.821  0.00  0.00     0.086 H 
ATOM     11  H4  FBV d          13.642   6.610  14.650  0.00  0.00     0.088 H 
ENDROOT
BRANCH   4  12
ATOM     12  S   FBV d          17.004   3.279  16.077  0.00  0.00     0.259 S 
ATOM     13  O1  FBV d          18.472   3.374  16.190  0.00  0.00    -0.201 OA
ATOM     14  O2  FBV d          16.220   3.166  17.258  0.00  0.00    -0.201 OA
BRANCH  12  15
ATOM     15  N2  FBV d          16.588   2.117  15.055  0.00  0.00    -0.324 N 
ATOM     16  H5  FBV d          16.715   1.158  15.310  0.00  0.00     0.169 HD
ATOM     17  H6  FBV d          16.201   2.349  14.163  0.00  0.00     0.169 HD
ENDBRANCH  12  15
ENDBRANCH   4  12
TORSDOF 2
ENDMDL
MODEL 6
REMARK VINA RESULT:      -5.4      2.641      3.447
REMARK  2 active torsions:
REMARK  status: ('A' for Active; 'I' for Inactive)
REMARK    1  A    between atoms: C4_4  and  S_7 
REMARK    2  A    between atoms: S_7  and  N2_8 
ROOT
ATOM      1  C1  FBV d          14.311   2.854  17.370  0.00  0.00    -0.080 A 
ATOM      2  C2  FBV d          15.450   2.242  16.857  0.00  0.00    -0.081 A 
ATOM      3  C3  FBV d          16.286   2.887  15.931  0.00  0.00    -0.057 A 
ATOM      4  C4  FBV d          15.937   4.190  15.472  0.00  0.00     0.117 A 
ATOM      5  C5  FBV d          14.750   4.747  16.059  0.00  0.00     0.139 A 
ATOM      6  C6  FBV d          13.961   4.112  16.977  0.00  0.00    -0.044 A 
ATOM      7  F   FBV d          14.460   6.009  15.672  0.00  0.00    -0.204 F 
ATOM      8  H1  FBV d          13.695   2.326  18.089  0.00  0.00     0.083 H 
ATOM      9  H2  FBV d          15.700   1.238  17.182  0.00  0.00     0.083 H 
ATOM     10  H3  FBV d          17.185   2.401  15.570  0.00  0.00     0.086 H 
ATOM     11  H4  FBV d          13.079   4.595  17.382  0.00  0.00     0.088 H 
ENDROOT
BRANCH   4  12
ATOM     12  S   FBV d          16.922   5.070  14.310  0.00  0.00     0.259 S 
ATOM     13  O1  FBV d          15.985   5.451  13.236  0.00  0.00    -0.201 OA
ATOM     14  O2  FBV d          17.555   6.087  15.077  0.00  0.00    -0.201 OA
BRANCH  12  15
ATOM     15  N2  FBV d          18.036   4.059  13.757  0.00  0.00    -0.324 N 
ATOM     16  H5  FBV d          17.779   3.131  13.487  0.00  0.00     0.169 HD
ATOM     17  H6  FBV d          18.988   4.355  13.684  0.00  0.00     0.169 HD
ENDBRANCH  12  15
ENDBRANCH   4  12
TORSDOF 2
ENDMDL
MODEL 7
REMARK VINA RESULT:      -5.3      2.695      3.313
REMARK  2 active torsions:
REMARK  status: ('A' for Active; 'I' for Inactive)
REMARK    1  A    between atoms: C4_4  and  S_7 
REMARK    2  A    between atoms: S_7  and  N2_8 
ROOT
ATOM      1  C1  FBV d          14.286   3.070  17.259  0.00  0.00    -0.080 A 
ATOM      2  C2  FBV d          15.603   2.620  17.274  0.00  0.00    -0.081 A 
ATOM      3  C3  FBV d          16.610   3.248  16.522  0.00  0.00    -0.057 A 
ATOM      4  C4  FBV d          16.266   4.352  15.688  0.00  0.00     0.117 A 
ATOM      5  C5  FBV d          14.888   4.752  15.741  0.00  0.00     0.139 A 
ATOM      6  C6  FBV d          13.926   4.142  16.497  0.00  0.00    -0.044 A 
ATOM      7  F   FBV d          14.580   5.840  15.001  0.00  0.00    -0.204 F 
ATOM      8  H1  FBV d          13.540   2.564  17.860  0.00  0.00     0.083 H 
ATOM      9  H2  FBV d          15.859   1.761  17.883  0.00  0.00     0.083 H 
ATOM     10  H3  FBV d          17.634   2.898  16.574  0.00  0.00     0.086 H 
ATOM     11  H4  FBV d          12.903   4.500  16.491  0.00  0.00     0.088 H 
ENDROOT
BRANCH   4  12
ATOM     12  S   FBV d          17.461   5.194  14.709  0.00  0.00     0.259 S 
ATOM     13  O1  FBV d          18.761   4.807  15.289  0.00  0.00    -0.201 OA
ATOM     14  O2  FBV d          17.154   4.816  13.371  0.00  0.00    -0.201 OA
BRANCH  12  15
ATOM     15  N2  FBV d          17.207   6.766  14.883  0.00  0.00    -0.324 N 
ATOM     16  H5  FBV d          17.879   7.422  14.538  0.00  0.00     0.169 HD
ATOM     17  H6  FBV d          16.377   7.092  15.335  0.00  0.00     0.169 HD
ENDBRANCH  12  15
ENDBRANCH   4  12
TORSDOF 2
ENDMDL
MODEL 8
REMARK VINA RESULT:      -5.1      3.039      3.607
REMARK  2 active torsions:
REMARK  status: ('A' for Active; 'I' for Inactive)
REMARK    1  A    between atoms: C4_4  and  S_7 
REMARK    2  A    between atoms: S_7  and  N2_8 
ROOT
ATOM      1  C1  FBV d          15.043   2.473  17.374  0.00  0.00    -0.080 A 
ATOM      2  C2  FBV d          14.139   3.530  17.334  0.00  0.00    -0.081 A 
ATOM      3  C3  FBV d          14.335   4.642  16.496  0.00  0.00    -0.057 A 
ATOM      4  C4  FBV d          15.511   4.708  15.695  0.00  0.00     0.117 A 
ATOM      5  C5  FBV d          16.383   3.571  15.795  0.00  0.00     0.139 A 
ATOM      6  C6  FBV d          16.165   2.487  16.600  0.00  0.00    -0.044 A 
ATOM      7  F   FBV d          17.463   3.607  14.984  0.00  0.00    -0.204 F 
ATOM      8  H1  FBV d          14.853   1.630  18.028  0.00  0.00     0.083 H 
ATOM      9  H2  FBV d          13.260   3.496  17.967  0.00  0.00     0.083 H 
ATOM     10  H3  FBV d          13.600   5.438  16.460  0.00  0.00     0.086 H 
ATOM     11  H4  FBV d          16.866   1.660  16.622  0.00  0.00     0.088 H 
ENDROOT
BRANCH   4  12
ATOM     12  S   FBV d          15.839   6.063  14.623  0.00  0.00     0.259 S 
ATOM     13  O1  FBV d          15.781   5.489  13.265  0.00  0.00    -0.201 OA
ATOM     14  O2  FBV d          14.892   7.055  15.002  0.00  0.00    -0.201 OA
BRANCH  12  15
ATOM     15  N2  FBV d          17.316   6.593  14.952  0.00  0.00    -0.324 N 
ATOM     16  H5  FBV d          18.093   6.276  14.409  0.00  0.00     0.169 HD
ATOM     17  H6  FBV d          17.460   7.241  15.700  0.00  0.00     0.169 HD
ENDBRANCH  12  15
ENDBRANCH   4  12
TORSDOF 2
ENDMDL
MODEL 9
REMARK VINA RESULT:      -4.4      2.318      3.018
REMARK  2 active torsions:
REMARK  status: ('A' for Active; 'I' for Inactive)
REMARK    1  A    between atoms: C4_4  and  S_7 
REMARK    2  A    between atoms: S_7  and  N2_8 
ROOT
ATOM      1  C1  FBV d          17.262   4.490  13.272  0.00  0.00    -0.080 A 
ATOM      2  C2  FBV d          17.309   3.173  13.719  0.00  0.00    -0.081 A 
ATOM      3  C3  FBV d          16.618   2.755  14.868  0.00  0.00    -0.057 A 
ATOM      4  C4  FBV d          15.881   3.714  15.622  0.00  0.00     0.117 A 
ATOM      5  C5  FBV d          15.883   5.046  15.084  0.00  0.00     0.139 A 
ATOM      6  C6  FBV d          16.544   5.430  13.950  0.00  0.00    -0.044 A 
ATOM      7  F   FBV d          15.129   5.938  15.764  0.00  0.00    -0.204 F 
ATOM      8  H1  FBV d          17.803   4.772  12.376  0.00  0.00     0.083 H 
ATOM      9  H2  FBV d          17.895   2.449  13.164  0.00  0.00     0.083 H 
ATOM     10  H3  FBV d          16.645   1.717  15.179  0.00  0.00     0.086 H 
ATOM     11  H4  FBV d          16.498   6.454  13.599  0.00  0.00     0.088 H 
ENDROOT
BRANCH   4  12
ATOM     12  S   FBV d          14.992   3.281  17.076  0.00  0.00     0.259 S 
ATOM     13  O1  FBV d          15.826   2.258  17.735  0.00  0.00    -0.201 OA
ATOM     14  O2  FBV d          14.760   4.521  17.735  0.00  0.00    -0.201 OA
BRANCH  12  15
ATOM     15  N2  FBV d          13.588   2.659  16.617  0.00  0.00    -0.324 N 
ATOM     16  H5  FBV d          12.872   2.487  17.294  0.00  0.00     0.169 HD
ATOM     17  H6  FBV d          13.428   2.442  15.654  0.00  0.00     0.169 HD
ENDBRANCH  12  15
ENDBRANCH   4  12
TORSDOF 2
ENDMDL
MODEL 10
REMARK VINA RESULT:      -3.4      3.534      4.264
REMARK  2 active torsions:
REMARK  status: ('A' for Active; 'I' for Inactive)
REMARK    1  A    between atoms: C4_4  and  S_7 
REMARK    2  A    between atoms: S_7  and  N2_8 
ROOT
ATOM      1  C1  FBV d          16.695   2.378  15.738  0.00  0.00    -0.080 A 
ATOM      2  C2  FBV d          17.265   2.973  14.617  0.00  0.00    -0.081 A 
ATOM      3  C3  FBV d          16.949   4.288  14.233  0.00  0.00    -0.057 A 
ATOM      4  C4  FBV d          15.989   5.019  14.990  0.00  0.00     0.117 A 
ATOM      5  C5  FBV d          15.459   4.330  16.133  0.00  0.00     0.139 A 
ATOM      6  C6  FBV d          15.794   3.058  16.503  0.00  0.00    -0.044 A 
ATOM      7  F   FBV d          14.599   5.051  16.886  0.00  0.00    -0.204 F 
ATOM      8  H1  FBV d          16.970   1.365  16.005  0.00  0.00     0.083 H 
ATOM      9  H2  FBV d          17.972   2.406  14.022  0.00  0.00     0.083 H 
ATOM     10  H3  FBV d          17.430   4.739  13.373  0.00  0.00     0.086 H 
ATOM     11  H4  FBV d          15.356   2.600  17.383  0.00  0.00     0.088 H 
ENDROOT
BRANCH   4  12
ATOM     12  S   FBV d          15.530   6.667  14.579  0.00  0.00     0.259 S 
ATOM     13  O1  FBV d          14.535   6.521  13.500  0.00  0.00    -0.201 OA
ATOM     14  O2  FBV d          15.136   7.246  15.817  0.00  0.00    -0.201 OA
BRANCH  12  15
ATOM     15  N2  FBV d          16.842   7.414  14.042  0.00  0.00    -0.324 N 
ATOM     16  H5  FBV d          17.213   7.188  13.142  0.00  0.00     0.169 HD
ATOM     17  H6  FBV d          17.290   8.107  14.608  0.00  0.00     0.169 HD
ENDBRANCH  12  15
ENDBRANCH   4  12
TORSDOF 2
ENDMDL
