MODEL 1
REMARK VINA RESULT:     -10.5      0.000      0.000
REMARK  15 active torsions:
REMARK  status: ('A' for Active; 'I' for Inactive)
REMARK    1  A    between atoms: C10_11  and  N17_7 
REMARK    2  A    between atoms: N17_7  and  C24_8 
REMARK    3  A    between atoms: C24_8  and  C63_13 
REMARK    4  A    between atoms: C63_13  and  C64_28 
REMARK    5  A    between atoms: N40_26  and  C37_23 
REMARK    6  A    between atoms: C41_27  and  N40_26 
REMARK    7  A    between atoms: C72_36  and  C41_27 
REMARK    8  A    between atoms: C64_28  and  C65_29 
REMARK    9  A    between atoms: C65_29  and  C66_30 
REMARK   10  A    between atoms: C66_30  and  C67_31 
REMARK   11  A    between atoms: C67_31  and  C68_32 
REMARK   12  A    between atoms: C68_32  and  C69_33 
REMARK   13  A    between atoms: C69_33  and  C70_34 
REMARK   14  A    between atoms: C70_34  and  C71_35 
REMARK   15  A    between atoms: C71_35  and  C72_36 
ROOT
ATOM      1  C67 E12 d           4.448  63.100  70.170  0.00  0.00    -0.065 C 
ATOM      2  H37 E12 d           5.226  62.327  70.087  0.00  0.00     0.033 H 
ATOM      3  H38 E12 d           4.016  63.079  71.181  0.00  0.00     0.033 H 
ENDROOT
BRANCH   1   4
ATOM      4  C66 E12 d           3.353  62.791  69.173  0.00  0.00    -0.065 C 
ATOM      5  H35 E12 d           2.855  63.727  68.881  0.00  0.00     0.033 H 
ATOM      6  H36 E12 d           3.798  62.320  68.284  0.00  0.00     0.033 H 
BRANCH   4   7
ATOM      7  C65 E12 d           2.334  61.854  69.771  0.00  0.00    -0.065 C 
ATOM      8  H33 E12 d           1.951  61.192  68.981  0.00  0.00     0.033 H 
ATOM      9  H34 E12 d           2.821  61.250  70.552  0.00  0.00     0.033 H 
BRANCH   7  10
ATOM     10  C64 E12 d           1.166  62.609  70.389  0.00  0.00    -0.064 C 
ATOM     11  H31 E12 d           0.767  63.325  69.656  0.00  0.00     0.033 H 
ATOM     12  H32 E12 d           0.379  61.894  70.669  0.00  0.00     0.033 H 
BRANCH  10  13
ATOM     13  C63 E12 d           1.620  63.357  71.620  0.00  0.00    -0.043 C 
ATOM     14  H15 E12 d           2.683  63.138  71.802  0.00  0.00     0.035 H 
ATOM     15  H16 E12 d           1.492  64.436  71.453  0.00  0.00     0.035 H 
BRANCH  13  16
ATOM     16  C24 E12 d           0.802  62.937  72.856  0.00  0.00     0.083 C 
ATOM     17  H7  E12 d           0.188  63.776  73.216  0.00  0.00     0.075 H 
ATOM     18  H8  E12 d           0.152  62.082  72.618  0.00  0.00     0.075 H 
BRANCH  16  19
ATOM     19  N17 E12 d           1.853  62.545  73.906  0.00  0.00    -0.067 N 
ATOM     20  H5  E12 d           2.749  62.792  73.518  0.00  0.00     0.277 HD
ATOM     21  H6  E12 d           1.669  63.112  74.718  0.00  0.00     0.277 HD
BRANCH  19  22
ATOM     22  C10 E12 d           1.980  61.123  74.398  0.00  0.00     0.129 C 
ATOM     23  C4  E12 d           2.550  60.221  73.283  0.00  0.00    -0.005 A 
ATOM     24  C3  E12 d           1.870  59.104  72.834  0.00  0.00     0.020 A 
ATOM     25  C5  E12 d           3.909  60.469  72.718  0.00  0.00    -0.068 A 
ATOM     26  N2  E12 d           2.430  58.308  71.874  0.00  0.00    -0.327 N 
ATOM     27  C9  E12 d           0.488  58.691  73.356  0.00  0.00    -0.026 C 
ATOM     28  C1  E12 d           3.671  58.453  71.275  0.00  0.00     0.245 A 
ATOM     29  H1  E12 d           1.879  57.531  71.568  0.00  0.00     0.169 HD
ATOM     30  C6  E12 d           4.460  59.648  71.760  0.00  0.00    -0.017 A 
ATOM     31  O7  E12 d           4.048  57.665  70.386  0.00  0.00    -0.268 OA
ATOM     32  H9  E12 d           5.449  59.857  71.356  0.00  0.00     0.092 H 
ATOM     33  C14 E12 d          -0.269  59.898  73.939  0.00  0.00    -0.058 C 
ATOM     34  H10 E12 d           0.614  57.932  74.143  0.00  0.00     0.042 H 
ATOM     35  H11 E12 d          -0.096  58.266  72.527  0.00  0.00     0.042 H 
ATOM     36  C13 E12 d           0.619  60.653  74.979  0.00  0.00    -0.034 C 
ATOM     37  H3  E12 d          -0.535  60.585  73.123  0.00  0.00     0.033 H 
ATOM     38  H4  E12 d          -1.186  59.545  74.433  0.00  0.00     0.033 H 
ATOM     39  H13 E12 d           0.066  61.536  75.334  0.00  0.00     0.036 H 
ATOM     40  H14 E12 d           0.815  59.979  75.826  0.00  0.00     0.036 H 
ATOM     41  H2  E12 d           4.481  61.324  73.074  0.00  0.00     0.084 H 
ATOM     42  H12 E12 d           2.707  61.112  75.225  0.00  0.00     0.092 H 
ENDBRANCH  19  22
ENDBRANCH  16  19
ENDBRANCH  13  16
ENDBRANCH  10  13
ENDBRANCH   7  10
ENDBRANCH   4   7
ENDBRANCH   1   4
BRANCH   1  43
ATOM     43  C68 E12 d           5.087  64.454  69.947  0.00  0.00    -0.065 C 
ATOM     44  H39 E12 d           6.064  64.303  69.465  0.00  0.00     0.033 H 
ATOM     45  H40 E12 d           5.231  64.938  70.924  0.00  0.00     0.033 H 
BRANCH  43  46
ATOM     46  C69 E12 d           4.258  65.378  69.071  0.00  0.00    -0.065 C 
ATOM     47  H41 E12 d           3.578  64.774  68.451  0.00  0.00     0.033 H 
ATOM     48  H42 E12 d           4.929  65.957  68.419  0.00  0.00     0.033 H 
BRANCH  46  49
ATOM     49  C70 E12 d           3.440  66.336  69.919  0.00  0.00    -0.065 C 
ATOM     50  H43 E12 d           4.079  67.190  70.191  0.00  0.00     0.033 H 
ATOM     51  H44 E12 d           3.124  65.808  70.832  0.00  0.00     0.033 H 
BRANCH  49  52
ATOM     52  C71 E12 d           2.195  66.872  69.219  0.00  0.00    -0.064 C 
ATOM     53  H45 E12 d           1.353  66.832  69.925  0.00  0.00     0.033 H 
ATOM     54  H46 E12 d           1.978  66.231  68.352  0.00  0.00     0.033 H 
BRANCH  52  55
ATOM     55  C72 E12 d           2.351  68.324  68.725  0.00  0.00    -0.043 C 
ATOM     56  H47 E12 d           3.375  68.659  68.943  0.00  0.00     0.035 H 
ATOM     57  H48 E12 d           1.634  68.956  69.270  0.00  0.00     0.035 H 
BRANCH  55  58
ATOM     58  C41 E12 d           2.095  68.481  67.222  0.00  0.00     0.083 C 
ATOM     59  H29 E12 d           1.848  69.526  66.986  0.00  0.00     0.075 H 
ATOM     60  H30 E12 d           1.268  67.828  66.907  0.00  0.00     0.075 H 
BRANCH  58  61
ATOM     61  N40 E12 d           3.352  68.085  66.539  0.00  0.00    -0.067 N 
ATOM     62  H27 E12 d           3.693  67.260  67.007  0.00  0.00     0.277 HD
ATOM     63  H28 E12 d           4.007  68.840  66.667  0.00  0.00     0.277 HD
BRANCH  61  64
ATOM     64  C37 E12 d           3.323  67.771  65.056  0.00  0.00     0.129 C 
ATOM     65  C38 E12 d           4.107  68.884  64.330  0.00  0.00    -0.034 C 
ATOM     66  C39 E12 d           4.283  68.548  62.845  0.00  0.00    -0.058 C 
ATOM     67  H23 E12 d           5.099  68.989  64.796  0.00  0.00     0.036 H 
ATOM     68  H24 E12 d           3.556  69.832  64.422  0.00  0.00     0.036 H 
ATOM     69  C36 E12 d           5.114  67.261  62.686  0.00  0.00    -0.026 C 
ATOM     70  H25 E12 d           3.294  68.402  62.386  0.00  0.00     0.033 H 
ATOM     71  H26 E12 d           4.801  69.379  62.343  0.00  0.00     0.033 H 
ATOM     72  C31 E12 d           4.553  66.130  63.574  0.00  0.00     0.020 A 
ATOM     73  H20 E12 d           5.084  66.941  61.634  0.00  0.00     0.042 H 
ATOM     74  H21 E12 d           6.154  67.466  62.977  0.00  0.00     0.042 H 
ATOM     75  C32 E12 d           3.742  66.350  64.686  0.00  0.00    -0.005 A 
ATOM     76  N30 E12 d           4.886  64.850  63.239  0.00  0.00    -0.327 N 
ATOM     77  C33 E12 d           3.274  65.173  65.459  0.00  0.00    -0.068 A 
ATOM     78  C34 E12 d           3.614  63.901  65.110  0.00  0.00    -0.017 A 
ATOM     79  H18 E12 d           2.641  65.331  66.331  0.00  0.00     0.084 H 
ATOM     80  C29 E12 d           4.481  63.687  63.886  0.00  0.00     0.245 A 
ATOM     81  H19 E12 d           3.270  63.053  65.701  0.00  0.00     0.092 H 
ATOM     82  O35 E12 d           4.759  62.579  63.408  0.00  0.00    -0.268 OA
ATOM     83  H17 E12 d           5.484  64.736  62.445  0.00  0.00     0.169 HD
ATOM     84  H22 E12 d           2.275  67.858  64.734  0.00  0.00     0.092 H 
ENDBRANCH  61  64
ENDBRANCH  58  61
ENDBRANCH  55  58
ENDBRANCH  52  55
ENDBRANCH  49  52
ENDBRANCH  46  49
ENDBRANCH  43  46
ENDBRANCH   1  43
TORSDOF 15
ENDMDL
MODEL 2
REMARK VINA RESULT:     -10.1      0.514      9.738
REMARK  15 active torsions:
REMARK  status: ('A' for Active; 'I' for Inactive)
REMARK    1  A    between atoms: C10_11  and  N17_7 
REMARK    2  A    between atoms: N17_7  and  C24_8 
REMARK    3  A    between atoms: C24_8  and  C63_13 
REMARK    4  A    between atoms: C63_13  and  C64_28 
REMARK    5  A    between atoms: N40_26  and  C37_23 
REMARK    6  A    between atoms: C41_27  and  N40_26 
REMARK    7  A    between atoms: C72_36  and  C41_27 
REMARK    8  A    between atoms: C64_28  and  C65_29 
REMARK    9  A    between atoms: C65_29  and  C66_30 
REMARK   10  A    between atoms: C66_30  and  C67_31 
REMARK   11  A    between atoms: C67_31  and  C68_32 
REMARK   12  A    between atoms: C68_32  and  C69_33 
REMARK   13  A    between atoms: C69_33  and  C70_34 
REMARK   14  A    between atoms: C70_34  and  C71_35 
REMARK   15  A    between atoms: C71_35  and  C72_36 
ROOT
ATOM      1  C67 E12 d           5.109  64.667  69.679  0.00  0.00    -0.065 C 
ATOM      2  H37 E12 d           5.500  65.178  70.571  0.00  0.00     0.033 H 
ATOM      3  H38 E12 d           5.942  64.408  69.009  0.00  0.00     0.033 H 
ENDROOT
BRANCH   1   4
ATOM      4  C66 E12 d           4.180  65.612  68.950  0.00  0.00    -0.065 C 
ATOM      5  H35 E12 d           4.779  66.339  68.381  0.00  0.00     0.033 H 
ATOM      6  H36 E12 d           3.549  65.036  68.259  0.00  0.00     0.033 H 
BRANCH   4   7
ATOM      7  C65 E12 d           3.299  66.353  69.925  0.00  0.00    -0.065 C 
ATOM      8  H33 E12 d           2.936  65.645  70.686  0.00  0.00     0.033 H 
ATOM      9  H34 E12 d           3.891  67.142  70.411  0.00  0.00     0.033 H 
BRANCH   7  10
ATOM     10  C64 E12 d           2.102  66.989  69.234  0.00  0.00    -0.064 C 
ATOM     11  H31 E12 d           1.681  66.278  68.507  0.00  0.00     0.033 H 
ATOM     12  H32 E12 d           1.339  67.239  69.986  0.00  0.00     0.033 H 
BRANCH  10  13
ATOM     13  C63 E12 d           2.523  68.248  68.514  0.00  0.00    -0.043 C 
ATOM     14  H15 E12 d           2.186  69.122  69.090  0.00  0.00     0.035 H 
ATOM     15  H16 E12 d           3.619  68.265  68.431  0.00  0.00     0.035 H 
BRANCH  13  16
ATOM     16  C24 E12 d           1.910  68.310  67.102  0.00  0.00     0.083 C 
ATOM     17  H7  E12 d           1.047  67.631  67.025  0.00  0.00     0.075 H 
ATOM     18  H8  E12 d           1.593  69.335  66.862  0.00  0.00     0.075 H 
BRANCH  16  19
ATOM     19  N17 E12 d           3.041  67.858  66.165  0.00  0.00    -0.067 N 
ATOM     20  H5  E12 d           3.688  68.628  66.108  0.00  0.00     0.277 HD
ATOM     21  H6  E12 d           3.488  67.075  66.615  0.00  0.00     0.277 HD
BRANCH  19  22
ATOM     22  C10 E12 d           2.762  67.431  64.744  0.00  0.00     0.129 C 
ATOM     23  C4  E12 d           3.434  66.072  64.454  0.00  0.00    -0.005 A 
ATOM     24  C3  E12 d           4.341  65.917  63.422  0.00  0.00     0.020 A 
ATOM     25  C5  E12 d           3.051  64.850  65.219  0.00  0.00    -0.068 A 
ATOM     26  N2  E12 d           4.882  64.687  63.172  0.00  0.00    -0.327 N 
ATOM     27  C9  E12 d           4.794  67.068  62.516  0.00  0.00    -0.026 C 
ATOM     28  C1  E12 d           4.608  63.496  63.825  0.00  0.00     0.245 A 
ATOM     29  H1  E12 d           5.553  64.641  62.432  0.00  0.00     0.169 HD
ATOM     30  C6  E12 d           3.599  63.617  64.944  0.00  0.00    -0.017 A 
ATOM     31  O7  E12 d           5.199  62.443  63.511  0.00  0.00    -0.268 OA
ATOM     32  H9  E12 d           3.309  62.742  65.524  0.00  0.00     0.092 H 
ATOM     33  C14 E12 d           4.616  68.428  63.215  0.00  0.00    -0.058 C 
ATOM     34  H10 E12 d           4.194  67.057  61.594  0.00  0.00     0.042 H 
ATOM     35  H11 E12 d           5.856  66.930  62.264  0.00  0.00     0.042 H 
ATOM     36  C13 E12 d           3.163  68.574  63.772  0.00  0.00    -0.034 C 
ATOM     37  H3  E12 d           5.332  68.503  64.047  0.00  0.00     0.033 H 
ATOM     38  H4  E12 d           4.809  69.235  62.492  0.00  0.00     0.033 H 
ATOM     39  H13 E12 d           3.089  69.531  64.308  0.00  0.00     0.036 H 
ATOM     40  H14 E12 d           2.462  68.573  62.925  0.00  0.00     0.036 H 
ATOM     41  H2  E12 d           2.316  64.935  66.018  0.00  0.00     0.084 H 
ATOM     42  H12 E12 d           1.676  67.282  64.639  0.00  0.00     0.092 H 
ENDBRANCH  19  22
ENDBRANCH  16  19
ENDBRANCH  13  16
ENDBRANCH  10  13
ENDBRANCH   7  10
ENDBRANCH   4   7
ENDBRANCH   1   4
BRANCH   1  43
ATOM     43  C68 E12 d           4.427  63.387  70.117  0.00  0.00    -0.065 C 
ATOM     44  H39 E12 d           3.892  63.582  71.057  0.00  0.00     0.033 H 
ATOM     45  H40 E12 d           5.199  62.621  70.285  0.00  0.00     0.033 H 
BRANCH  43  46
ATOM     46  C69 E12 d           3.433  62.853  69.100  0.00  0.00    -0.065 C 
ATOM     47  H41 E12 d           3.965  62.221  68.372  0.00  0.00     0.033 H 
ATOM     48  H42 E12 d           2.963  63.698  68.576  0.00  0.00     0.033 H 
BRANCH  46  49
ATOM     49  C70 E12 d           2.355  62.028  69.781  0.00  0.00    -0.065 C 
ATOM     50  H43 E12 d           2.836  61.380  70.530  0.00  0.00     0.033 H 
ATOM     51  H44 E12 d           1.861  61.405  69.020  0.00  0.00     0.033 H 
BRANCH  49  52
ATOM     52  C71 E12 d           1.289  62.865  70.483  0.00  0.00    -0.064 C 
ATOM     53  H45 E12 d           0.386  62.249  70.603  0.00  0.00     0.033 H 
ATOM     54  H46 E12 d           1.058  63.736  69.852  0.00  0.00     0.033 H 
BRANCH  52  55
ATOM     55  C72 E12 d           1.726  63.368  71.872  0.00  0.00    -0.043 C 
ATOM     56  H47 E12 d           1.570  64.456  71.914  0.00  0.00     0.035 H 
ATOM     57  H48 E12 d           2.796  63.147  72.003  0.00  0.00     0.035 H 
BRANCH  55  58
ATOM     58  C41 E12 d           0.949  62.719  73.022  0.00  0.00     0.083 C 
ATOM     59  H29 E12 d           0.310  61.909  72.640  0.00  0.00     0.075 H 
ATOM     60  H30 E12 d           0.326  63.468  73.531  0.00  0.00     0.075 H 
BRANCH  58  61
ATOM     61  N40 E12 d           1.964  62.173  73.958  0.00  0.00    -0.067 N 
ATOM     62  H27 E12 d           1.855  62.666  74.830  0.00  0.00     0.277 HD
ATOM     63  H28 E12 d           2.868  62.381  73.565  0.00  0.00     0.277 HD
BRANCH  61  64
ATOM     64  C37 E12 d           1.953  60.692  74.284  0.00  0.00     0.129 C 
ATOM     65  C38 E12 d           0.529  60.332  74.758  0.00  0.00    -0.034 C 
ATOM     66  C39 E12 d           0.379  58.817  74.934  0.00  0.00    -0.058 C 
ATOM     67  H23 E12 d          -0.199  60.682  74.011  0.00  0.00     0.036 H 
ATOM     68  H24 E12 d           0.334  60.827  75.721  0.00  0.00     0.036 H 
ATOM     69  C36 E12 d           0.577  58.103  73.584  0.00  0.00    -0.026 C 
ATOM     70  H25 E12 d           1.134  58.458  75.649  0.00  0.00     0.033 H 
ATOM     71  H26 E12 d          -0.627  58.593  75.319  0.00  0.00     0.033 H 
ATOM     72  C31 E12 d           1.873  58.579  72.893  0.00  0.00     0.020 A 
ATOM     73  H20 E12 d           0.639  57.019  73.755  0.00  0.00     0.042 H 
ATOM     74  H21 E12 d          -0.280  58.322  72.931  0.00  0.00     0.042 H 
ATOM     75  C32 E12 d           2.509  59.784  73.190  0.00  0.00    -0.005 A 
ATOM     76  N30 E12 d           2.408  57.765  71.938  0.00  0.00    -0.327 N 
ATOM     77  C33 E12 d           3.748  60.127  72.447  0.00  0.00    -0.068 A 
ATOM     78  C34 E12 d           4.269  59.301  71.497  0.00  0.00    -0.017 A 
ATOM     79  H18 E12 d           4.254  61.066  72.669  0.00  0.00     0.084 H 
ATOM     80  C29 E12 d           3.570  57.989  71.207  0.00  0.00     0.245 A 
ATOM     81  H19 E12 d           5.172  59.580  70.956  0.00  0.00     0.092 H 
ATOM     82  O35 E12 d           4.010  57.111  70.452  0.00  0.00    -0.268 OA
ATOM     83  H17 E12 d           1.912  56.919  71.742  0.00  0.00     0.169 HD
ATOM     84  H22 E12 d           2.621  60.552  75.146  0.00  0.00     0.092 H 
ENDBRANCH  61  64
ENDBRANCH  58  61
ENDBRANCH  55  58
ENDBRANCH  52  55
ENDBRANCH  49  52
ENDBRANCH  46  49
ENDBRANCH  43  46
ENDBRANCH   1  43
TORSDOF 15
ENDMDL
MODEL 3
REMARK VINA RESULT:     -10.0      2.220      9.622
REMARK  15 active torsions:
REMARK  status: ('A' for Active; 'I' for Inactive)
REMARK    1  A    between atoms: C10_11  and  N17_7 
REMARK    2  A    between atoms: N17_7  and  C24_8 
REMARK    3  A    between atoms: C24_8  and  C63_13 
REMARK    4  A    between atoms: C63_13  and  C64_28 
REMARK    5  A    between atoms: N40_26  and  C37_23 
REMARK    6  A    between atoms: C41_27  and  N40_26 
REMARK    7  A    between atoms: C72_36  and  C41_27 
REMARK    8  A    between atoms: C64_28  and  C65_29 
REMARK    9  A    between atoms: C65_29  and  C66_30 
REMARK   10  A    between atoms: C66_30  and  C67_31 
REMARK   11  A    between atoms: C67_31  and  C68_32 
REMARK   12  A    between atoms: C68_32  and  C69_33 
REMARK   13  A    between atoms: C69_33  and  C70_34 
REMARK   14  A    between atoms: C70_34  and  C71_35 
REMARK   15  A    between atoms: C71_35  and  C72_36 
ROOT
ATOM      1  C67 E12 d           0.450  67.936  66.270  0.00  0.00    -0.065 C 
ATOM      2  H37 E12 d          -0.250  67.193  66.681  0.00  0.00     0.033 H 
ATOM      3  H38 E12 d          -0.109  68.829  65.953  0.00  0.00     0.033 H 
ENDROOT
BRANCH   1   4
ATOM      4  C66 E12 d           1.131  67.339  65.059  0.00  0.00    -0.065 C 
ATOM      5  H35 E12 d           2.182  67.127  65.304  0.00  0.00     0.033 H 
ATOM      6  H36 E12 d           0.623  66.404  64.784  0.00  0.00     0.033 H 
BRANCH   4   7
ATOM      7  C65 E12 d           1.079  68.293  63.892  0.00  0.00    -0.065 C 
ATOM      8  H33 E12 d           0.027  68.523  63.666  0.00  0.00     0.033 H 
ATOM      9  H34 E12 d           1.606  69.219  64.165  0.00  0.00     0.033 H 
BRANCH   7  10
ATOM     10  C64 E12 d           1.732  67.704  62.650  0.00  0.00    -0.064 C 
ATOM     11  H31 E12 d           2.612  67.114  62.947  0.00  0.00     0.033 H 
ATOM     12  H32 E12 d           1.011  67.052  62.135  0.00  0.00     0.033 H 
BRANCH  10  13
ATOM     13  C63 E12 d           2.163  68.807  61.713  0.00  0.00    -0.043 C 
ATOM     14  H15 E12 d           1.511  68.802  60.828  0.00  0.00     0.035 H 
ATOM     15  H16 E12 d           2.073  69.773  62.230  0.00  0.00     0.035 H 
BRANCH  13  16
ATOM     16  C24 E12 d           3.623  68.611  61.264  0.00  0.00     0.083 C 
ATOM     17  H7  E12 d           3.698  68.639  60.167  0.00  0.00     0.075 H 
ATOM     18  H8  E12 d           4.270  69.390  61.695  0.00  0.00     0.075 H 
BRANCH  16  19
ATOM     19  N17 E12 d           4.015  67.225  61.799  0.00  0.00    -0.067 N 
ATOM     20  H5  E12 d           3.167  66.801  62.139  0.00  0.00     0.277 HD
ATOM     21  H6  E12 d           4.360  66.702  61.009  0.00  0.00     0.277 HD
BRANCH  19  22
ATOM     22  C10 E12 d           5.040  67.066  62.897  0.00  0.00     0.129 C 
ATOM     23  C4  E12 d           4.540  66.054  63.950  0.00  0.00    -0.005 A 
ATOM     24  C3  E12 d           4.414  66.397  65.284  0.00  0.00     0.020 A 
ATOM     25  C5  E12 d           4.270  64.634  63.579  0.00  0.00    -0.068 A 
ATOM     26  N2  E12 d           4.008  65.459  66.191  0.00  0.00    -0.327 N 
ATOM     27  C9  E12 d           4.706  67.802  65.825  0.00  0.00    -0.026 C 
ATOM     28  C1  E12 d           3.720  64.125  65.954  0.00  0.00     0.245 A 
ATOM     29  H1  E12 d           3.908  65.772  67.136  0.00  0.00     0.169 HD
ATOM     30  C6  E12 d           3.873  63.702  64.511  0.00  0.00    -0.017 A 
ATOM     31  O7  E12 d           3.330  63.381  66.876  0.00  0.00    -0.268 OA
ATOM     32  H9  E12 d           3.672  62.674  64.212  0.00  0.00     0.092 H 
ATOM     33  C14 E12 d           4.568  68.864  64.718  0.00  0.00    -0.058 C 
ATOM     34  H10 E12 d           5.732  67.828  66.222  0.00  0.00     0.042 H 
ATOM     35  H11 E12 d           3.995  68.031  66.632  0.00  0.00     0.042 H 
ATOM     36  C13 E12 d           5.411  68.463  63.465  0.00  0.00    -0.034 C 
ATOM     37  H3  E12 d           3.510  68.950  64.430  0.00  0.00     0.033 H 
ATOM     38  H4  E12 d           4.924  69.832  65.099  0.00  0.00     0.033 H 
ATOM     39  H13 E12 d           5.247  69.215  62.678  0.00  0.00     0.036 H 
ATOM     40  H14 E12 d           6.474  68.454  63.747  0.00  0.00     0.036 H 
ATOM     41  H2  E12 d           4.389  64.327  62.542  0.00  0.00     0.084 H 
ATOM     42  H12 E12 d           5.953  66.643  62.452  0.00  0.00     0.092 H 
ENDBRANCH  19  22
ENDBRANCH  16  19
ENDBRANCH  13  16
ENDBRANCH  10  13
ENDBRANCH   7  10
ENDBRANCH   4   7
ENDBRANCH   1   4
BRANCH   1  43
ATOM     43  C68 E12 d           1.422  68.337  67.360  0.00  0.00    -0.065 C 
ATOM     44  H39 E12 d           1.139  69.333  67.729  0.00  0.00     0.033 H 
ATOM     45  H40 E12 d           2.432  68.379  66.927  0.00  0.00     0.033 H 
BRANCH  43  46
ATOM     46  C69 E12 d           1.442  67.376  68.536  0.00  0.00    -0.065 C 
ATOM     47  H41 E12 d           1.186  66.366  68.182  0.00  0.00     0.033 H 
ATOM     48  H42 E12 d           0.701  67.701  69.281  0.00  0.00     0.033 H 
BRANCH  46  49
ATOM     49  C70 E12 d           2.816  67.344  69.183  0.00  0.00    -0.065 C 
ATOM     50  H43 E12 d           2.850  68.121  69.961  0.00  0.00     0.033 H 
ATOM     51  H44 E12 d           3.568  67.563  68.411  0.00  0.00     0.033 H 
BRANCH  49  52
ATOM     52  C71 E12 d           3.163  66.004  69.826  0.00  0.00    -0.064 C 
ATOM     53  H45 E12 d           2.537  65.224  69.368  0.00  0.00     0.033 H 
ATOM     54  H46 E12 d           2.945  66.066  70.902  0.00  0.00     0.033 H 
BRANCH  52  55
ATOM     55  C72 E12 d           4.642  65.610  69.650  0.00  0.00    -0.043 C 
ATOM     56  H47 E12 d           5.267  66.355  70.163  0.00  0.00     0.035 H 
ATOM     57  H48 E12 d           4.878  65.611  68.576  0.00  0.00     0.035 H 
BRANCH  55  58
ATOM     58  C41 E12 d           4.969  64.224  70.219  0.00  0.00     0.083 C 
ATOM     59  H29 E12 d           4.909  64.241  71.317  0.00  0.00     0.075 H 
ATOM     60  H30 E12 d           5.979  63.916  69.912  0.00  0.00     0.075 H 
BRANCH  58  61
ATOM     61  N40 E12 d           3.956  63.292  69.664  0.00  0.00    -0.067 N 
ATOM     62  H27 E12 d           4.350  62.896  68.825  0.00  0.00     0.277 HD
ATOM     63  H28 E12 d           3.147  63.844  69.427  0.00  0.00     0.277 HD
BRANCH  61  64
ATOM     64  C37 E12 d           3.469  62.135  70.513  0.00  0.00     0.129 C 
ATOM     65  C38 E12 d           4.706  61.489  71.171  0.00  0.00    -0.034 C 
ATOM     66  C39 E12 d           4.288  60.424  72.192  0.00  0.00    -0.058 C 
ATOM     67  H23 E12 d           5.291  62.268  71.683  0.00  0.00     0.036 H 
ATOM     68  H24 E12 d           5.325  61.018  70.393  0.00  0.00     0.036 H 
ATOM     69  C36 E12 d           3.480  61.069  73.333  0.00  0.00    -0.026 C 
ATOM     70  H25 E12 d           3.669  59.665  71.692  0.00  0.00     0.033 H 
ATOM     71  H26 E12 d           5.188  59.947  72.609  0.00  0.00     0.033 H 
ATOM     72  C31 E12 d           2.345  61.953  72.773  0.00  0.00     0.020 A 
ATOM     73  H20 E12 d           3.044  60.277  73.958  0.00  0.00     0.042 H 
ATOM     74  H21 E12 d           4.151  61.690  73.943  0.00  0.00     0.042 H 
ATOM     75  C32 E12 d           2.336  62.471  71.478  0.00  0.00    -0.005 A 
ATOM     76  N30 E12 d           1.303  62.236  73.607  0.00  0.00    -0.327 N 
ATOM     77  C33 E12 d           1.185  63.313  71.066  0.00  0.00    -0.068 A 
ATOM     78  C34 E12 d           0.152  63.585  71.912  0.00  0.00    -0.017 A 
ATOM     79  H18 E12 d           1.166  63.725  70.058  0.00  0.00     0.084 H 
ATOM     80  C29 E12 d           0.176  62.993  73.307  0.00  0.00     0.245 A 
ATOM     81  H19 E12 d          -0.676  64.216  71.592  0.00  0.00     0.092 H 
ATOM     82  O35 E12 d          -0.754  63.076  74.120  0.00  0.00    -0.268 OA
ATOM     83  H17 E12 d           1.357  61.860  74.533  0.00  0.00     0.169 HD
ATOM     84  H22 E12 d           3.050  61.389  69.822  0.00  0.00     0.092 H 
ENDBRANCH  61  64
ENDBRANCH  58  61
ENDBRANCH  55  58
ENDBRANCH  52  55
ENDBRANCH  49  52
ENDBRANCH  46  49
ENDBRANCH  43  46
ENDBRANCH   1  43
TORSDOF 15
ENDMDL
MODEL 4
REMARK VINA RESULT:     -10.0      1.654      2.908
REMARK  15 active torsions:
REMARK  status: ('A' for Active; 'I' for Inactive)
REMARK    1  A    between atoms: C10_11  and  N17_7 
REMARK    2  A    between atoms: N17_7  and  C24_8 
REMARK    3  A    between atoms: C24_8  and  C63_13 
REMARK    4  A    between atoms: C63_13  and  C64_28 
REMARK    5  A    between atoms: N40_26  and  C37_23 
REMARK    6  A    between atoms: C41_27  and  N40_26 
REMARK    7  A    between atoms: C72_36  and  C41_27 
REMARK    8  A    between atoms: C64_28  and  C65_29 
REMARK    9  A    between atoms: C65_29  and  C66_30 
REMARK   10  A    between atoms: C66_30  and  C67_31 
REMARK   11  A    between atoms: C67_31  and  C68_32 
REMARK   12  A    between atoms: C68_32  and  C69_33 
REMARK   13  A    between atoms: C69_33  and  C70_34 
REMARK   14  A    between atoms: C70_34  and  C71_35 
REMARK   15  A    between atoms: C71_35  and  C72_36 
ROOT
ATOM      1  C67 E12 d           4.163  63.256  70.321  0.00  0.00    -0.065 C 
ATOM      2  H37 E12 d           3.315  63.624  70.918  0.00  0.00     0.033 H 
ATOM      3  H38 E12 d           3.784  62.713  69.443  0.00  0.00     0.033 H 
ENDROOT
BRANCH   1   4
ATOM      4  C66 E12 d           4.970  62.298  71.168  0.00  0.00    -0.065 C 
ATOM      5  H35 E12 d           5.965  62.169  70.719  0.00  0.00     0.033 H 
ATOM      6  H36 E12 d           5.076  62.714  72.181  0.00  0.00     0.033 H 
BRANCH   4   7
ATOM      7  C65 E12 d           4.288  60.956  71.254  0.00  0.00    -0.065 C 
ATOM      8  H33 E12 d           4.969  60.240  71.737  0.00  0.00     0.033 H 
ATOM      9  H34 E12 d           3.374  61.058  71.858  0.00  0.00     0.033 H 
BRANCH   7  10
ATOM     10  C64 E12 d           3.911  60.424  69.878  0.00  0.00    -0.064 C 
ATOM     11  H31 E12 d           3.082  61.022  69.471  0.00  0.00     0.033 H 
ATOM     12  H32 E12 d           4.781  60.501  69.209  0.00  0.00     0.033 H 
BRANCH  10  13
ATOM     13  C63 E12 d           3.484  58.979  69.976  0.00  0.00    -0.043 C 
ATOM     14  H15 E12 d           2.409  58.907  69.754  0.00  0.00     0.035 H 
ATOM     15  H16 E12 d           4.050  58.386  69.242  0.00  0.00     0.035 H 
BRANCH  13  16
ATOM     16  C24 E12 d           3.746  58.419  71.386  0.00  0.00     0.083 C 
ATOM     17  H7  E12 d           4.595  57.720  71.373  0.00  0.00     0.075 H 
ATOM     18  H8  E12 d           3.953  59.234  72.095  0.00  0.00     0.075 H 
BRANCH  16  19
ATOM     19  N17 E12 d           2.448  57.688  71.764  0.00  0.00    -0.067 N 
ATOM     20  H5  E12 d           1.797  57.858  71.014  0.00  0.00     0.277 HD
ATOM     21  H6  E12 d           2.673  56.706  71.797  0.00  0.00     0.277 HD
BRANCH  19  22
ATOM     22  C10 E12 d           1.713  58.001  73.045  0.00  0.00     0.129 C 
ATOM     23  C4  E12 d           1.583  59.529  73.226  0.00  0.00    -0.005 A 
ATOM     24  C3  E12 d           2.072  60.171  74.349  0.00  0.00     0.020 A 
ATOM     25  C5  E12 d           0.833  60.355  72.236  0.00  0.00    -0.068 A 
ATOM     26  N2  E12 d           1.899  61.520  74.489  0.00  0.00    -0.327 N 
ATOM     27  C9  E12 d           2.819  59.448  75.476  0.00  0.00    -0.026 C 
ATOM     28  C1  E12 d           1.234  62.379  73.630  0.00  0.00     0.245 A 
ATOM     29  H1  E12 d           2.299  61.934  75.307  0.00  0.00     0.169 HD
ATOM     30  C6  E12 d           0.659  61.711  72.402  0.00  0.00    -0.017 A 
ATOM     31  O7  E12 d           1.175  63.602  73.868  0.00  0.00    -0.268 OA
ATOM     32  H9  E12 d           0.116  62.293  71.659  0.00  0.00     0.092 H 
ATOM     33  C14 E12 d           3.458  58.142  74.971  0.00  0.00    -0.058 C 
ATOM     34  H10 E12 d           2.110  59.213  76.284  0.00  0.00     0.042 H 
ATOM     35  H11 E12 d           3.610  60.108  75.863  0.00  0.00     0.042 H 
ATOM     36  C13 E12 d           2.399  57.265  74.228  0.00  0.00    -0.034 C 
ATOM     37  H3  E12 d           4.277  58.384  74.279  0.00  0.00     0.033 H 
ATOM     38  H4  E12 d           3.856  57.579  75.828  0.00  0.00     0.033 H 
ATOM     39  H13 E12 d           2.900  56.367  73.837  0.00  0.00     0.036 H 
ATOM     40  H14 E12 d           1.624  56.966  74.949  0.00  0.00     0.036 H 
ATOM     41  H2  E12 d           0.410  59.872  71.356  0.00  0.00     0.084 H 
ATOM     42  H12 E12 d           0.692  57.599  72.960  0.00  0.00     0.092 H 
ENDBRANCH  19  22
ENDBRANCH  16  19
ENDBRANCH  13  16
ENDBRANCH  10  13
ENDBRANCH   7  10
ENDBRANCH   4   7
ENDBRANCH   1   4
BRANCH   1  43
ATOM     43  C68 E12 d           4.967  64.446  69.842  0.00  0.00    -0.065 C 
ATOM     44  H39 E12 d           5.358  64.221  68.839  0.00  0.00     0.033 H 
ATOM     45  H40 E12 d           5.806  64.602  70.537  0.00  0.00     0.033 H 
BRANCH  43  46
ATOM     46  C69 E12 d           4.161  65.732  69.767  0.00  0.00    -0.065 C 
ATOM     47  H41 E12 d           4.301  66.189  68.776  0.00  0.00     0.033 H 
ATOM     48  H42 E12 d           4.514  66.425  70.544  0.00  0.00     0.033 H 
BRANCH  46  49
ATOM     49  C70 E12 d           2.683  65.455  69.983  0.00  0.00    -0.065 C 
ATOM     50  H43 E12 d           2.533  65.173  71.036  0.00  0.00     0.033 H 
ATOM     51  H44 E12 d           2.389  64.617  69.333  0.00  0.00     0.033 H 
BRANCH  49  52
ATOM     52  C71 E12 d           1.781  66.645  69.671  0.00  0.00    -0.064 C 
ATOM     53  H45 E12 d           1.315  66.985  70.608  0.00  0.00     0.033 H 
ATOM     54  H46 E12 d           0.998  66.316  68.971  0.00  0.00     0.033 H 
BRANCH  52  55
ATOM     55  C72 E12 d           2.533  67.832  69.040  0.00  0.00    -0.043 C 
ATOM     56  H47 E12 d           3.614  67.651  69.135  0.00  0.00     0.035 H 
ATOM     57  H48 E12 d           2.265  68.747  69.589  0.00  0.00     0.035 H 
BRANCH  55  58
ATOM     58  C41 E12 d           2.202  68.038  67.558  0.00  0.00     0.083 C 
ATOM     59  H29 E12 d           1.842  69.063  67.387  0.00  0.00     0.075 H 
ATOM     60  H30 E12 d           1.432  67.321  67.237  0.00  0.00     0.075 H 
BRANCH  58  61
ATOM     61  N40 E12 d           3.463  67.806  66.810  0.00  0.00    -0.067 N 
ATOM     62  H27 E12 d           3.888  66.979  67.199  0.00  0.00     0.277 HD
ATOM     63  H28 E12 d           4.057  68.602  66.982  0.00  0.00     0.277 HD
BRANCH  61  64
ATOM     64  C37 E12 d           3.409  67.610  65.307  0.00  0.00     0.129 C 
ATOM     65  C38 E12 d           4.167  68.787  64.658  0.00  0.00    -0.034 C 
ATOM     66  C39 E12 d           4.319  68.572  63.148  0.00  0.00    -0.058 C 
ATOM     67  H23 E12 d           5.166  68.867  65.113  0.00  0.00     0.036 H 
ATOM     68  H24 E12 d           3.608  69.718  64.835  0.00  0.00     0.036 H 
ATOM     69  C36 E12 d           5.160  67.312  62.872  0.00  0.00    -0.026 C 
ATOM     70  H25 E12 d           3.323  68.450  62.697  0.00  0.00     0.033 H 
ATOM     71  H26 E12 d           4.818  69.446  62.705  0.00  0.00     0.033 H 
ATOM     72  C31 E12 d           4.629  66.107  63.677  0.00  0.00     0.020 A 
ATOM     73  H20 E12 d           5.114  67.076  61.799  0.00  0.00     0.042 H 
ATOM     74  H21 E12 d           6.204  67.506  63.160  0.00  0.00     0.042 H 
ATOM     75  C32 E12 d           3.836  66.229  64.818  0.00  0.00    -0.005 A 
ATOM     76  N30 E12 d           4.969  64.862  63.236  0.00  0.00    -0.327 N 
ATOM     77  C33 E12 d           3.396  64.988  65.504  0.00  0.00    -0.068 A 
ATOM     78  C34 E12 d           3.743  63.752  65.049  0.00  0.00    -0.017 A 
ATOM     79  H18 E12 d           2.778  65.069  66.397  0.00  0.00     0.084 H 
ATOM     80  C29 E12 d           4.589  63.646  63.796  0.00  0.00     0.245 A 
ATOM     81  H19 E12 d           3.419  62.856  65.576  0.00  0.00     0.092 H 
ATOM     82  O35 E12 d           4.870  62.583  63.227  0.00  0.00    -0.268 OA
ATOM     83  H17 E12 d           5.553  64.818  62.425  0.00  0.00     0.169 HD
ATOM     84  H22 E12 d           2.354  67.709  65.013  0.00  0.00     0.092 H 
ENDBRANCH  61  64
ENDBRANCH  58  61
ENDBRANCH  55  58
ENDBRANCH  52  55
ENDBRANCH  49  52
ENDBRANCH  46  49
ENDBRANCH  43  46
ENDBRANCH   1  43
TORSDOF 15
ENDMDL
MODEL 5
REMARK VINA RESULT:     -10.0      1.842      9.835
REMARK  15 active torsions:
REMARK  status: ('A' for Active; 'I' for Inactive)
REMARK    1  A    between atoms: C10_11  and  N17_7 
REMARK    2  A    between atoms: N17_7  and  C24_8 
REMARK    3  A    between atoms: C24_8  and  C63_13 
REMARK    4  A    between atoms: C63_13  and  C64_28 
REMARK    5  A    between atoms: N40_26  and  C37_23 
REMARK    6  A    between atoms: C41_27  and  N40_26 
REMARK    7  A    between atoms: C72_36  and  C41_27 
REMARK    8  A    between atoms: C64_28  and  C65_29 
REMARK    9  A    between atoms: C65_29  and  C66_30 
REMARK   10  A    between atoms: C66_30  and  C67_31 
REMARK   11  A    between atoms: C67_31  and  C68_32 
REMARK   12  A    between atoms: C68_32  and  C69_33 
REMARK   13  A    between atoms: C69_33  and  C70_34 
REMARK   14  A    between atoms: C70_34  and  C71_35 
REMARK   15  A    between atoms: C71_35  and  C72_36 
ROOT
ATOM      1  C67 E12 d           4.678  64.834  69.422  0.00  0.00    -0.065 C 
ATOM      2  H37 E12 d           5.148  64.368  70.301  0.00  0.00     0.033 H 
ATOM      3  H38 E12 d           5.459  65.170  68.724  0.00  0.00     0.033 H 
ENDROOT
BRANCH   1   4
ATOM      4  C66 E12 d           3.889  66.040  69.879  0.00  0.00    -0.065 C 
ATOM      5  H35 E12 d           4.002  66.154  70.968  0.00  0.00     0.033 H 
ATOM      6  H36 E12 d           4.277  66.937  69.375  0.00  0.00     0.033 H 
BRANCH   4   7
ATOM      7  C65 E12 d           2.427  65.879  69.548  0.00  0.00    -0.065 C 
ATOM      8  H33 E12 d           2.335  65.327  68.600  0.00  0.00     0.033 H 
ATOM      9  H34 E12 d           1.940  65.309  70.353  0.00  0.00     0.033 H 
BRANCH   7  10
ATOM     10  C64 E12 d           1.728  67.223  69.405  0.00  0.00    -0.064 C 
ATOM     11  H31 E12 d           0.839  67.105  68.768  0.00  0.00     0.033 H 
ATOM     12  H32 E12 d           1.421  67.581  70.398  0.00  0.00     0.033 H 
BRANCH  10  13
ATOM     13  C63 E12 d           2.660  68.232  68.777  0.00  0.00    -0.043 C 
ATOM     14  H15 E12 d           2.637  69.159  69.369  0.00  0.00     0.035 H 
ATOM     15  H16 E12 d           3.681  67.824  68.774  0.00  0.00     0.035 H 
BRANCH  13  16
ATOM     16  C24 E12 d           2.240  68.549  67.330  0.00  0.00     0.083 C 
ATOM     17  H7  E12 d           1.200  68.237  67.151  0.00  0.00     0.075 H 
ATOM     18  H8  E12 d           2.340  69.625  67.123  0.00  0.00     0.075 H 
BRANCH  16  19
ATOM     19  N17 E12 d           3.207  67.736  66.455  0.00  0.00    -0.067 N 
ATOM     20  H5  E12 d           4.082  68.238  66.456  0.00  0.00     0.277 HD
ATOM     21  H6  E12 d           3.329  66.848  66.915  0.00  0.00     0.277 HD
BRANCH  19  22
ATOM     22  C10 E12 d           2.894  67.429  65.011  0.00  0.00     0.129 C 
ATOM     23  C4  E12 d           3.489  66.061  64.615  0.00  0.00    -0.005 A 
ATOM     24  C3  E12 d           4.378  65.933  63.563  0.00  0.00     0.020 A 
ATOM     25  C5  E12 d           3.047  64.809  65.294  0.00  0.00    -0.068 A 
ATOM     26  N2  E12 d           4.849  64.698  63.218  0.00  0.00    -0.327 N 
ATOM     27  C9  E12 d           4.885  67.122  62.737  0.00  0.00    -0.026 C 
ATOM     28  C1  E12 d           4.517  63.479  63.787  0.00  0.00     0.245 A 
ATOM     29  H1  E12 d           5.511  64.670  62.469  0.00  0.00     0.169 HD
ATOM     30  C6  E12 d           3.525  63.572  64.924  0.00  0.00    -0.017 A 
ATOM     31  O7  E12 d           5.047  62.422  63.390  0.00  0.00    -0.268 OA
ATOM     32  H9  E12 d           3.193  62.674  65.442  0.00  0.00     0.092 H 
ATOM     33  C14 E12 d           4.787  68.435  63.536  0.00  0.00    -0.058 C 
ATOM     34  H10 E12 d           4.278  67.211  61.824  0.00  0.00     0.042 H 
ATOM     35  H11 E12 d           5.936  66.947  62.463  0.00  0.00     0.042 H 
ATOM     36  C13 E12 d           3.349  68.617  64.119  0.00  0.00    -0.034 C 
ATOM     37  H3  E12 d           5.513  68.411  64.362  0.00  0.00     0.033 H 
ATOM     38  H4  E12 d           5.018  69.281  62.871  0.00  0.00     0.033 H 
ATOM     39  H13 E12 d           3.331  69.536  64.724  0.00  0.00     0.036 H 
ATOM     40  H14 E12 d           2.642  68.716  63.283  0.00  0.00     0.036 H 
ATOM     41  H2  E12 d           2.325  64.875  66.106  0.00  0.00     0.084 H 
ATOM     42  H12 E12 d           1.801  67.347  64.909  0.00  0.00     0.092 H 
ENDBRANCH  19  22
ENDBRANCH  16  19
ENDBRANCH  13  16
ENDBRANCH  10  13
ENDBRANCH   7  10
ENDBRANCH   4   7
ENDBRANCH   1   4
BRANCH   1  43
ATOM     43  C68 E12 d           3.823  63.795  68.727  0.00  0.00    -0.065 C 
ATOM     44  H39 E12 d           4.287  63.554  67.759  0.00  0.00     0.033 H 
ATOM     45  H40 E12 d           2.824  64.223  68.558  0.00  0.00     0.033 H 
BRANCH  43  46
ATOM     46  C69 E12 d           3.668  62.509  69.520  0.00  0.00    -0.065 C 
ATOM     47  H41 E12 d           3.959  61.657  68.887  0.00  0.00     0.033 H 
ATOM     48  H42 E12 d           2.618  62.397  69.825  0.00  0.00     0.033 H 
BRANCH  46  49
ATOM     49  C70 E12 d           4.546  62.530  70.759  0.00  0.00    -0.065 C 
ATOM     50  H43 E12 d           3.990  63.025  71.569  0.00  0.00     0.033 H 
ATOM     51  H44 E12 d           5.455  63.108  70.531  0.00  0.00     0.033 H 
BRANCH  49  52
ATOM     52  C71 E12 d           4.966  61.145  71.241  0.00  0.00    -0.064 C 
ATOM     53  H45 E12 d           6.064  61.079  71.201  0.00  0.00     0.033 H 
ATOM     54  H46 E12 d           4.528  60.393  70.568  0.00  0.00     0.033 H 
BRANCH  52  55
ATOM     55  C72 E12 d           4.511  60.836  72.680  0.00  0.00    -0.043 C 
ATOM     56  H47 E12 d           3.982  61.715  73.076  0.00  0.00     0.035 H 
ATOM     57  H48 E12 d           5.403  60.638  73.294  0.00  0.00     0.035 H 
BRANCH  55  58
ATOM     58  C41 E12 d           3.578  59.623  72.772  0.00  0.00     0.083 C 
ATOM     59  H29 E12 d           3.145  59.552  73.780  0.00  0.00     0.075 H 
ATOM     60  H30 E12 d           4.131  58.700  72.544  0.00  0.00     0.075 H 
BRANCH  58  61
ATOM     61  N40 E12 d           2.507  59.842  71.767  0.00  0.00    -0.067 N 
ATOM     62  H27 E12 d           2.508  59.039  71.158  0.00  0.00     0.277 HD
ATOM     63  H28 E12 d           2.759  60.664  71.242  0.00  0.00     0.277 HD
BRANCH  61  64
ATOM     64  C37 E12 d           1.078  60.038  72.237  0.00  0.00     0.129 C 
ATOM     65  C38 E12 d           0.814  59.013  73.360  0.00  0.00    -0.034 C 
ATOM     66  C39 E12 d          -0.548  59.263  74.018  0.00  0.00    -0.058 C 
ATOM     67  H23 E12 d           1.604  59.101  74.122  0.00  0.00     0.036 H 
ATOM     68  H24 E12 d           0.827  57.999  72.934  0.00  0.00     0.036 H 
ATOM     69  C36 E12 d          -0.568  60.650  74.686  0.00  0.00    -0.026 C 
ATOM     70  H25 E12 d          -1.335  59.217  73.251  0.00  0.00     0.033 H 
ATOM     71  H26 E12 d          -0.731  58.490  74.779  0.00  0.00     0.033 H 
ATOM     72  C31 E12 d          -0.078  61.741  73.709  0.00  0.00     0.020 A 
ATOM     73  H20 E12 d          -1.596  60.884  74.999  0.00  0.00     0.042 H 
ATOM     74  H21 E12 d           0.089  60.635  75.568  0.00  0.00     0.042 H 
ATOM     75  C32 E12 d           0.703  61.476  72.585  0.00  0.00    -0.005 A 
ATOM     76  N30 E12 d          -0.433  63.029  73.981  0.00  0.00    -0.327 N 
ATOM     77  C33 E12 d           1.113  62.617  71.729  0.00  0.00    -0.068 A 
ATOM     78  C34 E12 d           0.747  63.899  72.014  0.00  0.00    -0.017 A 
ATOM     79  H18 E12 d           1.724  62.425  70.848  0.00  0.00     0.084 H 
ATOM     80  C29 E12 d          -0.117  64.157  73.231  0.00  0.00     0.245 A 
ATOM     81  H19 E12 d           1.071  64.722  71.379  0.00  0.00     0.092 H 
ATOM     82  O35 E12 d          -0.604  65.258  73.525  0.00  0.00    -0.268 OA
ATOM     83  H17 E12 d          -0.979  63.179  74.807  0.00  0.00     0.169 HD
ATOM     84  H22 E12 d           0.427  59.763  71.395  0.00  0.00     0.092 H 
ENDBRANCH  61  64
ENDBRANCH  58  61
ENDBRANCH  55  58
ENDBRANCH  52  55
ENDBRANCH  49  52
ENDBRANCH  46  49
ENDBRANCH  43  46
ENDBRANCH   1  43
TORSDOF 15
ENDMDL
MODEL 6
REMARK VINA RESULT:     -10.0      1.898      3.252
REMARK  15 active torsions:
REMARK  status: ('A' for Active; 'I' for Inactive)
REMARK    1  A    between atoms: C10_11  and  N17_7 
REMARK    2  A    between atoms: N17_7  and  C24_8 
REMARK    3  A    between atoms: C24_8  and  C63_13 
REMARK    4  A    between atoms: C63_13  and  C64_28 
REMARK    5  A    between atoms: N40_26  and  C37_23 
REMARK    6  A    between atoms: C41_27  and  N40_26 
REMARK    7  A    between atoms: C72_36  and  C41_27 
REMARK    8  A    between atoms: C64_28  and  C65_29 
REMARK    9  A    between atoms: C65_29  and  C66_30 
REMARK   10  A    between atoms: C66_30  and  C67_31 
REMARK   11  A    between atoms: C67_31  and  C68_32 
REMARK   12  A    between atoms: C68_32  and  C69_33 
REMARK   13  A    between atoms: C69_33  and  C70_34 
REMARK   14  A    between atoms: C70_34  and  C71_35 
REMARK   15  A    between atoms: C71_35  and  C72_36 
ROOT
ATOM      1  C67 E12 d           3.750  62.920  69.626  0.00  0.00    -0.065 C 
ATOM      2  H37 E12 d           2.769  63.322  69.919  0.00  0.00     0.033 H 
ATOM      3  H38 E12 d           3.840  62.933  68.530  0.00  0.00     0.033 H 
ENDROOT
BRANCH   1   4
ATOM      4  C66 E12 d           3.845  61.487  70.101  0.00  0.00    -0.065 C 
ATOM      5  H35 E12 d           2.837  61.120  70.344  0.00  0.00     0.033 H 
ATOM      6  H36 E12 d           4.277  60.870  69.300  0.00  0.00     0.033 H 
BRANCH   4   7
ATOM      7  C65 E12 d           4.717  61.387  71.327  0.00  0.00    -0.065 C 
ATOM      8  H33 E12 d           5.771  61.467  71.022  0.00  0.00     0.033 H 
ATOM      9  H34 E12 d           4.468  62.214  72.009  0.00  0.00     0.033 H 
BRANCH   7  10
ATOM     10  C64 E12 d           4.515  60.068  72.059  0.00  0.00    -0.064 C 
ATOM     11  H31 E12 d           4.007  59.356  71.391  0.00  0.00     0.033 H 
ATOM     12  H32 E12 d           5.494  59.662  72.351  0.00  0.00     0.033 H 
BRANCH  10  13
ATOM     13  C63 E12 d           3.674  60.280  73.295  0.00  0.00    -0.043 C 
ATOM     14  H15 E12 d           4.291  60.095  74.186  0.00  0.00     0.035 H 
ATOM     15  H16 E12 d           3.311  61.318  73.309  0.00  0.00     0.035 H 
BRANCH  13  16
ATOM     16  C24 E12 d           2.466  59.324  73.312  0.00  0.00     0.083 C 
ATOM     17  H7  E12 d           2.776  58.304  73.044  0.00  0.00     0.075 H 
ATOM     18  H8  E12 d           1.994  59.315  74.306  0.00  0.00     0.075 H 
BRANCH  16  19
ATOM     19  N17 E12 d           1.502  59.893  72.260  0.00  0.00    -0.067 N 
ATOM     20  H5  E12 d           2.012  60.606  71.762  0.00  0.00     0.277 HD
ATOM     21  H6  E12 d           1.287  59.134  71.631  0.00  0.00     0.277 HD
BRANCH  19  22
ATOM     22  C10 E12 d           0.181  60.509  72.653  0.00  0.00     0.129 C 
ATOM     23  C4  E12 d           0.163  62.009  72.289  0.00  0.00    -0.005 A 
ATOM     24  C3  E12 d          -0.067  62.985  73.242  0.00  0.00     0.020 A 
ATOM     25  C5  E12 d           0.295  62.454  70.872  0.00  0.00    -0.068 A 
ATOM     26  N2  E12 d          -0.117  64.299  72.871  0.00  0.00    -0.327 N 
ATOM     27  C9  E12 d          -0.273  62.678  74.731  0.00  0.00    -0.026 C 
ATOM     28  C1  E12 d           0.005  64.820  71.593  0.00  0.00     0.245 A 
ATOM     29  H1  E12 d          -0.258  64.961  73.607  0.00  0.00     0.169 HD
ATOM     30  C6  E12 d           0.230  63.783  70.516  0.00  0.00    -0.017 A 
ATOM     31  O7  E12 d          -0.032  66.051  71.398  0.00  0.00    -0.268 OA
ATOM     32  H9  E12 d           0.340  64.082  69.475  0.00  0.00     0.092 H 
ATOM     33  C14 E12 d           0.368  61.332  75.115  0.00  0.00    -0.058 C 
ATOM     34  H10 E12 d          -1.352  62.636  74.943  0.00  0.00     0.042 H 
ATOM     35  H11 E12 d           0.186  63.478  75.329  0.00  0.00     0.042 H 
ATOM     36  C13 E12 d          -0.109  60.201  74.147  0.00  0.00    -0.034 C 
ATOM     37  H3  E12 d           1.462  61.423  75.055  0.00  0.00     0.033 H 
ATOM     38  H4  E12 d           0.078  61.074  76.144  0.00  0.00     0.033 H 
ATOM     39  H13 E12 d           0.408  59.268  74.418  0.00  0.00     0.036 H 
ATOM     40  H14 E12 d          -1.193  60.068  74.272  0.00  0.00     0.036 H 
ATOM     41  H2  E12 d           0.447  61.707  70.095  0.00  0.00     0.084 H 
ATOM     42  H12 E12 d          -0.611  60.025  72.062  0.00  0.00     0.092 H 
ENDBRANCH  19  22
ENDBRANCH  16  19
ENDBRANCH  13  16
ENDBRANCH  10  13
ENDBRANCH   7  10
ENDBRANCH   4   7
ENDBRANCH   1   4
BRANCH   1  43
ATOM     43  C68 E12 d           4.829  63.810  70.208  0.00  0.00    -0.065 C 
ATOM     44  H39 E12 d           5.805  63.455  69.846  0.00  0.00     0.033 H 
ATOM     45  H40 E12 d           4.793  63.729  71.304  0.00  0.00     0.033 H 
BRANCH  43  46
ATOM     46  C69 E12 d           4.677  65.273  69.827  0.00  0.00    -0.065 C 
ATOM     47  H41 E12 d           5.205  65.456  68.880  0.00  0.00     0.033 H 
ATOM     48  H42 E12 d           5.116  65.899  70.618  0.00  0.00     0.033 H 
BRANCH  46  49
ATOM     49  C70 E12 d           3.212  65.638  69.660  0.00  0.00    -0.065 C 
ATOM     50  H43 E12 d           2.651  65.216  70.507  0.00  0.00     0.033 H 
ATOM     51  H44 E12 d           2.849  65.193  68.721  0.00  0.00     0.033 H 
BRANCH  49  52
ATOM     52  C71 E12 d           2.953  67.141  69.612  0.00  0.00    -0.064 C 
ATOM     53  H45 E12 d           3.875  67.644  69.285  0.00  0.00     0.033 H 
ATOM     54  H46 E12 d           2.688  67.482  70.624  0.00  0.00     0.033 H 
BRANCH  52  55
ATOM     55  C72 E12 d           1.814  67.532  68.651  0.00  0.00    -0.043 C 
ATOM     56  H47 E12 d           1.014  68.011  69.233  0.00  0.00     0.035 H 
ATOM     57  H48 E12 d           1.426  66.618  68.178  0.00  0.00     0.035 H 
BRANCH  55  58
ATOM     58  C41 E12 d           2.260  68.499  67.548  0.00  0.00     0.083 C 
ATOM     59  H29 E12 d           2.583  69.454  67.987  0.00  0.00     0.075 H 
ATOM     60  H30 E12 d           1.435  68.679  66.844  0.00  0.00     0.075 H 
BRANCH  58  61
ATOM     61  N40 E12 d           3.397  67.845  66.851  0.00  0.00    -0.067 N 
ATOM     62  H27 E12 d           3.512  66.934  67.267  0.00  0.00     0.277 HD
ATOM     63  H28 E12 d           4.215  68.404  67.034  0.00  0.00     0.277 HD
BRANCH  61  64
ATOM     64  C37 E12 d           3.327  67.639  65.350  0.00  0.00     0.129 C 
ATOM     65  C38 E12 d           4.072  68.816  64.686  0.00  0.00    -0.034 C 
ATOM     66  C39 E12 d           4.208  68.593  63.175  0.00  0.00    -0.058 C 
ATOM     67  H23 E12 d           5.076  68.904  65.129  0.00  0.00     0.036 H 
ATOM     68  H24 E12 d           3.510  69.745  64.863  0.00  0.00     0.036 H 
ATOM     69  C36 E12 d           5.053  67.335  62.898  0.00  0.00    -0.026 C 
ATOM     70  H25 E12 d           3.208  68.463  62.736  0.00  0.00     0.033 H 
ATOM     71  H26 E12 d           4.698  69.467  62.721  0.00  0.00     0.033 H 
ATOM     72  C31 E12 d           4.537  66.133  63.716  0.00  0.00     0.020 A 
ATOM     73  H20 E12 d           4.996  67.092  61.827  0.00  0.00     0.042 H 
ATOM     74  H21 E12 d           6.098  67.536  63.174  0.00  0.00     0.042 H 
ATOM     75  C32 E12 d           3.756  66.257  64.865  0.00  0.00    -0.005 A 
ATOM     76  N30 E12 d           4.878  64.886  63.279  0.00  0.00    -0.327 N 
ATOM     77  C33 E12 d           3.329  65.019  65.563  0.00  0.00    -0.068 A 
ATOM     78  C34 E12 d           3.678  63.782  65.112  0.00  0.00    -0.017 A 
ATOM     79  H18 E12 d           2.721  65.102  66.463  0.00  0.00     0.084 H 
ATOM     80  C29 E12 d           4.510  63.672  63.850  0.00  0.00     0.245 A 
ATOM     81  H19 E12 d           3.364  62.887  65.648  0.00  0.00     0.092 H 
ATOM     82  O35 E12 d           4.790  62.607  63.284  0.00  0.00    -0.268 OA
ATOM     83  H17 E12 d           5.453  64.841  62.462  0.00  0.00     0.169 HD
ATOM     84  H22 E12 d           2.269  67.732  65.067  0.00  0.00     0.092 H 
ENDBRANCH  61  64
ENDBRANCH  58  61
ENDBRANCH  55  58
ENDBRANCH  52  55
ENDBRANCH  49  52
ENDBRANCH  46  49
ENDBRANCH  43  46
ENDBRANCH   1  43
TORSDOF 15
ENDMDL
MODEL 7
REMARK VINA RESULT:      -9.8      1.886      9.428
REMARK  15 active torsions:
REMARK  status: ('A' for Active; 'I' for Inactive)
REMARK    1  A    between atoms: C10_11  and  N17_7 
REMARK    2  A    between atoms: N17_7  and  C24_8 
REMARK    3  A    between atoms: C24_8  and  C63_13 
REMARK    4  A    between atoms: C63_13  and  C64_28 
REMARK    5  A    between atoms: N40_26  and  C37_23 
REMARK    6  A    between atoms: C41_27  and  N40_26 
REMARK    7  A    between atoms: C72_36  and  C41_27 
REMARK    8  A    between atoms: C64_28  and  C65_29 
REMARK    9  A    between atoms: C65_29  and  C66_30 
REMARK   10  A    between atoms: C66_30  and  C67_31 
REMARK   11  A    between atoms: C67_31  and  C68_32 
REMARK   12  A    between atoms: C68_32  and  C69_33 
REMARK   13  A    between atoms: C69_33  and  C70_34 
REMARK   14  A    between atoms: C70_34  and  C71_35 
REMARK   15  A    between atoms: C71_35  and  C72_36 
ROOT
ATOM      1  C67 E12 d           0.937  67.926  66.538  0.00  0.00    -0.065 C 
ATOM      2  H37 E12 d           0.579  67.185  67.268  0.00  0.00     0.033 H 
ATOM      3  H38 E12 d           0.171  68.702  66.398  0.00  0.00     0.033 H 
ENDROOT
BRANCH   1   4
ATOM      4  C66 E12 d           1.165  67.229  65.216  0.00  0.00    -0.065 C 
ATOM      5  H35 E12 d           2.036  66.563  65.303  0.00  0.00     0.033 H 
ATOM      6  H36 E12 d           0.274  66.636  64.962  0.00  0.00     0.033 H 
BRANCH   4   7
ATOM      7  C65 E12 d           1.418  68.233  64.119  0.00  0.00    -0.065 C 
ATOM      8  H33 E12 d           0.490  68.792  63.926  0.00  0.00     0.033 H 
ATOM      9  H34 E12 d           2.204  68.929  64.449  0.00  0.00     0.033 H 
BRANCH   7  10
ATOM     10  C64 E12 d           1.866  67.561  62.829  0.00  0.00    -0.064 C 
ATOM     11  H31 E12 d           2.805  67.016  63.009  0.00  0.00     0.033 H 
ATOM     12  H32 E12 d           1.090  66.854  62.500  0.00  0.00     0.033 H 
BRANCH  10  13
ATOM     13  C63 E12 d           2.087  68.595  61.751  0.00  0.00    -0.043 C 
ATOM     14  H15 E12 d           1.372  68.422  60.934  0.00  0.00     0.035 H 
ATOM     15  H16 E12 d           1.924  69.597  62.175  0.00  0.00     0.035 H 
BRANCH  13  16
ATOM     16  C24 E12 d           3.520  68.512  61.191  0.00  0.00     0.083 C 
ATOM     17  H7  E12 d           3.513  68.608  60.096  0.00  0.00     0.075 H 
ATOM     18  H8  E12 d           4.152  69.302  61.625  0.00  0.00     0.075 H 
BRANCH  16  19
ATOM     19  N17 E12 d           4.024  67.123  61.612  0.00  0.00    -0.067 N 
ATOM     20  H5  E12 d           3.226  66.629  61.979  0.00  0.00     0.277 HD
ATOM     21  H6  E12 d           4.342  66.669  60.770  0.00  0.00     0.277 HD
BRANCH  19  22
ATOM     22  C10 E12 d           5.130  66.962  62.627  0.00  0.00     0.129 C 
ATOM     23  C4  E12 d           4.643  66.103  63.814  0.00  0.00    -0.005 A 
ATOM     24  C3  E12 d           4.676  66.574  65.114  0.00  0.00     0.020 A 
ATOM     25  C5  E12 d           4.211  64.690  63.609  0.00  0.00    -0.068 A 
ATOM     26  N2  E12 d           4.275  65.766  66.140  0.00  0.00    -0.327 N 
ATOM     27  C9  E12 d           5.145  67.986  65.487  0.00  0.00    -0.026 C 
ATOM     28  C1  E12 d           3.845  64.452  66.061  0.00  0.00     0.245 A 
ATOM     29  H1  E12 d           4.294  66.171  67.055  0.00  0.00     0.169 HD
ATOM     30  C6  E12 d           3.821  63.888  64.658  0.00  0.00    -0.017 A 
ATOM     31  O7  E12 d           3.479  63.836  67.081  0.00  0.00    -0.268 OA
ATOM     32  H9  E12 d           3.500  62.863  64.480  0.00  0.00     0.092 H 
ATOM     33  C14 E12 d           4.999  68.953  64.298  0.00  0.00    -0.058 C 
ATOM     34  H10 E12 d           6.202  67.945  65.789  0.00  0.00     0.042 H 
ATOM     35  H11 E12 d           4.538  68.355  66.326  0.00  0.00     0.042 H 
ATOM     36  C13 E12 d           5.679  68.360  63.021  0.00  0.00    -0.034 C 
ATOM     37  H3  E12 d           3.931  69.118  64.095  0.00  0.00     0.033 H 
ATOM     38  H4  E12 d           5.476  69.911  64.550  0.00  0.00     0.033 H 
ATOM     39  H13 E12 d           5.510  69.051  62.182  0.00  0.00     0.036 H 
ATOM     40  H14 E12 d           6.759  68.270  63.210  0.00  0.00     0.036 H 
ATOM     41  H2  E12 d           4.202  64.280  62.600  0.00  0.00     0.084 H 
ATOM     42  H12 E12 d           5.955  66.412  62.149  0.00  0.00     0.092 H 
ENDBRANCH  19  22
ENDBRANCH  16  19
ENDBRANCH  13  16
ENDBRANCH  10  13
ENDBRANCH   7  10
ENDBRANCH   4   7
ENDBRANCH   1   4
BRANCH   1  43
ATOM     43  C68 E12 d           2.188  68.578  67.088  0.00  0.00    -0.065 C 
ATOM     44  H39 E12 d           2.202  69.629  66.768  0.00  0.00     0.033 H 
ATOM     45  H40 E12 d           3.064  68.056  66.673  0.00  0.00     0.033 H 
BRANCH  43  46
ATOM     46  C69 E12 d           2.277  68.535  68.604  0.00  0.00    -0.065 C 
ATOM     47  H41 E12 d           1.262  68.460  69.023  0.00  0.00     0.033 H 
ATOM     48  H42 E12 d           2.753  69.459  68.964  0.00  0.00     0.033 H 
BRANCH  46  49
ATOM     49  C70 E12 d           3.096  67.342  69.064  0.00  0.00    -0.065 C 
ATOM     50  H43 E12 d           3.782  67.676  69.856  0.00  0.00     0.033 H 
ATOM     51  H44 E12 d           3.678  66.970  68.207  0.00  0.00     0.033 H 
BRANCH  49  52
ATOM     52  C71 E12 d           2.256  66.191  69.610  0.00  0.00    -0.064 C 
ATOM     53  H45 E12 d           2.733  65.815  70.527  0.00  0.00     0.033 H 
ATOM     54  H46 E12 d           2.228  65.390  68.856  0.00  0.00     0.033 H 
BRANCH  52  55
ATOM     55  C72 E12 d           0.808  66.598  69.943  0.00  0.00    -0.043 C 
ATOM     56  H47 E12 d           0.271  66.785  69.001  0.00  0.00     0.035 H 
ATOM     57  H48 E12 d           0.833  67.521  70.540  0.00  0.00     0.035 H 
BRANCH  55  58
ATOM     58  C41 E12 d           0.046  65.527  70.733  0.00  0.00     0.083 C 
ATOM     59  H29 E12 d          -1.012  65.514  70.433  0.00  0.00     0.075 H 
ATOM     60  H30 E12 d           0.119  65.727  71.812  0.00  0.00     0.075 H 
BRANCH  58  61
ATOM     61  N40 E12 d           0.688  64.229  70.407  0.00  0.00    -0.067 N 
ATOM     62  H27 E12 d           1.557  64.439  69.941  0.00  0.00     0.277 HD
ATOM     63  H28 E12 d           0.072  63.749  69.769  0.00  0.00     0.277 HD
BRANCH  61  64
ATOM     64  C37 E12 d           1.010  63.259  71.527  0.00  0.00     0.129 C 
ATOM     65  C38 E12 d          -0.282  62.480  71.852  0.00  0.00    -0.034 C 
ATOM     66  C39 E12 d          -0.002  61.350  72.849  0.00  0.00    -0.058 C 
ATOM     67  H23 E12 d          -0.688  62.050  70.924  0.00  0.00     0.036 H 
ATOM     68  H24 E12 d          -1.019  63.171  72.289  0.00  0.00     0.036 H 
ATOM     69  C36 E12 d           0.974  60.329  72.235  0.00  0.00    -0.026 C 
ATOM     70  H25 E12 d           0.443  61.773  73.762  0.00  0.00     0.033 H 
ATOM     71  H26 E12 d          -0.946  60.845  73.101  0.00  0.00     0.033 H 
ATOM     72  C31 E12 d           2.214  61.036  71.647  0.00  0.00     0.020 A 
ATOM     73  H20 E12 d           1.298  59.626  73.015  0.00  0.00     0.042 H 
ATOM     74  H21 E12 d           0.461  59.778  71.434  0.00  0.00     0.042 H 
ATOM     75  C32 E12 d           2.239  62.385  71.294  0.00  0.00    -0.005 A 
ATOM     76  N30 E12 d           3.336  60.282  71.464  0.00  0.00    -0.327 N 
ATOM     77  C33 E12 d           3.496  62.941  70.732  0.00  0.00    -0.068 A 
ATOM     78  C34 E12 d           4.608  62.174  70.558  0.00  0.00    -0.017 A 
ATOM     79  H18 E12 d           3.529  63.993  70.451  0.00  0.00     0.084 H 
ATOM     80  C29 E12 d           4.560  60.716  70.967  0.00  0.00     0.245 A 
ATOM     81  H19 E12 d           5.515  62.601  70.132  0.00  0.00     0.092 H 
ATOM     82  O35 E12 d           5.536  59.953  70.963  0.00  0.00    -0.268 OA
ATOM     83  H17 E12 d           3.270  59.315  71.713  0.00  0.00     0.169 HD
ATOM     84  H22 E12 d           1.248  63.866  72.412  0.00  0.00     0.092 H 
ENDBRANCH  61  64
ENDBRANCH  58  61
ENDBRANCH  55  58
ENDBRANCH  52  55
ENDBRANCH  49  52
ENDBRANCH  46  49
ENDBRANCH  43  46
ENDBRANCH   1  43
TORSDOF 15
ENDMDL
MODEL 8
REMARK VINA RESULT:      -9.2      2.732      4.191
REMARK  15 active torsions:
REMARK  status: ('A' for Active; 'I' for Inactive)
REMARK    1  A    between atoms: C10_11  and  N17_7 
REMARK    2  A    between atoms: N17_7  and  C24_8 
REMARK    3  A    between atoms: C24_8  and  C63_13 
REMARK    4  A    between atoms: C63_13  and  C64_28 
REMARK    5  A    between atoms: N40_26  and  C37_23 
REMARK    6  A    between atoms: C41_27  and  N40_26 
REMARK    7  A    between atoms: C72_36  and  C41_27 
REMARK    8  A    between atoms: C64_28  and  C65_29 
REMARK    9  A    between atoms: C65_29  and  C66_30 
REMARK   10  A    between atoms: C66_30  and  C67_31 
REMARK   11  A    between atoms: C67_31  and  C68_32 
REMARK   12  A    between atoms: C68_32  and  C69_33 
REMARK   13  A    between atoms: C69_33  and  C70_34 
REMARK   14  A    between atoms: C70_34  and  C71_35 
REMARK   15  A    between atoms: C71_35  and  C72_36 
ROOT
ATOM      1  C67 E12 d           4.987  60.726  71.394  0.00  0.00    -0.065 C 
ATOM      2  H37 E12 d           5.853  60.615  70.725  0.00  0.00     0.033 H 
ATOM      3  H38 E12 d           5.277  60.453  72.419  0.00  0.00     0.033 H 
ENDROOT
BRANCH   1   4
ATOM      4  C66 E12 d           3.898  59.781  70.935  0.00  0.00    -0.065 C 
ATOM      5  H35 E12 d           2.923  60.282  71.026  0.00  0.00     0.033 H 
ATOM      6  H36 E12 d           4.075  59.512  69.884  0.00  0.00     0.033 H 
BRANCH   4   7
ATOM      7  C65 E12 d           3.890  58.528  71.773  0.00  0.00    -0.065 C 
ATOM      8  H33 E12 d           4.510  57.764  71.278  0.00  0.00     0.033 H 
ATOM      9  H34 E12 d           4.313  58.758  72.762  0.00  0.00     0.033 H 
BRANCH   7  10
ATOM     10  C64 E12 d           2.483  57.978  71.954  0.00  0.00    -0.064 C 
ATOM     11  H31 E12 d           1.921  58.099  71.016  0.00  0.00     0.033 H 
ATOM     12  H32 E12 d           2.540  56.910  72.211  0.00  0.00     0.033 H 
BRANCH  10  13
ATOM     13  C63 E12 d           1.771  58.719  73.061  0.00  0.00    -0.043 C 
ATOM     14  H15 E12 d           1.200  59.553  72.626  0.00  0.00     0.035 H 
ATOM     15  H16 E12 d           1.082  58.029  73.570  0.00  0.00     0.035 H 
BRANCH  13  16
ATOM     16  C24 E12 d           2.775  59.277  74.087  0.00  0.00     0.083 C 
ATOM     17  H7  E12 d           2.637  58.794  75.066  0.00  0.00     0.075 H 
ATOM     18  H8  E12 d           3.808  59.121  73.743  0.00  0.00     0.075 H 
BRANCH  16  19
ATOM     19  N17 E12 d           2.453  60.777  74.172  0.00  0.00    -0.067 N 
ATOM     20  H5  E12 d           2.877  61.112  75.023  0.00  0.00     0.277 HD
ATOM     21  H6  E12 d           2.902  61.210  73.380  0.00  0.00     0.277 HD
BRANCH  19  22
ATOM     22  C10 E12 d           1.028  61.277  74.182  0.00  0.00     0.129 C 
ATOM     23  C4  E12 d           0.805  62.272  73.023  0.00  0.00    -0.005 A 
ATOM     24  C3  E12 d           0.361  63.562  73.249  0.00  0.00     0.020 A 
ATOM     25  C5  E12 d           0.965  61.841  71.604  0.00  0.00    -0.068 A 
ATOM     26  N2  E12 d           0.135  64.398  72.191  0.00  0.00    -0.327 N 
ATOM     27  C9  E12 d           0.101  64.132  74.649  0.00  0.00    -0.026 C 
ATOM     28  C1  E12 d           0.264  64.107  70.843  0.00  0.00     0.245 A 
ATOM     29  H1  E12 d          -0.158  65.327  72.416  0.00  0.00     0.169 HD
ATOM     30  C6  E12 d           0.721  62.695  70.552  0.00  0.00    -0.017 A 
ATOM     31  O7  E12 d           0.051  64.978  69.977  0.00  0.00    -0.268 OA
ATOM     32  H9  E12 d           0.856  62.359  69.525  0.00  0.00     0.092 H 
ATOM     33  C14 E12 d           0.913  63.376  75.716  0.00  0.00    -0.058 C 
ATOM     34  H10 E12 d          -0.971  64.040  74.881  0.00  0.00     0.042 H 
ATOM     35  H11 E12 d           0.388  65.193  74.663  0.00  0.00     0.042 H 
ATOM     36  C13 E12 d           0.686  61.835  75.590  0.00  0.00    -0.034 C 
ATOM     37  H3  E12 d           1.982  63.597  75.579  0.00  0.00     0.033 H 
ATOM     38  H4  E12 d           0.596  63.709  76.715  0.00  0.00     0.033 H 
ATOM     39  H13 E12 d           1.320  61.327  76.332  0.00  0.00     0.036 H 
ATOM     40  H14 E12 d          -0.371  61.620  75.803  0.00  0.00     0.036 H 
ATOM     41  H2  E12 d           1.285  60.822  71.393  0.00  0.00     0.084 H 
ATOM     42  H12 E12 d           0.364  60.419  74.003  0.00  0.00     0.092 H 
ENDBRANCH  19  22
ENDBRANCH  16  19
ENDBRANCH  13  16
ENDBRANCH  10  13
ENDBRANCH   7  10
ENDBRANCH   4   7
ENDBRANCH   1   4
BRANCH   1  43
ATOM     43  C68 E12 d           4.554  62.177  71.386  0.00  0.00    -0.065 C 
ATOM     44  H39 E12 d           5.313  62.770  71.916  0.00  0.00     0.033 H 
ATOM     45  H40 E12 d           3.592  62.257  71.913  0.00  0.00     0.033 H 
BRANCH  43  46
ATOM     46  C69 E12 d           4.386  62.750  69.988  0.00  0.00    -0.065 C 
ATOM     47  H41 E12 d           3.561  62.229  69.481  0.00  0.00     0.033 H 
ATOM     48  H42 E12 d           5.317  62.600  69.422  0.00  0.00     0.033 H 
BRANCH  46  49
ATOM     49  C70 E12 d           4.076  64.236  70.048  0.00  0.00    -0.065 C 
ATOM     50  H43 E12 d           4.296  64.595  71.065  0.00  0.00     0.033 H 
ATOM     51  H44 E12 d           3.006  64.375  69.833  0.00  0.00     0.033 H 
BRANCH  49  52
ATOM     52  C71 E12 d           4.879  65.074  69.058  0.00  0.00    -0.064 C 
ATOM     53  H45 E12 d           5.857  64.594  68.907  0.00  0.00     0.033 H 
ATOM     54  H46 E12 d           5.024  66.077  69.486  0.00  0.00     0.033 H 
BRANCH  52  55
ATOM     55  C72 E12 d           4.191  65.223  67.687  0.00  0.00    -0.043 C 
ATOM     56  H47 E12 d           3.131  65.466  67.852  0.00  0.00     0.035 H 
ATOM     57  H48 E12 d           4.268  64.265  67.152  0.00  0.00     0.035 H 
BRANCH  55  58
ATOM     58  C41 E12 d           4.812  66.320  66.815  0.00  0.00     0.083 C 
ATOM     59  H29 E12 d           5.392  65.872  65.996  0.00  0.00     0.075 H 
ATOM     60  H30 E12 d           5.469  66.961  67.422  0.00  0.00     0.075 H 
BRANCH  58  61
ATOM     61  N40 E12 d           3.682  67.114  66.271  0.00  0.00    -0.067 N 
ATOM     62  H27 E12 d           3.238  67.569  67.053  0.00  0.00     0.277 HD
ATOM     63  H28 E12 d           3.038  66.460  65.853  0.00  0.00     0.277 HD
BRANCH  61  64
ATOM     64  C37 E12 d           3.959  68.186  65.235  0.00  0.00     0.129 C 
ATOM     65  C38 E12 d           5.416  68.004  64.758  0.00  0.00    -0.034 C 
ATOM     66  C39 E12 d           5.723  68.932  63.577  0.00  0.00    -0.058 C 
ATOM     67  H23 E12 d           5.565  66.960  64.444  0.00  0.00     0.036 H 
ATOM     68  H24 E12 d           6.099  68.239  65.588  0.00  0.00     0.036 H 
ATOM     69  C36 E12 d           4.828  68.577  62.375  0.00  0.00    -0.026 C 
ATOM     70  H25 E12 d           5.534  69.974  63.875  0.00  0.00     0.033 H 
ATOM     71  H26 E12 d           6.779  68.817  63.290  0.00  0.00     0.033 H 
ATOM     72  C31 E12 d           3.346  68.488  62.799  0.00  0.00     0.020 A 
ATOM     73  H20 E12 d           4.935  69.353  61.604  0.00  0.00     0.042 H 
ATOM     74  H21 E12 d           5.144  67.606  61.965  0.00  0.00     0.042 H 
ATOM     75  C32 E12 d           2.929  68.285  64.114  0.00  0.00    -0.005 A 
ATOM     76  N30 E12 d           2.407  68.611  61.817  0.00  0.00    -0.327 N 
ATOM     77  C33 E12 d           1.471  68.213  64.386  0.00  0.00    -0.068 A 
ATOM     78  C34 E12 d           0.546  68.340  63.393  0.00  0.00    -0.017 A 
ATOM     79  H18 E12 d           1.132  68.054  65.408  0.00  0.00     0.084 H 
ATOM     80  C29 E12 d           1.025  68.579  61.975  0.00  0.00     0.245 A 
ATOM     81  H19 E12 d          -0.518  68.270  63.614  0.00  0.00     0.092 H 
ATOM     82  O35 E12 d           0.282  68.822  61.015  0.00  0.00    -0.268 OA
ATOM     83  H17 E12 d           2.748  68.737  60.885  0.00  0.00     0.169 HD
ATOM     84  H22 E12 d           3.913  69.152  65.758  0.00  0.00     0.092 H 
ENDBRANCH  61  64
ENDBRANCH  58  61
ENDBRANCH  55  58
ENDBRANCH  52  55
ENDBRANCH  49  52
ENDBRANCH  46  49
ENDBRANCH  43  46
ENDBRANCH   1  43
TORSDOF 15
ENDMDL
MODEL 9
REMARK VINA RESULT:      -9.0      1.546      2.143
REMARK  15 active torsions:
REMARK  status: ('A' for Active; 'I' for Inactive)
REMARK    1  A    between atoms: C10_11  and  N17_7 
REMARK    2  A    between atoms: N17_7  and  C24_8 
REMARK    3  A    between atoms: C24_8  and  C63_13 
REMARK    4  A    between atoms: C63_13  and  C64_28 
REMARK    5  A    between atoms: N40_26  and  C37_23 
REMARK    6  A    between atoms: C41_27  and  N40_26 
REMARK    7  A    between atoms: C72_36  and  C41_27 
REMARK    8  A    between atoms: C64_28  and  C65_29 
REMARK    9  A    between atoms: C65_29  and  C66_30 
REMARK   10  A    between atoms: C66_30  and  C67_31 
REMARK   11  A    between atoms: C67_31  and  C68_32 
REMARK   12  A    between atoms: C68_32  and  C69_33 
REMARK   13  A    between atoms: C69_33  and  C70_34 
REMARK   14  A    between atoms: C70_34  and  C71_35 
REMARK   15  A    between atoms: C71_35  and  C72_36 
ROOT
ATOM      1  C67 E12 d           1.611  64.469  70.744  0.00  0.00    -0.065 C 
ATOM      2  H37 E12 d           1.840  64.080  69.741  0.00  0.00     0.033 H 
ATOM      3  H38 E12 d           2.442  65.102  71.090  0.00  0.00     0.033 H 
ENDROOT
BRANCH   1   4
ATOM      4  C66 E12 d           1.468  63.301  71.694  0.00  0.00    -0.065 C 
ATOM      5  H35 E12 d           1.733  62.373  71.167  0.00  0.00     0.033 H 
ATOM      6  H36 E12 d           2.146  63.445  72.548  0.00  0.00     0.033 H 
BRANCH   4   7
ATOM      7  C65 E12 d           0.051  63.195  72.200  0.00  0.00    -0.065 C 
ATOM      8  H33 E12 d          -0.583  63.893  71.633  0.00  0.00     0.033 H 
ATOM      9  H34 E12 d          -0.306  62.166  72.044  0.00  0.00     0.033 H 
BRANCH   7  10
ATOM     10  C64 E12 d          -0.048  63.532  73.681  0.00  0.00    -0.064 C 
ATOM     11  H31 E12 d           0.803  64.169  73.966  0.00  0.00     0.033 H 
ATOM     12  H32 E12 d          -0.988  64.070  73.869  0.00  0.00     0.033 H 
BRANCH  10  13
ATOM     13  C63 E12 d          -0.024  62.268  74.506  0.00  0.00    -0.043 C 
ATOM     14  H15 E12 d           0.849  61.664  74.215  0.00  0.00     0.035 H 
ATOM     15  H16 E12 d           0.054  62.535  75.570  0.00  0.00     0.035 H 
BRANCH  13  16
ATOM     16  C24 E12 d          -1.304  61.440  74.288  0.00  0.00     0.083 C 
ATOM     17  H7  E12 d          -1.841  61.299  75.237  0.00  0.00     0.075 H 
ATOM     18  H8  E12 d          -1.966  61.935  73.562  0.00  0.00     0.075 H 
BRANCH  16  19
ATOM     19  N17 E12 d          -0.809  60.093  73.739  0.00  0.00    -0.067 N 
ATOM     20  H5  E12 d          -1.548  59.428  73.908  0.00  0.00     0.277 HD
ATOM     21  H6  E12 d          -0.689  60.216  72.746  0.00  0.00     0.277 HD
BRANCH  19  22
ATOM     22  C10 E12 d           0.462  59.455  74.247  0.00  0.00     0.129 C 
ATOM     23  C4  E12 d           1.354  59.027  73.062  0.00  0.00    -0.005 A 
ATOM     24  C3  E12 d           1.768  57.717  72.901  0.00  0.00     0.020 A 
ATOM     25  C5  E12 d           1.885  60.036  72.100  0.00  0.00    -0.068 A 
ATOM     26  N2  E12 d           2.593  57.388  71.862  0.00  0.00    -0.327 N 
ATOM     27  C9  E12 d           1.349  56.578  73.839  0.00  0.00    -0.026 C 
ATOM     28  C1  E12 d           3.130  58.239  70.909  0.00  0.00     0.245 A 
ATOM     29  H1  E12 d           2.836  56.422  71.779  0.00  0.00     0.169 HD
ATOM     30  C6  E12 d           2.724  59.686  71.067  0.00  0.00    -0.017 A 
ATOM     31  O7  E12 d           3.851  57.798  69.992  0.00  0.00    -0.268 OA
ATOM     32  H9  E12 d           3.089  60.441  70.372  0.00  0.00     0.092 H 
ATOM     33  C14 E12 d           0.027  56.908  74.556  0.00  0.00    -0.058 C 
ATOM     34  H10 E12 d           2.137  56.423  74.590  0.00  0.00     0.042 H 
ATOM     35  H11 E12 d           1.218  55.659  73.250  0.00  0.00     0.042 H 
ATOM     36  C13 E12 d           0.107  58.312  75.237  0.00  0.00    -0.034 C 
ATOM     37  H3  E12 d          -0.792  56.907  73.823  0.00  0.00     0.033 H 
ATOM     38  H4  E12 d          -0.168  56.144  75.324  0.00  0.00     0.033 H 
ATOM     39  H13 E12 d          -0.868  58.536  75.694  0.00  0.00     0.036 H 
ATOM     40  H14 E12 d           0.879  58.278  76.020  0.00  0.00     0.036 H 
ATOM     41  H2  E12 d           1.600  61.081  72.219  0.00  0.00     0.084 H 
ATOM     42  H12 E12 d           1.021  60.214  74.814  0.00  0.00     0.092 H 
ENDBRANCH  19  22
ENDBRANCH  16  19
ENDBRANCH  13  16
ENDBRANCH  10  13
ENDBRANCH   7  10
ENDBRANCH   4   7
ENDBRANCH   1   4
BRANCH   1  43
ATOM     43  C68 E12 d           0.361  65.320  70.658  0.00  0.00    -0.065 C 
ATOM     44  H39 E12 d           0.193  65.791  71.637  0.00  0.00     0.033 H 
ATOM     45  H40 E12 d          -0.489  64.666  70.413  0.00  0.00     0.033 H 
BRANCH  43  46
ATOM     46  C69 E12 d           0.445  66.414  69.606  0.00  0.00    -0.065 C 
ATOM     47  H41 E12 d           0.172  67.376  70.064  0.00  0.00     0.033 H 
ATOM     48  H42 E12 d          -0.256  66.185  68.791  0.00  0.00     0.033 H 
BRANCH  46  49
ATOM     49  C70 E12 d           1.851  66.512  69.040  0.00  0.00    -0.065 C 
ATOM     50  H43 E12 d           1.784  66.502  67.942  0.00  0.00     0.033 H 
ATOM     51  H44 E12 d           2.424  65.636  69.382  0.00  0.00     0.033 H 
BRANCH  49  52
ATOM     52  C71 E12 d           2.600  67.771  69.465  0.00  0.00    -0.064 C 
ATOM     53  H45 E12 d           3.678  67.552  69.467  0.00  0.00     0.033 H 
ATOM     54  H46 E12 d           2.280  68.043  70.482  0.00  0.00     0.033 H 
BRANCH  52  55
ATOM     55  C72 E12 d           2.347  68.974  68.536  0.00  0.00    -0.043 C 
ATOM     56  H47 E12 d           3.247  69.605  68.527  0.00  0.00     0.035 H 
ATOM     57  H48 E12 d           1.499  69.550  68.934  0.00  0.00     0.035 H 
BRANCH  55  58
ATOM     58  C41 E12 d           2.024  68.565  67.094  0.00  0.00     0.083 C 
ATOM     59  H29 E12 d           1.597  69.416  66.544  0.00  0.00     0.075 H 
ATOM     60  H30 E12 d           1.311  67.728  67.087  0.00  0.00     0.075 H 
BRANCH  58  61
ATOM     61  N40 E12 d           3.310  68.149  66.478  0.00  0.00    -0.067 N 
ATOM     62  H27 E12 d           3.611  67.318  66.960  0.00  0.00     0.277 HD
ATOM     63  H28 E12 d           3.969  68.893  66.644  0.00  0.00     0.277 HD
BRANCH  61  64
ATOM     64  C37 E12 d           3.355  67.841  64.994  0.00  0.00     0.129 C 
ATOM     65  C38 E12 d           4.208  68.936  64.318  0.00  0.00    -0.034 C 
ATOM     66  C39 E12 d           4.458  68.601  62.844  0.00  0.00    -0.058 C 
ATOM     67  H23 E12 d           5.174  69.014  64.839  0.00  0.00     0.036 H 
ATOM     68  H24 E12 d           3.677  69.898  64.384  0.00  0.00     0.036 H 
ATOM     69  C36 E12 d           5.262  67.293  62.725  0.00  0.00    -0.026 C 
ATOM     70  H25 E12 d           3.493  68.481  62.329  0.00  0.00     0.033 H 
ATOM     71  H26 E12 d           5.024  69.420  62.376  0.00  0.00     0.033 H 
ATOM     72  C31 E12 d           4.624  66.174  63.575  0.00  0.00     0.020 A 
ATOM     73  H20 E12 d           5.284  66.977  61.672  0.00  0.00     0.042 H 
ATOM     74  H21 E12 d           6.290  67.469  63.076  0.00  0.00     0.042 H 
ATOM     75  C32 E12 d           3.757  66.412  64.641  0.00  0.00    -0.005 A 
ATOM     76  N30 E12 d           4.941  64.886  63.253  0.00  0.00    -0.327 N 
ATOM     77  C33 E12 d           3.217  65.244  65.382  0.00  0.00    -0.068 A 
ATOM     78  C34 E12 d           3.543  63.965  65.046  0.00  0.00    -0.017 A 
ATOM     79  H18 E12 d           2.540  65.416  66.218  0.00  0.00     0.084 H 
ATOM     80  C29 E12 d           4.471  63.732  63.871  0.00  0.00     0.245 A 
ATOM     81  H19 E12 d           3.144  63.124  65.612  0.00  0.00     0.092 H 
ATOM     82  O35 E12 d           4.746  62.619  63.404  0.00  0.00    -0.268 OA
ATOM     83  H17 E12 d           5.580  64.759  62.494  0.00  0.00     0.169 HD
ATOM     84  H22 E12 d           2.330  67.956  64.615  0.00  0.00     0.092 H 
ENDBRANCH  61  64
ENDBRANCH  58  61
ENDBRANCH  55  58
ENDBRANCH  52  55
ENDBRANCH  49  52
ENDBRANCH  46  49
ENDBRANCH  43  46
ENDBRANCH   1  43
TORSDOF 15
ENDMDL
MODEL 10
REMARK VINA RESULT:      -8.9      1.960      3.893
REMARK  15 active torsions:
REMARK  status: ('A' for Active; 'I' for Inactive)
REMARK    1  A    between atoms: C10_11  and  N17_7 
REMARK    2  A    between atoms: N17_7  and  C24_8 
REMARK    3  A    between atoms: C24_8  and  C63_13 
REMARK    4  A    between atoms: C63_13  and  C64_28 
REMARK    5  A    between atoms: N40_26  and  C37_23 
REMARK    6  A    between atoms: C41_27  and  N40_26 
REMARK    7  A    between atoms: C72_36  and  C41_27 
REMARK    8  A    between atoms: C64_28  and  C65_29 
REMARK    9  A    between atoms: C65_29  and  C66_30 
REMARK   10  A    between atoms: C66_30  and  C67_31 
REMARK   11  A    between atoms: C67_31  and  C68_32 
REMARK   12  A    between atoms: C68_32  and  C69_33 
REMARK   13  A    between atoms: C69_33  and  C70_34 
REMARK   14  A    between atoms: C70_34  and  C71_35 
REMARK   15  A    between atoms: C71_35  and  C72_36 
ROOT
ATOM      1  C67 E12 d           0.046  61.854  72.039  0.00  0.00    -0.065 C 
ATOM      2  H37 E12 d          -0.472  62.176  71.123  0.00  0.00     0.033 H 
ATOM      3  H38 E12 d           0.866  61.170  71.775  0.00  0.00     0.033 H 
ENDROOT
BRANCH   1   4
ATOM      4  C66 E12 d          -0.939  61.111  72.913  0.00  0.00    -0.065 C 
ATOM      5  H35 E12 d          -1.935  61.567  72.804  0.00  0.00     0.033 H 
ATOM      6  H36 E12 d          -0.981  60.059  72.595  0.00  0.00     0.033 H 
BRANCH   4   7
ATOM      7  C65 E12 d          -0.523  61.174  74.361  0.00  0.00    -0.065 C 
ATOM      8  H33 E12 d           0.050  62.099  74.527  0.00  0.00     0.033 H 
ATOM      9  H34 E12 d          -1.424  61.182  74.991  0.00  0.00     0.033 H 
BRANCH   7  10
ATOM     10  C64 E12 d           0.341  59.984  74.754  0.00  0.00    -0.064 C 
ATOM     11  H31 E12 d          -0.306  59.154  75.072  0.00  0.00     0.033 H 
ATOM     12  H32 E12 d           0.941  59.669  73.887  0.00  0.00     0.033 H 
BRANCH  10  13
ATOM     13  C63 E12 d           1.264  60.360  75.888  0.00  0.00    -0.043 C 
ATOM     14  H15 E12 d           1.217  61.448  76.044  0.00  0.00     0.035 H 
ATOM     15  H16 E12 d           0.938  59.844  76.803  0.00  0.00     0.035 H 
BRANCH  13  16
ATOM     16  C24 E12 d           2.718  59.960  75.575  0.00  0.00     0.083 C 
ATOM     17  H7  E12 d           3.390  60.278  76.385  0.00  0.00     0.075 H 
ATOM     18  H8  E12 d           2.799  58.871  75.437  0.00  0.00     0.075 H 
BRANCH  16  19
ATOM     19  N17 E12 d           3.054  60.697  74.270  0.00  0.00    -0.067 N 
ATOM     20  H5  E12 d           2.174  60.973  73.863  0.00  0.00     0.277 HD
ATOM     21  H6  E12 d           3.575  61.519  74.533  0.00  0.00     0.277 HD
BRANCH  19  22
ATOM     22  C10 E12 d           3.840  60.028  73.168  0.00  0.00     0.129 C 
ATOM     23  C4  E12 d           3.616  60.765  71.830  0.00  0.00    -0.005 A 
ATOM     24  C3  E12 d           3.125  60.111  70.715  0.00  0.00     0.020 A 
ATOM     25  C5  E12 d           4.017  62.192  71.665  0.00  0.00    -0.068 A 
ATOM     26  N2  E12 d           2.981  60.790  69.537  0.00  0.00    -0.327 N 
ATOM     27  C9  E12 d           2.718  58.632  70.715  0.00  0.00    -0.026 C 
ATOM     28  C1  E12 d           3.307  62.111  69.280  0.00  0.00     0.245 A 
ATOM     29  H1  E12 d           2.594  60.273  68.773  0.00  0.00     0.169 HD
ATOM     30  C6  E12 d           3.875  62.855  70.467  0.00  0.00    -0.017 A 
ATOM     31  O7  E12 d           3.096  62.616  68.159  0.00  0.00    -0.268 OA
ATOM     32  H9  E12 d           4.166  63.901  70.376  0.00  0.00     0.092 H 
ATOM     33  C14 E12 d           2.360  58.154  72.134  0.00  0.00    -0.058 C 
ATOM     34  H10 E12 d           3.555  58.029  70.333  0.00  0.00     0.042 H 
ATOM     35  H11 E12 d           1.844  58.500  70.061  0.00  0.00     0.042 H 
ATOM     36  C13 E12 d           3.503  58.513  73.138  0.00  0.00    -0.034 C 
ATOM     37  H3  E12 d           1.429  58.642  72.456  0.00  0.00     0.033 H 
ATOM     38  H4  E12 d           2.217  57.064  72.123  0.00  0.00     0.033 H 
ATOM     39  H13 E12 d           3.191  58.204  74.147  0.00  0.00     0.036 H 
ATOM     40  H14 E12 d           4.408  57.960  72.850  0.00  0.00     0.036 H 
ATOM     41  H2  E12 d           4.435  62.726  72.518  0.00  0.00     0.084 H 
ATOM     42  H12 E12 d           4.910  60.118  73.409  0.00  0.00     0.092 H 
ENDBRANCH  19  22
ENDBRANCH  16  19
ENDBRANCH  13  16
ENDBRANCH  10  13
ENDBRANCH   7  10
ENDBRANCH   4   7
ENDBRANCH   1   4
BRANCH   1  43
ATOM     43  C68 E12 d           0.634  63.074  72.715  0.00  0.00    -0.065 C 
ATOM     44  H39 E12 d           1.724  63.060  72.571  0.00  0.00     0.033 H 
ATOM     45  H40 E12 d           0.404  63.023  73.789  0.00  0.00     0.033 H 
BRANCH  43  46
ATOM     46  C69 E12 d           0.096  64.386  72.170  0.00  0.00    -0.065 C 
ATOM     47  H41 E12 d           0.422  65.210  72.823  0.00  0.00     0.033 H 
ATOM     48  H42 E12 d          -1.003  64.346  72.153  0.00  0.00     0.033 H 
BRANCH  46  49
ATOM     49  C70 E12 d           0.606  64.636  70.761  0.00  0.00    -0.065 C 
ATOM     50  H43 E12 d           0.279  63.802  70.122  0.00  0.00     0.033 H 
ATOM     51  H44 E12 d           1.705  64.668  70.791  0.00  0.00     0.033 H 
BRANCH  49  52
ATOM     52  C71 E12 d           0.104  65.939  70.145  0.00  0.00    -0.064 C 
ATOM     53  H45 E12 d          -0.476  66.483  70.905  0.00  0.00     0.033 H 
ATOM     54  H46 E12 d          -0.546  65.695  69.292  0.00  0.00     0.033 H 
BRANCH  52  55
ATOM     55  C72 E12 d           1.239  66.855  69.648  0.00  0.00    -0.043 C 
ATOM     56  H47 E12 d           2.182  66.290  69.678  0.00  0.00     0.035 H 
ATOM     57  H48 E12 d           1.309  67.721  70.322  0.00  0.00     0.035 H 
BRANCH  55  58
ATOM     58  C41 E12 d           1.021  67.365  68.219  0.00  0.00     0.083 C 
ATOM     59  H29 E12 d           0.067  67.906  68.150  0.00  0.00     0.075 H 
ATOM     60  H30 E12 d           1.017  66.522  67.512  0.00  0.00     0.075 H 
BRANCH  58  61
ATOM     61  N40 E12 d           2.153  68.278  67.923  0.00  0.00    -0.067 N 
ATOM     62  H27 E12 d           2.347  68.790  68.769  0.00  0.00     0.277 HD
ATOM     63  H28 E12 d           1.837  68.916  67.209  0.00  0.00     0.277 HD
BRANCH  61  64
ATOM     64  C37 E12 d           3.470  67.697  67.446  0.00  0.00     0.129 C 
ATOM     65  C38 E12 d           3.736  66.416  68.265  0.00  0.00    -0.034 C 
ATOM     66  C39 E12 d           4.956  65.665  67.723  0.00  0.00    -0.058 C 
ATOM     67  H23 E12 d           2.853  65.761  68.206  0.00  0.00     0.036 H 
ATOM     68  H24 E12 d           3.919  66.691  69.315  0.00  0.00     0.036 H 
ATOM     69  C36 E12 d           4.698  65.206  66.275  0.00  0.00    -0.026 C 
ATOM     70  H25 E12 d           5.831  66.331  67.742  0.00  0.00     0.033 H 
ATOM     71  H26 E12 d           5.151  64.785  68.353  0.00  0.00     0.033 H 
ATOM     72  C31 E12 d           4.184  66.376  65.410  0.00  0.00     0.020 A 
ATOM     73  H20 E12 d           5.636  64.826  65.845  0.00  0.00     0.042 H 
ATOM     74  H21 E12 d           3.946  64.404  66.281  0.00  0.00     0.042 H 
ATOM     75  C32 E12 d           3.593  67.525  65.935  0.00  0.00    -0.005 A 
ATOM     76  N30 E12 d           4.317  66.258  64.057  0.00  0.00    -0.327 N 
ATOM     77  C33 E12 d           3.135  68.574  64.991  0.00  0.00    -0.068 A 
ATOM     78  C34 E12 d           3.278  68.442  63.642  0.00  0.00    -0.017 A 
ATOM     79  H18 E12 d           2.671  69.476  65.388  0.00  0.00     0.084 H 
ATOM     80  C29 E12 d           3.940  67.192  63.098  0.00  0.00     0.245 A 
ATOM     81  H19 E12 d           2.922  69.219  62.968  0.00  0.00     0.092 H 
ATOM     82  O35 E12 d           4.226  67.012  61.906  0.00  0.00    -0.268 OA
ATOM     83  H17 E12 d           4.729  65.411  63.720  0.00  0.00     0.169 HD
ATOM     84  H22 E12 d           4.253  68.419  67.721  0.00  0.00     0.092 H 
ENDBRANCH  61  64
ENDBRANCH  58  61
ENDBRANCH  55  58
ENDBRANCH  52  55
ENDBRANCH  49  52
ENDBRANCH  46  49
ENDBRANCH  43  46
ENDBRANCH   1  43
TORSDOF 15
ENDMDL
