MODEL 1
REMARK VINA RESULT:      -7.9      0.000      0.000
REMARK  6 active torsions:
REMARK  status: ('A' for Active; 'I' for Inactive)
REMARK    1  A    between atoms: N16_6  and  C12_7 
REMARK    2  A    between atoms: C9_12  and  N7_13 
REMARK    3  A    between atoms: N7_13  and  C4_14 
REMARK    4  A    between atoms: C6_19  and  C15_20 
REMARK    5  A    between atoms: N25_24  and  C29_25 
REMARK    6  A    between atoms: C26_26  and  C27_27 
ROOT
ATOM      1  C12 Y8L d          25.897  29.432  27.221  0.00  0.00     0.030 A 
ATOM      2  C13 Y8L d          25.617  28.121  26.831  0.00  0.00    -0.055 A 
ATOM      3  C14 Y8L d          24.499  27.440  27.334  0.00  0.00    -0.054 A 
ATOM      4  C11 Y8L d          25.025  30.071  28.098  0.00  0.00    -0.055 A 
ATOM      5  C10 Y8L d          23.898  29.385  28.568  0.00  0.00    -0.054 A 
ATOM      6  C9  Y8L d          23.628  28.059  28.219  0.00  0.00     0.049 A 
ATOM      7  H11 Y8L d          26.274  27.622  26.128  0.00  0.00     0.087 H 
ATOM      8  H12 Y8L d          24.313  26.418  27.027  0.00  0.00     0.087 H 
ATOM      9  H13 Y8L d          25.216  31.091  28.414  0.00  0.00     0.087 H 
ATOM     10  H14 Y8L d          23.210  29.901  29.228  0.00  0.00     0.087 H 
ENDROOT
BRANCH   6  11
ATOM     11  N7  Y8L d          22.522  27.475  28.715  0.00  0.00    -0.188 N 
ATOM     12  H15 Y8L d          21.776  28.111  29.034  0.00  0.00     0.184 HD
BRANCH  11  13
ATOM     13  C4  Y8L d          22.274  26.158  28.843  0.00  0.00     0.727 A 
ATOM     14  N5  Y8L d          22.278  25.271  27.824  0.00  0.00    -0.061 NA
ATOM     15  C6  Y8L d          22.006  23.964  28.014  0.00  0.00     0.096 A 
ATOM     16  C1  Y8L d          21.812  23.511  29.319  0.00  0.00    -0.036 A 
ATOM     17  C2  Y8L d          21.859  24.425  30.357  0.00  0.00     0.023 A 
ATOM     18  H17 Y8L d          21.627  22.462  29.517  0.00  0.00     0.089 H 
ATOM     19  N3  Y8L d          22.096  25.702  30.097  0.00  0.00    -0.075 NA
ATOM     20  H16 Y8L d          21.701  24.098  31.378  0.00  0.00     0.115 H 
BRANCH  15  21
ATOM     21  C15 Y8L d          22.037  23.029  26.966  0.00  0.00     0.062 A 
ATOM     22  S23 Y8L d          23.425  22.509  26.092  0.00  0.00    -0.025 SA
ATOM     23  C24 Y8L d          22.534  21.559  25.010  0.00  0.00     0.291 A 
ATOM     24  O28 Y8L d          23.000  20.860  24.114  0.00  0.00    -0.259 OA
ATOM     25  N25 Y8L d          21.238  21.612  25.327  0.00  0.00    -0.316 N 
ATOM     26  C26 Y8L d          20.932  22.397  26.369  0.00  0.00     0.030 A 
BRANCH  25  27
ATOM     27  C29 Y8L d          20.211  20.847  24.565  0.00  0.00    -0.011 C 
ATOM     28  H18 Y8L d          20.573  19.824  24.387  0.00  0.00     0.057 H 
ATOM     29  H19 Y8L d          20.025  21.344  23.601  0.00  0.00     0.057 H 
ATOM     30  H20 Y8L d          19.277  20.810  25.144  0.00  0.00     0.057 H 
ENDBRANCH  25  27
BRANCH  26  31
ATOM     31  C27 Y8L d          19.487  22.552  26.851  0.00  0.00    -0.036 C 
ATOM     32  H21 Y8L d          19.316  23.591  27.168  0.00  0.00     0.035 H 
ATOM     33  H22 Y8L d          19.309  21.876  27.700  0.00  0.00     0.035 H 
ATOM     34  H23 Y8L d          18.798  22.301  26.031  0.00  0.00     0.035 H 
ENDBRANCH  26  31
ENDBRANCH  15  21
ENDBRANCH  11  13
ENDBRANCH   6  11
BRANCH   1  35
ATOM     35  N16 Y8L d          27.051  30.099  26.754  0.00  0.00    -0.378 N 
ATOM     36  C17 Y8L d          27.141  31.563  26.928  0.00  0.00     0.018 C 
ATOM     37  C18 Y8L d          28.200  32.269  26.061  0.00  0.00     0.096 C 
ATOM     38  H1  Y8L d          26.159  31.995  26.684  0.00  0.00     0.066 H 
ATOM     39  H2  Y8L d          27.378  31.765  27.983  0.00  0.00     0.066 H 
ATOM     40  N19 Y8L d          28.948  31.334  25.206  0.00  0.00    -0.072 N 
ATOM     41  H3  Y8L d          28.910  32.785  26.722  0.00  0.00     0.078 H 
ATOM     42  H4  Y8L d          27.694  33.006  25.418  0.00  0.00     0.078 H 
ATOM     43  C20 Y8L d          29.407  30.224  26.029  0.00  0.00     0.096 C 
ATOM     44  H5  Y8L d          29.740  31.805  24.797  0.00  0.00     0.277 HD
ATOM     45  H6  Y8L d          28.348  30.989  24.473  0.00  0.00     0.277 HD
ATOM     46  C21 Y8L d          28.211  29.312  26.303  0.00  0.00     0.018 C 
ATOM     47  H7  Y8L d          29.810  30.606  26.979  0.00  0.00     0.078 H 
ATOM     48  H8  Y8L d          30.191  29.664  25.498  0.00  0.00     0.078 H 
ATOM     49  H9  Y8L d          28.481  28.586  27.085  0.00  0.00     0.066 H 
ATOM     50  H10 Y8L d          27.948  28.775  25.380  0.00  0.00     0.066 H 
ENDBRANCH   1  35
TORSDOF 6
ENDMDL
MODEL 2
REMARK VINA RESULT:      -7.8      3.976      9.256
REMARK  6 active torsions:
REMARK  status: ('A' for Active; 'I' for Inactive)
REMARK    1  A    between atoms: N16_6  and  C12_7 
REMARK    2  A    between atoms: C9_12  and  N7_13 
REMARK    3  A    between atoms: N7_13  and  C4_14 
REMARK    4  A    between atoms: C6_19  and  C15_20 
REMARK    5  A    between atoms: N25_24  and  C29_25 
REMARK    6  A    between atoms: C26_26  and  C27_27 
ROOT
ATOM      1  C12 Y8L d          24.355  23.537  24.869  0.00  0.00     0.030 A 
ATOM      2  C13 Y8L d          24.380  24.917  25.083  0.00  0.00    -0.055 A 
ATOM      3  C14 Y8L d          25.546  25.662  24.852  0.00  0.00    -0.054 A 
ATOM      4  C11 Y8L d          25.502  22.912  24.388  0.00  0.00    -0.055 A 
ATOM      5  C10 Y8L d          26.648  23.677  24.138  0.00  0.00    -0.054 A 
ATOM      6  C9  Y8L d          26.700  25.051  24.386  0.00  0.00     0.049 A 
ATOM      7  H11 Y8L d          23.486  25.420  25.432  0.00  0.00     0.087 H 
ATOM      8  H12 Y8L d          25.544  26.730  25.041  0.00  0.00     0.087 H 
ATOM      9  H13 Y8L d          25.508  21.843  24.209  0.00  0.00     0.087 H 
ATOM     10  H14 Y8L d          27.527  23.186  23.736  0.00  0.00     0.087 H 
ENDROOT
BRANCH   6  11
ATOM     11  N7  Y8L d          27.842  25.711  24.115  0.00  0.00    -0.188 N 
ATOM     12  H15 Y8L d          28.557  25.186  23.591  0.00  0.00     0.184 HD
BRANCH  11  13
ATOM     13  C4  Y8L d          28.159  26.977  24.448  0.00  0.00     0.727 A 
ATOM     14  N5  Y8L d          27.364  27.809  25.155  0.00  0.00    -0.061 NA
ATOM     15  C6  Y8L d          27.732  29.074  25.444  0.00  0.00     0.096 A 
ATOM     16  C1  Y8L d          29.013  29.490  25.079  0.00  0.00    -0.036 A 
ATOM     17  C2  Y8L d          29.833  28.608  24.397  0.00  0.00     0.023 A 
ATOM     18  H17 Y8L d          29.360  30.487  25.326  0.00  0.00     0.089 H 
ATOM     19  N3  Y8L d          29.397  27.391  24.114  0.00  0.00    -0.075 NA
ATOM     20  H16 Y8L d          30.829  28.913  24.096  0.00  0.00     0.115 H 
BRANCH  15  21
ATOM     21  C15 Y8L d          26.926  29.938  26.204  0.00  0.00     0.062 A 
ATOM     22  S23 Y8L d          27.035  31.654  26.269  0.00  0.00    -0.025 SA
ATOM     23  C24 Y8L d          25.850  31.800  27.470  0.00  0.00     0.291 A 
ATOM     24  O28 Y8L d          25.427  32.854  27.939  0.00  0.00    -0.259 OA
ATOM     25  N25 Y8L d          25.370  30.593  27.779  0.00  0.00    -0.316 N 
ATOM     26  C26 Y8L d          25.930  29.567  27.123  0.00  0.00     0.030 A 
BRANCH  25  27
ATOM     27  C29 Y8L d          24.288  30.411  28.788  0.00  0.00    -0.011 C 
ATOM     28  H18 Y8L d          24.064  29.340  28.896  0.00  0.00     0.057 H 
ATOM     29  H19 Y8L d          23.384  30.943  28.455  0.00  0.00     0.057 H 
ATOM     30  H20 Y8L d          24.618  30.816  29.755  0.00  0.00     0.057 H 
ENDBRANCH  25  27
BRANCH  26  31
ATOM     31  C27 Y8L d          25.479  28.124  27.370  0.00  0.00    -0.036 C 
ATOM     32  H21 Y8L d          26.342  27.450  27.279  0.00  0.00     0.035 H 
ATOM     33  H22 Y8L d          24.717  27.846  26.626  0.00  0.00     0.035 H 
ATOM     34  H23 Y8L d          25.052  28.041  28.380  0.00  0.00     0.035 H 
ENDBRANCH  26  31
ENDBRANCH  15  21
ENDBRANCH  11  13
ENDBRANCH   6  11
BRANCH   1  35
ATOM     35  N16 Y8L d          23.197  22.779  25.150  0.00  0.00    -0.378 N 
ATOM     36  C17 Y8L d          22.815  21.699  24.219  0.00  0.00     0.018 C 
ATOM     37  C18 Y8L d          21.366  21.194  24.349  0.00  0.00     0.096 C 
ATOM     38  H1  Y8L d          22.954  22.071  23.193  0.00  0.00     0.066 H 
ATOM     39  H2  Y8L d          23.489  20.847  24.393  0.00  0.00     0.066 H 
ATOM     40  N19 Y8L d          20.616  21.889  25.406  0.00  0.00    -0.072 N 
ATOM     41  H3  Y8L d          21.388  20.119  24.582  0.00  0.00     0.078 H 
ATOM     42  H4  Y8L d          20.851  21.351  23.389  0.00  0.00     0.078 H 
ATOM     43  C20 Y8L d          21.422  21.890  26.618  0.00  0.00     0.096 C 
ATOM     44  H5  Y8L d          19.745  21.410  25.577  0.00  0.00     0.277 HD
ATOM     45  H6  Y8L d          20.427  22.837  25.121  0.00  0.00     0.277 HD
ATOM     46  C21 Y8L d          22.525  22.937  26.452  0.00  0.00     0.018 C 
ATOM     47  H7  Y8L d          21.871  20.898  26.769  0.00  0.00     0.078 H 
ATOM     48  H8  Y8L d          20.794  22.145  27.485  0.00  0.00     0.078 H 
ATOM     49  H9  Y8L d          23.264  22.815  27.257  0.00  0.00     0.066 H 
ATOM     50  H10 Y8L d          22.081  23.942  26.510  0.00  0.00     0.066 H 
ENDBRANCH   1  35
TORSDOF 6
ENDMDL
MODEL 3
REMARK VINA RESULT:      -7.3      3.912      9.177
REMARK  6 active torsions:
REMARK  status: ('A' for Active; 'I' for Inactive)
REMARK    1  A    between atoms: N16_6  and  C12_7 
REMARK    2  A    between atoms: C9_12  and  N7_13 
REMARK    3  A    between atoms: N7_13  and  C4_14 
REMARK    4  A    between atoms: C6_19  and  C15_20 
REMARK    5  A    between atoms: N25_24  and  C29_25 
REMARK    6  A    between atoms: C26_26  and  C27_27 
ROOT
ATOM      1  C12 Y8L d          21.862  24.563  28.039  0.00  0.00     0.030 A 
ATOM      2  C13 Y8L d          22.268  25.890  27.880  0.00  0.00    -0.055 A 
ATOM      3  C14 Y8L d          23.122  26.264  26.833  0.00  0.00    -0.054 A 
ATOM      4  C11 Y8L d          22.294  23.615  27.116  0.00  0.00    -0.055 A 
ATOM      5  C10 Y8L d          23.125  24.013  26.061  0.00  0.00    -0.054 A 
ATOM      6  C9  Y8L d          23.572  25.328  25.913  0.00  0.00     0.049 A 
ATOM      7  H11 Y8L d          21.917  26.643  28.577  0.00  0.00     0.087 H 
ATOM      8  H12 Y8L d          23.435  27.298  26.741  0.00  0.00     0.087 H 
ATOM      9  H13 Y8L d          21.990  22.579  27.213  0.00  0.00     0.087 H 
ATOM     10  H14 Y8L d          23.432  23.272  25.331  0.00  0.00     0.087 H 
ENDROOT
BRANCH   6  11
ATOM     11  N7  Y8L d          24.367  25.624  24.868  0.00  0.00    -0.188 N 
ATOM     12  H15 Y8L d          23.982  25.426  23.933  0.00  0.00     0.184 HD
BRANCH  11  13
ATOM     13  C4  Y8L d          25.607  26.149  24.901  0.00  0.00     0.727 A 
ATOM     14  N5  Y8L d          25.884  27.457  25.086  0.00  0.00    -0.061 NA
ATOM     15  C6  Y8L d          27.149  27.925  25.093  0.00  0.00     0.096 A 
ATOM     16  C1  Y8L d          28.195  27.006  25.001  0.00  0.00    -0.036 A 
ATOM     17  C2  Y8L d          27.894  25.663  24.860  0.00  0.00     0.023 A 
ATOM     18  H17 Y8L d          29.226  27.339  25.040  0.00  0.00     0.089 H 
ATOM     19  N3  Y8L d          26.629  25.274  24.826  0.00  0.00    -0.075 NA
ATOM     20  H16 Y8L d          28.690  24.932  24.778  0.00  0.00     0.115 H 
BRANCH  15  21
ATOM     21  C15 Y8L d          27.450  29.279  25.315  0.00  0.00     0.062 A 
ATOM     22  S23 Y8L d          28.610  30.227  24.467  0.00  0.00    -0.025 SA
ATOM     23  C24 Y8L d          28.392  31.587  25.453  0.00  0.00     0.291 A 
ATOM     24  O28 Y8L d          28.950  32.673  25.314  0.00  0.00    -0.259 OA
ATOM     25  N25 Y8L d          27.450  31.335  26.365  0.00  0.00    -0.316 N 
ATOM     26  C26 Y8L d          26.925  30.103  26.325  0.00  0.00     0.030 A 
BRANCH  25  27
ATOM     27  C29 Y8L d          27.021  32.363  27.356  0.00  0.00    -0.011 C 
ATOM     28  H18 Y8L d          27.908  32.850  27.786  0.00  0.00     0.057 H 
ATOM     29  H19 Y8L d          26.443  31.880  28.158  0.00  0.00     0.057 H 
ATOM     30  H20 Y8L d          26.395  33.116  26.855  0.00  0.00     0.057 H 
ENDBRANCH  25  27
BRANCH  26  31
ATOM     31  C27 Y8L d          25.832  29.672  27.306  0.00  0.00    -0.036 C 
ATOM     32  H21 Y8L d          25.266  28.832  26.879  0.00  0.00     0.035 H 
ATOM     33  H22 Y8L d          25.150  30.516  27.490  0.00  0.00     0.035 H 
ATOM     34  H23 Y8L d          26.292  29.359  28.255  0.00  0.00     0.035 H 
ENDBRANCH  26  31
ENDBRANCH  15  21
ENDBRANCH  11  13
ENDBRANCH   6  11
BRANCH   1  35
ATOM     35  N16 Y8L d          21.043  24.179  29.123  0.00  0.00    -0.378 N 
ATOM     36  C17 Y8L d          21.479  23.056  29.976  0.00  0.00     0.018 C 
ATOM     37  C18 Y8L d          20.384  22.434  30.864  0.00  0.00     0.096 C 
ATOM     38  H1  Y8L d          21.873  22.265  29.320  0.00  0.00     0.066 H 
ATOM     39  H2  Y8L d          22.282  23.420  30.634  0.00  0.00     0.066 H 
ATOM     40  N19 Y8L d          19.080  23.095  30.701  0.00  0.00    -0.072 N 
ATOM     41  H3  Y8L d          20.693  22.520  31.916  0.00  0.00     0.078 H 
ATOM     42  H4  Y8L d          20.276  21.372  30.598  0.00  0.00     0.078 H 
ATOM     43  C20 Y8L d          19.276  24.534  30.810  0.00  0.00     0.096 C 
ATOM     44  H5  Y8L d          18.448  22.782  31.421  0.00  0.00     0.277 HD
ATOM     45  H6  Y8L d          18.696  22.871  29.797  0.00  0.00     0.277 HD
ATOM     46  C21 Y8L d          19.899  25.026  29.504  0.00  0.00     0.018 C 
ATOM     47  H7  Y8L d          19.949  24.756  31.651  0.00  0.00     0.078 H 
ATOM     48  H8  Y8L d          18.308  25.031  30.973  0.00  0.00     0.078 H 
ATOM     49  H9  Y8L d          20.245  26.062  29.636  0.00  0.00     0.066 H 
ATOM     50  H10 Y8L d          19.142  24.991  28.706  0.00  0.00     0.066 H 
ENDBRANCH   1  35
TORSDOF 6
ENDMDL
MODEL 4
REMARK VINA RESULT:      -7.1      2.707      4.296
REMARK  6 active torsions:
REMARK  status: ('A' for Active; 'I' for Inactive)
REMARK    1  A    between atoms: N16_6  and  C12_7 
REMARK    2  A    between atoms: C9_12  and  N7_13 
REMARK    3  A    between atoms: N7_13  and  C4_14 
REMARK    4  A    between atoms: C6_19  and  C15_20 
REMARK    5  A    between atoms: N25_24  and  C29_25 
REMARK    6  A    between atoms: C26_26  and  C27_27 
ROOT
ATOM      1  C12 Y8L d          26.264  28.612  26.285  0.00  0.00     0.030 A 
ATOM      2  C13 Y8L d          27.199  27.748  26.858  0.00  0.00    -0.055 A 
ATOM      3  C14 Y8L d          27.408  26.462  26.337  0.00  0.00    -0.054 A 
ATOM      4  C11 Y8L d          25.562  28.190  25.160  0.00  0.00    -0.055 A 
ATOM      5  C10 Y8L d          25.804  26.914  24.638  0.00  0.00    -0.054 A 
ATOM      6  C9  Y8L d          26.706  26.022  25.225  0.00  0.00     0.049 A 
ATOM      7  H11 Y8L d          27.772  28.075  27.719  0.00  0.00     0.087 H 
ATOM      8  H12 Y8L d          28.129  25.805  26.810  0.00  0.00     0.087 H 
ATOM      9  H13 Y8L d          24.834  28.844  24.692  0.00  0.00     0.087 H 
ATOM     10  H14 Y8L d          25.273  26.605  23.745  0.00  0.00     0.087 H 
ENDROOT
BRANCH   6  11
ATOM     11  N7  Y8L d          26.881  24.815  24.657  0.00  0.00    -0.188 N 
ATOM     12  H15 Y8L d          27.733  24.698  24.090  0.00  0.00     0.184 HD
BRANCH  11  13
ATOM     13  C4  Y8L d          26.072  23.741  24.742  0.00  0.00     0.727 A 
ATOM     14  N5  Y8L d          24.856  23.738  25.328  0.00  0.00    -0.061 NA
ATOM     15  C6  Y8L d          24.098  22.625  25.396  0.00  0.00     0.096 A 
ATOM     16  C1  Y8L d          24.555  21.474  24.753  0.00  0.00    -0.036 A 
ATOM     17  C2  Y8L d          25.783  21.507  24.115  0.00  0.00     0.023 A 
ATOM     18  H17 Y8L d          23.958  20.569  24.753  0.00  0.00     0.089 H 
ATOM     19  N3  Y8L d          26.492  22.625  24.116  0.00  0.00    -0.075 NA
ATOM     20  H16 Y8L d          26.162  20.622  23.617  0.00  0.00     0.115 H 
BRANCH  15  21
ATOM     21  C15 Y8L d          22.819  22.618  25.977  0.00  0.00     0.062 A 
ATOM     22  S23 Y8L d          21.669  21.339  25.917  0.00  0.00    -0.025 SA
ATOM     23  C24 Y8L d          20.463  22.229  26.705  0.00  0.00     0.291 A 
ATOM     24  O28 Y8L d          19.348  21.816  27.011  0.00  0.00    -0.259 OA
ATOM     25  N25 Y8L d          20.934  23.437  27.027  0.00  0.00    -0.316 N 
ATOM     26  C26 Y8L d          22.194  23.684  26.646  0.00  0.00     0.030 A 
BRANCH  25  27
ATOM     27  C29 Y8L d          20.102  24.434  27.760  0.00  0.00    -0.011 C 
ATOM     28  H18 Y8L d          20.047  25.365  27.176  0.00  0.00     0.057 H 
ATOM     29  H19 Y8L d          20.558  24.643  28.739  0.00  0.00     0.057 H 
ATOM     30  H20 Y8L d          19.090  24.031  27.905  0.00  0.00     0.057 H 
ENDBRANCH  25  27
BRANCH  26  31
ATOM     31  C27 Y8L d          22.869  25.024  26.951  0.00  0.00    -0.036 C 
ATOM     32  H21 Y8L d          22.103  25.808  27.041  0.00  0.00     0.035 H 
ATOM     33  H22 Y8L d          23.561  25.280  26.136  0.00  0.00     0.035 H 
ATOM     34  H23 Y8L d          23.427  24.947  27.896  0.00  0.00     0.035 H 
ENDBRANCH  26  31
ENDBRANCH  15  21
ENDBRANCH  11  13
ENDBRANCH   6  11
BRANCH   1  35
ATOM     35  N16 Y8L d          26.018  29.887  26.841  0.00  0.00    -0.378 N 
ATOM     36  C17 Y8L d          25.283  29.972  28.118  0.00  0.00     0.018 C 
ATOM     37  C18 Y8L d          24.703  31.358  28.458  0.00  0.00     0.096 C 
ATOM     38  H1  Y8L d          24.450  29.255  28.079  0.00  0.00     0.066 H 
ATOM     39  H2  Y8L d          25.974  29.687  28.926  0.00  0.00     0.066 H 
ATOM     40  N19 Y8L d          25.001  32.365  27.429  0.00  0.00    -0.072 N 
ATOM     41  H3  Y8L d          25.130  31.694  29.414  0.00  0.00     0.078 H 
ATOM     42  H4  Y8L d          23.610  31.267  28.557  0.00  0.00     0.078 H 
ATOM     43  C20 Y8L d          26.424  32.306  27.125  0.00  0.00     0.096 C 
ATOM     44  H5  Y8L d          24.764  33.283  27.772  0.00  0.00     0.277 HD
ATOM     45  H6  Y8L d          24.466  32.170  26.596  0.00  0.00     0.277 HD
ATOM     46  C21 Y8L d          26.671  31.072  26.256  0.00  0.00     0.018 C 
ATOM     47  H7  Y8L d          27.001  32.227  28.057  0.00  0.00     0.078 H 
ATOM     48  H8  Y8L d          26.728  33.213  26.580  0.00  0.00     0.078 H 
ATOM     49  H9  Y8L d          27.753  30.890  26.186  0.00  0.00     0.066 H 
ATOM     50  H10 Y8L d          26.262  31.250  25.250  0.00  0.00     0.066 H 
ENDBRANCH   1  35
TORSDOF 6
ENDMDL
MODEL 5
REMARK VINA RESULT:      -6.9      3.885      9.000
REMARK  6 active torsions:
REMARK  status: ('A' for Active; 'I' for Inactive)
REMARK    1  A    between atoms: N16_6  and  C12_7 
REMARK    2  A    between atoms: C9_12  and  N7_13 
REMARK    3  A    between atoms: N7_13  and  C4_14 
REMARK    4  A    between atoms: C6_19  and  C15_20 
REMARK    5  A    between atoms: N25_24  and  C29_25 
REMARK    6  A    between atoms: C26_26  and  C27_27 
ROOT
ATOM      1  C12 Y8L d          22.004  23.682  27.238  0.00  0.00     0.030 A 
ATOM      2  C13 Y8L d          22.621  22.781  26.367  0.00  0.00    -0.055 A 
ATOM      3  C14 Y8L d          23.572  23.217  25.432  0.00  0.00    -0.054 A 
ATOM      4  C11 Y8L d          22.373  25.023  27.188  0.00  0.00    -0.055 A 
ATOM      5  C10 Y8L d          23.344  25.434  26.267  0.00  0.00    -0.054 A 
ATOM      6  C9  Y8L d          23.940  24.552  25.361  0.00  0.00     0.049 A 
ATOM      7  H11 Y8L d          22.362  21.730  26.414  0.00  0.00     0.087 H 
ATOM      8  H12 Y8L d          24.025  22.500  24.757  0.00  0.00     0.087 H 
ATOM      9  H13 Y8L d          21.913  25.743  27.856  0.00  0.00     0.087 H 
ATOM     10  H14 Y8L d          23.646  26.475  26.255  0.00  0.00     0.087 H 
ENDROOT
BRANCH   6  11
ATOM     11  N7  Y8L d          24.866  25.031  24.510  0.00  0.00    -0.188 N 
ATOM     12  H15 Y8L d          24.800  24.704  23.535  0.00  0.00     0.184 HD
BRANCH  11  13
ATOM     13  C4  Y8L d          25.870  25.886  24.783  0.00  0.00     0.727 A 
ATOM     14  N5  Y8L d          25.710  27.110  25.330  0.00  0.00    -0.061 NA
ATOM     15  C6  Y8L d          26.755  27.930  25.566  0.00  0.00     0.096 A 
ATOM     16  C1  Y8L d          28.041  27.448  25.322  0.00  0.00    -0.036 A 
ATOM     17  C2  Y8L d          28.190  26.172  24.806  0.00  0.00     0.023 A 
ATOM     18  H17 Y8L d          28.909  28.062  25.532  0.00  0.00     0.089 H 
ATOM     19  N3  Y8L d          27.119  25.433  24.565  0.00  0.00    -0.075 NA
ATOM     20  H16 Y8L d          29.180  25.780  24.600  0.00  0.00     0.115 H 
BRANCH  15  21
ATOM     21  C15 Y8L d          26.602  29.192  26.162  0.00  0.00     0.062 A 
ATOM     22  S23 Y8L d          27.519  30.608  25.821  0.00  0.00    -0.025 SA
ATOM     23  C24 Y8L d          26.779  31.523  27.038  0.00  0.00     0.291 A 
ATOM     24  O28 Y8L d          26.995  32.708  27.280  0.00  0.00    -0.259 OA
ATOM     25  N25 Y8L d          25.849  30.787  27.652  0.00  0.00    -0.316 N 
ATOM     26  C26 Y8L d          25.730  29.527  27.213  0.00  0.00     0.030 A 
BRANCH  25  27
ATOM     27  C29 Y8L d          25.009  31.340  28.752  0.00  0.00    -0.011 C 
ATOM     28  H18 Y8L d          25.610  31.418  29.669  0.00  0.00     0.057 H 
ATOM     29  H19 Y8L d          24.153  30.672  28.931  0.00  0.00     0.057 H 
ATOM     30  H20 Y8L d          24.643  32.337  28.468  0.00  0.00     0.057 H 
ENDBRANCH  25  27
BRANCH  26  31
ATOM     31  C27 Y8L d          24.703  28.566  27.818  0.00  0.00    -0.036 C 
ATOM     32  H21 Y8L d          23.823  28.508  27.162  0.00  0.00     0.035 H 
ATOM     33  H22 Y8L d          24.397  28.934  28.809  0.00  0.00     0.035 H 
ATOM     34  H23 Y8L d          25.151  27.567  27.921  0.00  0.00     0.035 H 
ENDBRANCH  26  31
ENDBRANCH  15  21
ENDBRANCH  11  13
ENDBRANCH   6  11
BRANCH   1  35
ATOM     35  N16 Y8L d          21.010  23.251  28.145  0.00  0.00    -0.378 N 
ATOM     36  C17 Y8L d          20.199  24.269  28.841  0.00  0.00     0.018 C 
ATOM     37  C18 Y8L d          19.436  23.772  30.083  0.00  0.00     0.096 C 
ATOM     38  H1  Y8L d          20.871  25.081  29.157  0.00  0.00     0.066 H 
ATOM     39  H2  Y8L d          19.461  24.663  28.125  0.00  0.00     0.066 H 
ATOM     40  N19 Y8L d          19.654  22.342  30.347  0.00  0.00    -0.072 N 
ATOM     41  H3  Y8L d          18.360  23.941  29.927  0.00  0.00     0.078 H 
ATOM     42  H4  Y8L d          19.774  24.348  30.958  0.00  0.00     0.078 H 
ATOM     43  C20 Y8L d          19.442  21.607  29.108  0.00  0.00     0.096 C 
ATOM     44  H5  Y8L d          19.004  22.022  31.049  0.00  0.00     0.277 HD
ATOM     45  H6  Y8L d          20.597  22.196  30.672  0.00  0.00     0.277 HD
ATOM     46  C21 Y8L d          20.665  21.821  28.216  0.00  0.00     0.018 C 
ATOM     47  H7  Y8L d          18.541  21.982  28.602  0.00  0.00     0.078 H 
ATOM     48  H8  Y8L d          19.321  20.535  29.326  0.00  0.00     0.078 H 
ATOM     49  H9  Y8L d          20.443  21.452  27.204  0.00  0.00     0.066 H 
ATOM     50  H10 Y8L d          21.517  21.263  28.631  0.00  0.00     0.066 H 
ENDBRANCH   1  35
TORSDOF 6
ENDMDL
MODEL 6
REMARK VINA RESULT:      -6.8      2.585      4.261
REMARK  6 active torsions:
REMARK  status: ('A' for Active; 'I' for Inactive)
REMARK    1  A    between atoms: N16_6  and  C12_7 
REMARK    2  A    between atoms: C9_12  and  N7_13 
REMARK    3  A    between atoms: N7_13  and  C4_14 
REMARK    4  A    between atoms: C6_19  and  C15_20 
REMARK    5  A    between atoms: N25_24  and  C29_25 
REMARK    6  A    between atoms: C26_26  and  C27_27 
ROOT
ATOM      1  C12 Y8L d          26.576  27.949  25.747  0.00  0.00     0.030 A 
ATOM      2  C13 Y8L d          27.546  26.983  25.471  0.00  0.00    -0.055 A 
ATOM      3  C14 Y8L d          27.185  25.696  25.048  0.00  0.00    -0.054 A 
ATOM      4  C11 Y8L d          25.235  27.623  25.563  0.00  0.00    -0.055 A 
ATOM      5  C10 Y8L d          24.895  26.342  25.113  0.00  0.00    -0.054 A 
ATOM      6  C9  Y8L d          25.852  25.353  24.873  0.00  0.00     0.049 A 
ATOM      7  H11 Y8L d          28.595  27.232  25.585  0.00  0.00     0.087 H 
ATOM      8  H12 Y8L d          27.957  24.960  24.855  0.00  0.00     0.087 H 
ATOM      9  H13 Y8L d          24.461  28.356  25.765  0.00  0.00     0.087 H 
ATOM     10  H14 Y8L d          23.850  26.107  24.945  0.00  0.00     0.087 H 
ENDROOT
BRANCH   6  11
ATOM     11  N7  Y8L d          25.438  24.147  24.440  0.00  0.00    -0.188 N 
ATOM     12  H15 Y8L d          25.990  23.722  23.681  0.00  0.00     0.184 HD
BRANCH  11  13
ATOM     13  C4  Y8L d          24.387  23.431  24.883  0.00  0.00     0.727 A 
ATOM     14  N5  Y8L d          23.655  23.734  25.976  0.00  0.00    -0.061 NA
ATOM     15  C6  Y8L d          22.621  22.967  26.379  0.00  0.00     0.096 A 
ATOM     16  C1  Y8L d          22.249  21.886  25.579  0.00  0.00    -0.036 A 
ATOM     17  C2  Y8L d          22.981  21.618  24.435  0.00  0.00     0.023 A 
ATOM     18  H17 Y8L d          21.401  21.267  25.849  0.00  0.00     0.089 H 
ATOM     19  N3  Y8L d          24.007  22.391  24.116  0.00  0.00    -0.075 NA
ATOM     20  H16 Y8L d          22.715  20.778  23.804  0.00  0.00     0.115 H 
BRANCH  15  21
ATOM     21  C15 Y8L d          21.835  23.290  27.497  0.00  0.00     0.062 A 
ATOM     22  S23 Y8L d          20.919  22.197  28.460  0.00  0.00    -0.025 SA
ATOM     23  C24 Y8L d          20.237  23.421  29.410  0.00  0.00     0.291 A 
ATOM     24  O28 Y8L d          19.476  23.255  30.361  0.00  0.00    -0.259 OA
ATOM     25  N25 Y8L d          20.716  24.607  29.027  0.00  0.00    -0.316 N 
ATOM     26  C26 Y8L d          21.573  24.577  27.998  0.00  0.00     0.030 A 
BRANCH  25  27
ATOM     27  C29 Y8L d          20.316  25.873  29.706  0.00  0.00    -0.011 C 
ATOM     28  H18 Y8L d          21.003  26.074  30.541  0.00  0.00     0.057 H 
ATOM     29  H19 Y8L d          19.290  25.774  30.091  0.00  0.00     0.057 H 
ATOM     30  H20 Y8L d          20.360  26.704  28.987  0.00  0.00     0.057 H 
ENDBRANCH  25  27
BRANCH  26  31
ATOM     31  C27 Y8L d          22.208  25.859  27.452  0.00  0.00    -0.036 C 
ATOM     32  H21 Y8L d          22.288  25.792  26.358  0.00  0.00     0.035 H 
ATOM     33  H22 Y8L d          23.211  25.985  27.886  0.00  0.00     0.035 H 
ATOM     34  H23 Y8L d          21.580  26.722  27.722  0.00  0.00     0.035 H 
ENDBRANCH  26  31
ENDBRANCH  15  21
ENDBRANCH  11  13
ENDBRANCH   6  11
BRANCH   1  35
ATOM     35  N16 Y8L d          26.938  29.229  26.222  0.00  0.00    -0.378 N 
ATOM     36  C17 Y8L d          26.013  29.934  27.130  0.00  0.00     0.018 C 
ATOM     37  C18 Y8L d          26.261  31.447  27.284  0.00  0.00     0.096 C 
ATOM     38  H1  Y8L d          24.991  29.795  26.749  0.00  0.00     0.066 H 
ATOM     39  H2  Y8L d          26.099  29.474  28.126  0.00  0.00     0.066 H 
ATOM     40  N19 Y8L d          27.404  31.918  26.486  0.00  0.00    -0.072 N 
ATOM     41  H3  Y8L d          26.458  31.666  28.343  0.00  0.00     0.078 H 
ATOM     42  H4  Y8L d          25.358  31.986  26.959  0.00  0.00     0.078 H 
ATOM     43  C20 Y8L d          28.536  31.038  26.740  0.00  0.00     0.096 C 
ATOM     44  H5  Y8L d          27.639  32.861  26.753  0.00  0.00     0.277 HD
ATOM     45  H6  Y8L d          27.167  31.895  25.506  0.00  0.00     0.277 HD
ATOM     46  C21 Y8L d          28.301  29.733  25.977  0.00  0.00     0.018 C 
ATOM     47  H7  Y8L d          28.614  30.831  27.817  0.00  0.00     0.078 H 
ATOM     48  H8  Y8L d          29.464  31.513  26.389  0.00  0.00     0.078 H 
ATOM     49  H9  Y8L d          29.030  28.982  26.313  0.00  0.00     0.066 H 
ATOM     50  H10 Y8L d          28.431  29.916  24.900  0.00  0.00     0.066 H 
ENDBRANCH   1  35
TORSDOF 6
ENDMDL
MODEL 7
REMARK VINA RESULT:      -6.4      3.558      9.428
REMARK  6 active torsions:
REMARK  status: ('A' for Active; 'I' for Inactive)
REMARK    1  A    between atoms: N16_6  and  C12_7 
REMARK    2  A    between atoms: C9_12  and  N7_13 
REMARK    3  A    between atoms: N7_13  and  C4_14 
REMARK    4  A    between atoms: C6_19  and  C15_20 
REMARK    5  A    between atoms: N25_24  and  C29_25 
REMARK    6  A    between atoms: C26_26  and  C27_27 
ROOT
ATOM      1  C12 Y8L d          22.658  23.129  26.400  0.00  0.00     0.030 A 
ATOM      2  C13 Y8L d          22.838  24.502  26.582  0.00  0.00    -0.055 A 
ATOM      3  C14 Y8L d          23.819  25.203  25.866  0.00  0.00    -0.054 A 
ATOM      4  C11 Y8L d          23.450  22.467  25.465  0.00  0.00    -0.055 A 
ATOM      5  C10 Y8L d          24.405  23.190  24.740  0.00  0.00    -0.054 A 
ATOM      6  C9  Y8L d          24.624  24.555  24.942  0.00  0.00     0.049 A 
ATOM      7  H11 Y8L d          22.210  25.033  27.288  0.00  0.00     0.087 H 
ATOM      8  H12 Y8L d          23.949  26.265  26.038  0.00  0.00     0.087 H 
ATOM      9  H13 Y8L d          23.328  21.403  25.300  0.00  0.00     0.087 H 
ATOM     10  H14 Y8L d          24.997  22.672  23.994  0.00  0.00     0.087 H 
ENDROOT
BRANCH   6  11
ATOM     11  N7  Y8L d          25.562  25.174  24.199  0.00  0.00    -0.188 N 
ATOM     12  H15 Y8L d          25.693  24.816  23.242  0.00  0.00     0.184 HD
BRANCH  11  13
ATOM     13  C4  Y8L d          26.349  26.205  24.561  0.00  0.00     0.727 A 
ATOM     14  N5  Y8L d          25.963  27.225  25.356  0.00  0.00    -0.061 NA
ATOM     15  C6  Y8L d          26.795  28.240  25.670  0.00  0.00     0.096 A 
ATOM     16  C1  Y8L d          28.118  28.170  25.232  0.00  0.00    -0.036 A 
ATOM     17  C2  Y8L d          28.509  27.093  24.458  0.00  0.00     0.023 A 
ATOM     18  H17 Y8L d          28.826  28.948  25.494  0.00  0.00     0.089 H 
ATOM     19  N3  Y8L d          27.633  26.148  24.156  0.00  0.00    -0.075 NA
ATOM     20  H16 Y8L d          29.530  27.023  24.099  0.00  0.00     0.115 H 
BRANCH  15  21
ATOM     21  C15 Y8L d          26.413  29.290  26.521  0.00  0.00     0.062 A 
ATOM     22  S23 Y8L d          25.199  29.237  27.740  0.00  0.00    -0.025 SA
ATOM     23  C24 Y8L d          25.333  30.883  28.111  0.00  0.00     0.291 A 
ATOM     24  O28 Y8L d          24.711  31.476  28.990  0.00  0.00    -0.259 OA
ATOM     25  N25 Y8L d          26.288  31.437  27.360  0.00  0.00    -0.316 N 
ATOM     26  C26 Y8L d          26.886  30.613  26.489  0.00  0.00     0.030 A 
BRANCH  25  27
ATOM     27  C29 Y8L d          26.653  32.877  27.489  0.00  0.00    -0.011 C 
ATOM     28  H18 Y8L d          27.105  33.053  28.476  0.00  0.00     0.057 H 
ATOM     29  H19 Y8L d          25.750  33.495  27.383  0.00  0.00     0.057 H 
ATOM     30  H20 Y8L d          27.375  33.144  26.703  0.00  0.00     0.057 H 
ENDBRANCH  25  27
BRANCH  26  31
ATOM     31  C27 Y8L d          28.003  31.106  25.565  0.00  0.00    -0.036 C 
ATOM     32  H21 Y8L d          28.460  30.248  25.052  0.00  0.00     0.035 H 
ATOM     33  H22 Y8L d          28.767  31.628  26.159  0.00  0.00     0.035 H 
ATOM     34  H23 Y8L d          27.583  31.797  24.819  0.00  0.00     0.035 H 
ENDBRANCH  26  31
ENDBRANCH  15  21
ENDBRANCH  11  13
ENDBRANCH   6  11
BRANCH   1  35
ATOM     35  N16 Y8L d          21.705  22.413  27.157  0.00  0.00    -0.378 N 
ATOM     36  C17 Y8L d          20.738  21.553  26.447  0.00  0.00     0.018 C 
ATOM     37  C18 Y8L d          19.502  21.132  27.264  0.00  0.00     0.096 C 
ATOM     38  H1  Y8L d          20.389  22.098  25.558  0.00  0.00     0.066 H 
ATOM     39  H2  Y8L d          21.264  20.639  26.134  0.00  0.00     0.066 H 
ATOM     40  N19 Y8L d          19.516  21.670  28.633  0.00  0.00    -0.072 N 
ATOM     41  H3  Y8L d          19.472  20.034  27.318  0.00  0.00     0.078 H 
ATOM     42  H4  Y8L d          18.600  21.499  26.751  0.00  0.00     0.078 H 
ATOM     43  C20 Y8L d          20.819  21.392  29.223  0.00  0.00     0.096 C 
ATOM     44  H5  Y8L d          18.794  21.229  29.180  0.00  0.00     0.277 HD
ATOM     45  H6  Y8L d          19.359  22.666  28.609  0.00  0.00     0.277 HD
ATOM     46  C21 Y8L d          21.828  22.373  28.625  0.00  0.00     0.018 C 
ATOM     47  H7  Y8L d          21.120  20.360  28.991  0.00  0.00     0.078 H 
ATOM     48  H8  Y8L d          20.770  21.524  30.314  0.00  0.00     0.078 H 
ATOM     49  H9  Y8L d          22.845  22.054  28.894  0.00  0.00     0.066 H 
ATOM     50  H10 Y8L d          21.639  23.378  29.032  0.00  0.00     0.066 H 
ENDBRANCH   1  35
TORSDOF 6
ENDMDL
