MODEL 1
REMARK VINA RESULT:      -5.8      0.000      0.000
REMARK  2 active torsions:
REMARK  status: ('A' for Active; 'I' for Inactive)
REMARK    1  A    between atoms: C4_4  and  S_7 
REMARK    2  A    between atoms: S_7  and  N2_8 
ROOT
ATOM      1  C1  FBV d          14.907   6.831  15.447  0.00  0.00    -0.080 A 
ATOM      2  C2  FBV d          14.312   5.850  16.233  0.00  0.00    -0.081 A 
ATOM      3  C3  FBV d          14.848   4.555  16.336  0.00  0.00    -0.057 A 
ATOM      4  C4  FBV d          16.012   4.225  15.582  0.00  0.00     0.117 A 
ATOM      5  C5  FBV d          16.562   5.300  14.806  0.00  0.00     0.139 A 
ATOM      6  C6  FBV d          16.039   6.561  14.736  0.00  0.00    -0.044 A 
ATOM      7  F   FBV d          17.704   5.002  14.146  0.00  0.00    -0.204 F 
ATOM      8  H1  FBV d          14.468   7.821  15.400  0.00  0.00     0.083 H 
ATOM      9  H2  FBV d          13.408   6.090  16.782  0.00  0.00     0.083 H 
ATOM     10  H3  FBV d          14.382   3.817  16.978  0.00  0.00     0.086 H 
ATOM     11  H4  FBV d          16.510   7.327  14.131  0.00  0.00     0.088 H 
ENDROOT
BRANCH   4  12
ATOM     12  S   FBV d          16.747   2.628  15.646  0.00  0.00     0.259 S 
ATOM     13  O1  FBV d          18.101   2.860  16.183  0.00  0.00    -0.201 OA
ATOM     14  O2  FBV d          15.826   1.841  16.393  0.00  0.00    -0.201 OA
BRANCH  12  15
ATOM     15  N2  FBV d          16.819   2.069  14.145  0.00  0.00    -0.324 N 
ATOM     16  H5  FBV d          17.450   1.327  13.918  0.00  0.00     0.169 HD
ATOM     17  H6  FBV d          16.234   2.462  13.436  0.00  0.00     0.169 HD
ENDBRANCH  12  15
ENDBRANCH   4  12
TORSDOF 2
ENDMDL
MODEL 2
REMARK VINA RESULT:      -5.7      1.697      2.257
REMARK  2 active torsions:
REMARK  status: ('A' for Active; 'I' for Inactive)
REMARK    1  A    between atoms: C4_4  and  S_7 
REMARK    2  A    between atoms: S_7  and  N2_8 
ROOT
ATOM      1  C1  FBV d          14.007   5.904  16.712  0.00  0.00    -0.080 A 
ATOM      2  C2  FBV d          14.695   6.118  15.521  0.00  0.00    -0.081 A 
ATOM      3  C3  FBV d          15.656   5.209  15.046  0.00  0.00    -0.057 A 
ATOM      4  C4  FBV d          15.965   4.057  15.825  0.00  0.00     0.117 A 
ATOM      5  C5  FBV d          15.203   3.914  17.034  0.00  0.00     0.139 A 
ATOM      6  C6  FBV d          14.255   4.797  17.469  0.00  0.00    -0.044 A 
ATOM      7  F   FBV d          15.451   2.785  17.735  0.00  0.00    -0.204 F 
ATOM      8  H1  FBV d          13.267   6.624  17.041  0.00  0.00     0.083 H 
ATOM      9  H2  FBV d          14.483   7.010  14.943  0.00  0.00     0.083 H 
ATOM     10  H3  FBV d          16.156   5.383  14.100  0.00  0.00     0.086 H 
ATOM     11  H4  FBV d          13.714   4.623  18.392  0.00  0.00     0.088 H 
ENDROOT
BRANCH   4  12
ATOM     12  S   FBV d          17.158   2.871  15.310  0.00  0.00     0.259 S 
ATOM     13  O1  FBV d          18.317   3.096  16.195  0.00  0.00    -0.201 OA
ATOM     14  O2  FBV d          16.470   1.627  15.366  0.00  0.00    -0.201 OA
BRANCH  12  15
ATOM     15  N2  FBV d          17.536   3.195  13.787  0.00  0.00    -0.324 N 
ATOM     16  H5  FBV d          17.072   3.937  13.304  0.00  0.00     0.169 HD
ATOM     17  H6  FBV d          18.236   2.655  13.319  0.00  0.00     0.169 HD
ENDBRANCH  12  15
ENDBRANCH   4  12
TORSDOF 2
ENDMDL
MODEL 3
REMARK VINA RESULT:      -5.7      1.236      1.539
REMARK  2 active torsions:
REMARK  status: ('A' for Active; 'I' for Inactive)
REMARK    1  A    between atoms: C4_4  and  S_7 
REMARK    2  A    between atoms: S_7  and  N2_8 
ROOT
ATOM      1  C1  FBV d          15.339   6.781  14.426  0.00  0.00    -0.080 A 
ATOM      2  C2  FBV d          14.673   6.125  15.457  0.00  0.00    -0.081 A 
ATOM      3  C3  FBV d          15.077   4.859  15.914  0.00  0.00    -0.057 A 
ATOM      4  C4  FBV d          16.174   4.210  15.277  0.00  0.00     0.117 A 
ATOM      5  C5  FBV d          16.804   4.963  14.229  0.00  0.00     0.139 A 
ATOM      6  C6  FBV d          16.411   6.204  13.813  0.00  0.00    -0.044 A 
ATOM      7  F   FBV d          17.886   4.372  13.674  0.00  0.00    -0.204 F 
ATOM      8  H1  FBV d          15.001   7.761  14.108  0.00  0.00     0.083 H 
ATOM      9  H2  FBV d          13.818   6.605  15.921  0.00  0.00     0.083 H 
ATOM     10  H3  FBV d          14.560   4.383  16.739  0.00  0.00     0.086 H 
ATOM     11  H4  FBV d          16.938   6.717  13.016  0.00  0.00     0.088 H 
ENDROOT
BRANCH   4  12
ATOM     12  S   FBV d          16.743   2.623  15.779  0.00  0.00     0.259 S 
ATOM     13  O1  FBV d          16.551   1.764  14.596  0.00  0.00    -0.201 OA
ATOM     14  O2  FBV d          18.060   2.855  16.266  0.00  0.00    -0.201 OA
BRANCH  12  15
ATOM     15  N2  FBV d          15.813   2.137  16.991  0.00  0.00    -0.324 N 
ATOM     16  H5  FBV d          16.228   1.824  17.845  0.00  0.00     0.169 HD
ATOM     17  H6  FBV d          14.818   2.147  16.892  0.00  0.00     0.169 HD
ENDBRANCH  12  15
ENDBRANCH   4  12
TORSDOF 2
ENDMDL
MODEL 4
REMARK VINA RESULT:      -5.6      1.537      2.110
REMARK  2 active torsions:
REMARK  status: ('A' for Active; 'I' for Inactive)
REMARK    1  A    between atoms: C4_4  and  S_7 
REMARK    2  A    between atoms: S_7  and  N2_8 
ROOT
ATOM      1  C1  FBV d          15.659   7.239  14.230  0.00  0.00    -0.080 A 
ATOM      2  C2  FBV d          17.012   6.919  14.283  0.00  0.00    -0.081 A 
ATOM      3  C3  FBV d          17.465   5.705  14.826  0.00  0.00    -0.057 A 
ATOM      4  C4  FBV d          16.517   4.793  15.375  0.00  0.00     0.117 A 
ATOM      5  C5  FBV d          15.145   5.203  15.270  0.00  0.00     0.139 A 
ATOM      6  C6  FBV d          14.720   6.380  14.718  0.00  0.00    -0.044 A 
ATOM      7  F   FBV d          14.244   4.306  15.731  0.00  0.00    -0.204 F 
ATOM      8  H1  FBV d          15.348   8.183  13.796  0.00  0.00     0.083 H 
ATOM      9  H2  FBV d          17.736   7.625  13.894  0.00  0.00     0.083 H 
ATOM     10  H3  FBV d          18.522   5.465  14.828  0.00  0.00     0.086 H 
ATOM     11  H4  FBV d          13.665   6.623  14.669  0.00  0.00     0.088 H 
ENDROOT
BRANCH   4  12
ATOM     12  S   FBV d          16.996   3.255  16.080  0.00  0.00     0.259 S 
ATOM     13  O1  FBV d          18.465   3.336  16.194  0.00  0.00    -0.201 OA
ATOM     14  O2  FBV d          16.210   3.144  17.261  0.00  0.00    -0.201 OA
BRANCH  12  15
ATOM     15  N2  FBV d          16.569   2.099  15.055  0.00  0.00    -0.324 N 
ATOM     16  H5  FBV d          15.778   2.229  14.458  0.00  0.00     0.169 HD
ATOM     17  H6  FBV d          17.094   1.249  15.012  0.00  0.00     0.169 HD
ENDBRANCH  12  15
ENDBRANCH   4  12
TORSDOF 2
ENDMDL
MODEL 5
REMARK VINA RESULT:      -5.4      2.634      3.432
REMARK  2 active torsions:
REMARK  status: ('A' for Active; 'I' for Inactive)
REMARK    1  A    between atoms: C4_4  and  S_7 
REMARK    2  A    between atoms: S_7  and  N2_8 
ROOT
ATOM      1  C1  FBV d          14.302   2.855  17.366  0.00  0.00    -0.080 A 
ATOM      2  C2  FBV d          15.446   2.242  16.865  0.00  0.00    -0.081 A 
ATOM      3  C3  FBV d          16.290   2.885  15.944  0.00  0.00    -0.057 A 
ATOM      4  C4  FBV d          15.943   4.186  15.477  0.00  0.00     0.117 A 
ATOM      5  C5  FBV d          14.751   4.744  16.053  0.00  0.00     0.139 A 
ATOM      6  C6  FBV d          13.954   4.111  16.966  0.00  0.00    -0.044 A 
ATOM      7  F   FBV d          14.463   6.004  15.659  0.00  0.00    -0.204 F 
ATOM      8  H1  FBV d          13.680   2.329  18.081  0.00  0.00     0.083 H 
ATOM      9  H2  FBV d          15.693   1.239  17.195  0.00  0.00     0.083 H 
ATOM     10  H3  FBV d          17.192   2.398  15.592  0.00  0.00     0.086 H 
ATOM     11  H4  FBV d          13.069   4.596  17.361  0.00  0.00     0.088 H 
ENDROOT
BRANCH   4  12
ATOM     12  S   FBV d          16.938   5.063  14.321  0.00  0.00     0.259 S 
ATOM     13  O1  FBV d          16.011   5.435  13.236  0.00  0.00    -0.201 OA
ATOM     14  O2  FBV d          17.560   6.086  15.089  0.00  0.00    -0.201 OA
BRANCH  12  15
ATOM     15  N2  FBV d          18.060   4.052  13.785  0.00  0.00    -0.324 N 
ATOM     16  H5  FBV d          18.617   3.534  14.435  0.00  0.00     0.169 HD
ATOM     17  H6  FBV d          18.204   3.939  12.802  0.00  0.00     0.169 HD
ENDBRANCH  12  15
ENDBRANCH   4  12
TORSDOF 2
ENDMDL
MODEL 6
REMARK VINA RESULT:      -4.8      2.105      2.764
REMARK  2 active torsions:
REMARK  status: ('A' for Active; 'I' for Inactive)
REMARK    1  A    between atoms: C4_4  and  S_7 
REMARK    2  A    between atoms: S_7  and  N2_8 
ROOT
ATOM      1  C1  FBV d          15.732   6.759  14.023  0.00  0.00    -0.080 A 
ATOM      2  C2  FBV d          16.466   5.648  13.618  0.00  0.00    -0.081 A 
ATOM      3  C3  FBV d          16.355   4.409  14.271  0.00  0.00    -0.057 A 
ATOM      4  C4  FBV d          15.499   4.296  15.404  0.00  0.00     0.117 A 
ATOM      5  C5  FBV d          14.776   5.489  15.745  0.00  0.00     0.139 A 
ATOM      6  C6  FBV d          14.880   6.681  15.084  0.00  0.00    -0.044 A 
ATOM      7  F   FBV d          13.915   5.359  16.778  0.00  0.00    -0.204 F 
ATOM      8  H1  FBV d          15.840   7.696  13.488  0.00  0.00     0.083 H 
ATOM      9  H2  FBV d          17.142   5.741  12.776  0.00  0.00     0.083 H 
ATOM     10  H3  FBV d          16.915   3.550  13.918  0.00  0.00     0.086 H 
ATOM     11  H4  FBV d          14.300   7.543  15.395  0.00  0.00     0.088 H 
ENDROOT
BRANCH   4  12
ATOM     12  S   FBV d          15.304   2.785  16.284  0.00  0.00     0.259 S 
ATOM     13  O1  FBV d          13.844   2.598  16.390  0.00  0.00    -0.201 OA
ATOM     14  O2  FBV d          16.076   1.843  15.550  0.00  0.00    -0.201 OA
BRANCH  12  15
ATOM     15  N2  FBV d          15.956   2.983  17.735  0.00  0.00    -0.324 N 
ATOM     16  H5  FBV d          16.402   2.214  18.191  0.00  0.00     0.169 HD
ATOM     17  H6  FBV d          15.918   3.876  18.183  0.00  0.00     0.169 HD
ENDBRANCH  12  15
ENDBRANCH   4  12
TORSDOF 2
ENDMDL
MODEL 7
REMARK VINA RESULT:      -4.2      2.054      2.682
REMARK  2 active torsions:
REMARK  status: ('A' for Active; 'I' for Inactive)
REMARK    1  A    between atoms: C4_4  and  S_7 
REMARK    2  A    between atoms: S_7  and  N2_8 
ROOT
ATOM      1  C1  FBV d          17.740   6.801  14.134  0.00  0.00    -0.080 A 
ATOM      2  C2  FBV d          16.379   7.040  14.299  0.00  0.00    -0.081 A 
ATOM      3  C3  FBV d          15.545   6.137  14.978  0.00  0.00    -0.057 A 
ATOM      4  C4  FBV d          16.098   4.922  15.476  0.00  0.00     0.117 A 
ATOM      5  C5  FBV d          17.510   4.763  15.267  0.00  0.00     0.139 A 
ATOM      6  C6  FBV d          18.311   5.664  14.623  0.00  0.00    -0.044 A 
ATOM      7  F   FBV d          18.043   3.641  15.800  0.00  0.00    -0.204 F 
ATOM      8  H1  FBV d          18.352   7.527  13.611  0.00  0.00     0.083 H 
ATOM      9  H2  FBV d          15.951   7.950  13.893  0.00  0.00     0.083 H 
ATOM     10  H3  FBV d          14.494   6.360  15.120  0.00  0.00     0.086 H 
ATOM     11  H4  FBV d          19.373   5.480  14.504  0.00  0.00     0.088 H 
ENDROOT
BRANCH   4  12
ATOM     12  S   FBV d          15.126   3.731  16.333  0.00  0.00     0.259 S 
ATOM     13  O1  FBV d          13.822   4.390  16.539  0.00  0.00    -0.201 OA
ATOM     14  O2  FBV d          15.197   2.564  15.522  0.00  0.00    -0.201 OA
BRANCH  12  15
ATOM     15  N2  FBV d          15.843   3.441  17.736  0.00  0.00    -0.324 N 
ATOM     16  H5  FBV d          16.146   2.515  17.960  0.00  0.00     0.169 HD
ATOM     17  H6  FBV d          15.987   4.185  18.388  0.00  0.00     0.169 HD
ENDBRANCH  12  15
ENDBRANCH   4  12
TORSDOF 2
ENDMDL
MODEL 8
REMARK VINA RESULT:      -4.2      2.164      2.783
REMARK  2 active torsions:
REMARK  status: ('A' for Active; 'I' for Inactive)
REMARK    1  A    between atoms: C4_4  and  S_7 
REMARK    2  A    between atoms: S_7  and  N2_8 
ROOT
ATOM      1  C1  FBV d          17.747   6.078  13.869  0.00  0.00    -0.080 A 
ATOM      2  C2  FBV d          18.370   5.118  14.661  0.00  0.00    -0.081 A 
ATOM      3  C3  FBV d          17.649   4.330  15.574  0.00  0.00    -0.057 A 
ATOM      4  C4  FBV d          16.248   4.546  15.723  0.00  0.00     0.117 A 
ATOM      5  C5  FBV d          15.691   5.550  14.861  0.00  0.00     0.139 A 
ATOM      6  C6  FBV d          16.404   6.292  13.962  0.00  0.00    -0.044 A 
ATOM      7  F   FBV d          14.351   5.705  14.957  0.00  0.00    -0.204 F 
ATOM      8  H1  FBV d          18.337   6.661  13.171  0.00  0.00     0.083 H 
ATOM      9  H2  FBV d          19.441   4.975  14.572  0.00  0.00     0.083 H 
ATOM     10  H3  FBV d          18.152   3.567  16.158  0.00  0.00     0.086 H 
ATOM     11  H4  FBV d          15.915   7.033  13.339  0.00  0.00     0.088 H 
ENDROOT
BRANCH   4  12
ATOM     12  S   FBV d          15.270   3.609  16.846  0.00  0.00     0.259 S 
ATOM     13  O1  FBV d          16.189   2.587  17.381  0.00  0.00    -0.201 OA
ATOM     14  O2  FBV d          14.715   4.578  17.728  0.00  0.00    -0.201 OA
BRANCH  12  15
ATOM     15  N2  FBV d          14.089   2.927  16.004  0.00  0.00    -0.324 N 
ATOM     16  H5  FBV d          13.182   3.348  15.984  0.00  0.00     0.169 HD
ATOM     17  H6  FBV d          14.259   2.080  15.500  0.00  0.00     0.169 HD
ENDBRANCH  12  15
ENDBRANCH   4  12
TORSDOF 2
ENDMDL
MODEL 9
REMARK VINA RESULT:      -4.1      2.343      3.001
REMARK  2 active torsions:
REMARK  status: ('A' for Active; 'I' for Inactive)
REMARK    1  A    between atoms: C4_4  and  S_7 
REMARK    2  A    between atoms: S_7  and  N2_8 
ROOT
ATOM      1  C1  FBV d          17.290   4.691  13.272  0.00  0.00    -0.080 A 
ATOM      2  C2  FBV d          16.646   5.647  14.052  0.00  0.00    -0.081 A 
ATOM      3  C3  FBV d          15.960   5.305  15.229  0.00  0.00    -0.057 A 
ATOM      4  C4  FBV d          15.886   3.935  15.616  0.00  0.00     0.117 A 
ATOM      5  C5  FBV d          16.585   3.020  14.757  0.00  0.00     0.139 A 
ATOM      6  C6  FBV d          17.267   3.375  13.627  0.00  0.00    -0.044 A 
ATOM      7  F   FBV d          16.570   1.731  15.164  0.00  0.00    -0.204 F 
ATOM      8  H1  FBV d          17.816   4.996  12.375  0.00  0.00     0.083 H 
ATOM      9  H2  FBV d          16.674   6.686  13.741  0.00  0.00     0.083 H 
ATOM     10  H3  FBV d          15.492   6.072  15.835  0.00  0.00     0.086 H 
ATOM     11  H4  FBV d          17.776   2.629  13.027  0.00  0.00     0.088 H 
ENDROOT
BRANCH   4  12
ATOM     12  S   FBV d          15.044   3.416  17.070  0.00  0.00     0.259 S 
ATOM     13  O1  FBV d          15.969   2.469  17.721  0.00  0.00    -0.201 OA
ATOM     14  O2  FBV d          14.704   4.627  17.736  0.00  0.00    -0.201 OA
BRANCH  12  15
ATOM     15  N2  FBV d          13.700   2.673  16.612  0.00  0.00    -0.324 N 
ATOM     16  H5  FBV d          12.885   2.712  17.190  0.00  0.00     0.169 HD
ATOM     17  H6  FBV d          13.676   2.171  15.747  0.00  0.00     0.169 HD
ENDBRANCH  12  15
ENDBRANCH   4  12
TORSDOF 2
ENDMDL
MODEL 10
REMARK VINA RESULT:      -4.1      3.514      4.239
REMARK  2 active torsions:
REMARK  status: ('A' for Active; 'I' for Inactive)
REMARK    1  A    between atoms: C4_4  and  S_7 
REMARK    2  A    between atoms: S_7  and  N2_8 
ROOT
ATOM      1  C1  FBV d          16.452   2.331  16.167  0.00  0.00    -0.080 A 
ATOM      2  C2  FBV d          17.405   2.999  15.403  0.00  0.00    -0.081 A 
ATOM      3  C3  FBV d          17.220   4.326  14.982  0.00  0.00    -0.057 A 
ATOM      4  C4  FBV d          16.006   4.996  15.310  0.00  0.00     0.117 A 
ATOM      5  C5  FBV d          15.084   4.234  16.105  0.00  0.00     0.139 A 
ATOM      6  C6  FBV d          15.291   2.949  16.525  0.00  0.00    -0.044 A 
ATOM      7  F   FBV d          13.963   4.895  16.471  0.00  0.00    -0.204 F 
ATOM      8  H1  FBV d          16.634   1.310  16.479  0.00  0.00     0.083 H 
ATOM      9  H2  FBV d          18.315   2.480  15.126  0.00  0.00     0.083 H 
ATOM     10  H3  FBV d          17.991   4.835  14.414  0.00  0.00     0.086 H 
ATOM     11  H4  FBV d          14.550   2.435  17.128  0.00  0.00     0.088 H 
ENDROOT
BRANCH   4  12
ATOM     12  S   FBV d          15.688   6.655  14.819  0.00  0.00     0.259 S 
ATOM     13  O1  FBV d          14.747   6.537  13.688  0.00  0.00    -0.201 OA
ATOM     14  O2  FBV d          15.266   7.305  16.012  0.00  0.00    -0.201 OA
BRANCH  12  15
ATOM     15  N2  FBV d          17.078   7.291  14.337  0.00  0.00    -0.324 N 
ATOM     16  H5  FBV d          17.110   8.238  14.018  0.00  0.00     0.169 HD
ATOM     17  H6  FBV d          17.913   6.741  14.356  0.00  0.00     0.169 HD
ENDBRANCH  12  15
ENDBRANCH   4  12
TORSDOF 2
ENDMDL
