MODEL 1
REMARK VINA RESULT:      -7.1      0.000      0.000
REMARK  13 active torsions:
REMARK  status: ('A' for Active; 'I' for Inactive)
REMARK    1  A    between atoms: C7_15  and  C1_1 
REMARK    2  A    between atoms: N1_2  and  C5_11 
REMARK    3  A    between atoms: C11_21  and  N1_2 
REMARK    4  A    between atoms: C17_27  and  O1_3 
REMARK    5  A    between atoms: C3_7  and  C19_29 
REMARK    6  A    between atoms: N8_18  and  C4_9 
REMARK    7  A    between atoms: C4_9  and  C16_26 
REMARK    8  A    between atoms: N8_18  and  C13_23 
REMARK    9  A    between atoms: C15_25  and  N8_18 
REMARK   10  A    between atoms: C13_23  and  C14_24 
REMARK   11  A    between atoms: C15_25  and  C17_27 
REMARK   12  A    between atoms: C15_25  and  C18_28 
REMARK   13  A    between atoms: C15_25  and  C20_30 
ROOT
ATOM      1  S1  EML d          -0.447  34.027  80.364  0.00  0.00     0.029 SA
ATOM      2  N6  EML d          -0.498  34.447  81.868  0.00  0.00    -0.212 NA
ATOM      3  C11 EML d          -2.039  33.356  80.243  0.00  0.00     0.096 A 
ATOM      4  C12 EML d          -2.600  33.528  81.513  0.00  0.00    -0.023 A 
ATOM      5  C14 EML d          -1.706  34.139  82.393  0.00  0.00     0.071 A 
ATOM      6  H11 EML d          -3.610  33.221  81.782  0.00  0.00     0.091 H 
ENDROOT
BRANCH   5   7
ATOM      7  C13 EML d          -1.991  34.487  83.836  0.00  0.00     0.124 C 
ATOM      8  H12 EML d          -3.083  34.496  83.965  0.00  0.00     0.086 H 
ATOM      9  H13 EML d          -1.554  33.692  84.459  0.00  0.00     0.086 H 
BRANCH   7  10
ATOM     10  N8  EML d          -1.462  35.810  84.350  0.00  0.00    -0.056 N 
ATOM     11  H8  EML d          -0.822  36.017  83.598  0.00  0.00     0.281 HD
BRANCH  10  12
ATOM     12  C4  EML d          -2.367  36.954  84.217  0.00  0.00     0.082 C 
ATOM     13  H4  EML d          -2.438  37.410  85.216  0.00  0.00     0.075 H 
ATOM     14  H5  EML d          -3.346  36.543  83.931  0.00  0.00     0.075 H 
BRANCH  12  15
ATOM     15  C16 EML d          -2.082  38.075  83.260  0.00  0.00    -0.053 C 
ATOM     16  H14 EML d          -2.939  38.205  82.582  0.00  0.00     0.029 H 
ATOM     17  H15 EML d          -1.183  37.837  82.674  0.00  0.00     0.029 H 
ATOM     18  H16 EML d          -1.917  39.005  83.823  0.00  0.00     0.029 H 
ENDBRANCH  12  15
ENDBRANCH  10  12
BRANCH  10  19
ATOM     19  C15 EML d          -0.499  35.863  85.474  0.00  0.00     0.142 C 
BRANCH  19  20
ATOM     20  C17 EML d           0.940  36.167  84.998  0.00  0.00     0.047 C 
ATOM     21  H17 EML d           0.960  37.168  84.544  0.00  0.00     0.077 H 
ATOM     22  H18 EML d           1.614  36.146  85.868  0.00  0.00     0.077 H 
BRANCH  20  23
ATOM     23  O1  EML d           1.401  35.207  84.029  0.00  0.00    -0.398 OA
ATOM     24  H2  EML d           0.980  34.370  84.189  0.00  0.00     0.209 HD
ENDBRANCH  20  23
ENDBRANCH  19  20
BRANCH  19  25
ATOM     25  C18 EML d          -0.274  34.558  86.157  0.00  0.00    -0.043 C 
ATOM     26  H19 EML d           0.758  34.223  85.977  0.00  0.00     0.030 H 
ATOM     27  H20 EML d          -0.976  33.811  85.761  0.00  0.00     0.030 H 
ATOM     28  H21 EML d          -0.437  34.678  87.238  0.00  0.00     0.030 H 
ENDBRANCH  19  25
BRANCH  19  29
ATOM     29  C20 EML d          -0.978  36.808  86.613  0.00  0.00    -0.043 C 
ATOM     30  H25 EML d          -1.213  36.213  87.508  0.00  0.00     0.030 H 
ATOM     31  H26 EML d          -1.877  37.351  86.286  0.00  0.00     0.030 H 
ATOM     32  H27 EML d          -0.181  37.528  86.851  0.00  0.00     0.030 H 
ENDBRANCH  19  29
ENDBRANCH  10  19
ENDBRANCH   7  10
ENDBRANCH   5   7
BRANCH   3  33
ATOM     33  N1  EML d          -2.627  32.763  79.124  0.00  0.00    -0.331 N 
ATOM     34  H1  EML d          -2.334  33.106  78.198  0.00  0.00     0.168 HD
BRANCH  33  35
ATOM     35  C5  EML d          -3.573  31.748  79.156  0.00  0.00     0.176 A 
ATOM     36  C6  EML d          -4.061  31.170  77.983  0.00  0.00     0.181 A 
ATOM     37  N2  EML d          -3.794  31.497  76.648  0.00  0.00    -0.237 NA
ATOM     38  N3  EML d          -4.989  30.175  78.086  0.00  0.00    -0.299 N 
ATOM     39  C9  EML d          -4.594  30.638  75.983  0.00  0.00     0.032 A 
ATOM     40  C7  EML d          -5.359  29.783  76.818  0.00  0.00     0.071 A 
ATOM     41  H9  EML d          -4.648  30.604  74.895  0.00  0.00     0.118 H 
ATOM     42  C2  EML d          -5.497  29.688  79.272  0.00  0.00     0.011 A 
ATOM     43  C3  EML d          -5.039  30.265  80.433  0.00  0.00     0.049 A 
ATOM     44  H3  EML d          -6.228  28.881  79.288  0.00  0.00     0.115 H 
ATOM     45  N7  EML d          -4.114  31.295  80.344  0.00  0.00    -0.231 NA
BRANCH  40  46
ATOM     46  C1  EML d          -6.412  28.762  76.427  0.00  0.00     0.029 A 
ATOM     47  C8  EML d          -6.348  27.956  75.294  0.00  0.00     0.035 A 
ATOM     48  N5  EML d          -7.468  27.207  75.348  0.00  0.00    -0.187 NA
ATOM     49  H7  EML d          -5.568  27.934  74.534  0.00  0.00     0.118 H 
ATOM     50  N4  EML d          -8.212  27.479  76.436  0.00  0.00    -0.289 N 
ATOM     51  C10 EML d          -7.608  28.440  77.137  0.00  0.00     0.009 A 
ATOM     52  H6  EML d          -9.100  27.021  76.687  0.00  0.00     0.188 HD
ATOM     53  H10 EML d          -7.957  28.890  78.065  0.00  0.00     0.115 H 
ENDBRANCH  40  46
BRANCH  43  54
ATOM     54  C19 EML d          -5.496  29.803  81.773  0.00  0.00    -0.034 C 
ATOM     55  H22 EML d          -5.685  28.720  81.743  0.00  0.00     0.035 H 
ATOM     56  H23 EML d          -6.423  30.329  82.045  0.00  0.00     0.035 H 
ATOM     57  H24 EML d          -4.718  30.019  82.520  0.00  0.00     0.035 H 
ENDBRANCH  43  54
ENDBRANCH  33  35
ENDBRANCH   3  33
TORSDOF 13
ENDMDL
MODEL 2
REMARK VINA RESULT:      -6.8      2.176      3.233
REMARK  13 active torsions:
REMARK  status: ('A' for Active; 'I' for Inactive)
REMARK    1  A    between atoms: C7_15  and  C1_1 
REMARK    2  A    between atoms: N1_2  and  C5_11 
REMARK    3  A    between atoms: C11_21  and  N1_2 
REMARK    4  A    between atoms: C17_27  and  O1_3 
REMARK    5  A    between atoms: C3_7  and  C19_29 
REMARK    6  A    between atoms: N8_18  and  C4_9 
REMARK    7  A    between atoms: C4_9  and  C16_26 
REMARK    8  A    between atoms: N8_18  and  C13_23 
REMARK    9  A    between atoms: C15_25  and  N8_18 
REMARK   10  A    between atoms: C13_23  and  C14_24 
REMARK   11  A    between atoms: C15_25  and  C17_27 
REMARK   12  A    between atoms: C15_25  and  C18_28 
REMARK   13  A    between atoms: C15_25  and  C20_30 
ROOT
ATOM      1  S1  EML d          -4.816  31.916  85.285  0.00  0.00     0.029 SA
ATOM      2  N6  EML d          -4.133  33.311  85.437  0.00  0.00    -0.212 NA
ATOM      3  C11 EML d          -4.902  31.872  83.555  0.00  0.00     0.096 A 
ATOM      4  C12 EML d          -4.312  33.070  83.135  0.00  0.00    -0.023 A 
ATOM      5  C14 EML d          -3.897  33.846  84.217  0.00  0.00     0.071 A 
ATOM      6  H11 EML d          -4.192  33.359  82.093  0.00  0.00     0.091 H 
ENDROOT
BRANCH   5   7
ATOM      7  C13 EML d          -3.209  35.189  84.124  0.00  0.00     0.124 C 
ATOM      8  H12 EML d          -3.546  35.669  83.194  0.00  0.00     0.086 H 
ATOM      9  H13 EML d          -3.537  35.789  84.987  0.00  0.00     0.086 H 
BRANCH   7  10
ATOM     10  N8  EML d          -1.694  35.196  84.116  0.00  0.00    -0.056 N 
ATOM     11  H8  EML d          -1.541  34.199  84.090  0.00  0.00     0.281 HD
BRANCH  10  12
ATOM     12  C4  EML d          -1.064  35.569  82.848  0.00  0.00     0.082 C 
ATOM     13  H4  EML d           0.021  35.565  83.028  0.00  0.00     0.075 H 
ATOM     14  H5  EML d          -1.395  36.595  82.628  0.00  0.00     0.075 H 
BRANCH  12  15
ATOM     15  C16 EML d          -1.288  34.775  81.594  0.00  0.00    -0.053 C 
ATOM     16  H14 EML d          -0.545  35.067  80.837  0.00  0.00     0.029 H 
ATOM     17  H15 EML d          -2.300  34.972  81.211  0.00  0.00     0.029 H 
ATOM     18  H16 EML d          -1.183  33.703  81.816  0.00  0.00     0.029 H 
ENDBRANCH  12  15
ENDBRANCH  10  12
BRANCH  10  19
ATOM     19  C15 EML d          -0.925  35.501  85.344  0.00  0.00     0.142 C 
BRANCH  19  20
ATOM     20  C17 EML d          -0.548  34.224  86.131  0.00  0.00     0.047 C 
ATOM     21  H17 EML d           0.523  34.261  86.376  0.00  0.00     0.077 H 
ATOM     22  H18 EML d          -1.136  34.191  87.060  0.00  0.00     0.077 H 
BRANCH  20  23
ATOM     23  O1  EML d          -0.810  33.028  85.373  0.00  0.00    -0.398 OA
ATOM     24  H2  EML d          -0.741  32.271  85.943  0.00  0.00     0.209 HD
ENDBRANCH  20  23
ENDBRANCH  19  20
BRANCH  19  25
ATOM     25  C18 EML d          -1.696  36.229  86.392  0.00  0.00    -0.043 C 
ATOM     26  H19 EML d          -1.987  37.219  86.011  0.00  0.00     0.030 H 
ATOM     27  H20 EML d          -1.071  36.350  87.288  0.00  0.00     0.030 H 
ATOM     28  H21 EML d          -2.597  35.654  86.649  0.00  0.00     0.030 H 
ENDBRANCH  19  25
BRANCH  19  29
ATOM     29  C20 EML d           0.293  36.424  85.061  0.00  0.00    -0.043 C 
ATOM     30  H25 EML d           0.975  35.926  84.356  0.00  0.00     0.030 H 
ATOM     31  H26 EML d           0.824  36.630  86.002  0.00  0.00     0.030 H 
ATOM     32  H27 EML d          -0.058  37.371  84.624  0.00  0.00     0.030 H 
ENDBRANCH  19  29
ENDBRANCH  10  19
ENDBRANCH   7  10
ENDBRANCH   5   7
BRANCH   3  33
ATOM     33  N1  EML d          -5.452  30.867  82.757  0.00  0.00    -0.331 N 
ATOM     34  H1  EML d          -6.071  30.184  83.217  0.00  0.00     0.168 HD
BRANCH  33  35
ATOM     35  C5  EML d          -5.233  30.711  81.396  0.00  0.00     0.176 A 
ATOM     36  C6  EML d          -6.039  29.876  80.619  0.00  0.00     0.181 A 
ATOM     37  N2  EML d          -7.090  29.036  81.008  0.00  0.00    -0.237 NA
ATOM     38  N3  EML d          -5.770  29.771  79.286  0.00  0.00    -0.299 N 
ATOM     39  C9  EML d          -7.429  28.453  79.840  0.00  0.00     0.032 A 
ATOM     40  C7  EML d          -6.652  28.870  78.727  0.00  0.00     0.071 A 
ATOM     41  H9  EML d          -8.233  27.722  79.757  0.00  0.00     0.118 H 
ATOM     42  C2  EML d          -4.750  30.427  78.631  0.00  0.00     0.011 A 
ATOM     43  C3  EML d          -3.937  31.236  79.390  0.00  0.00     0.049 A 
ATOM     44  H3  EML d          -4.595  30.310  77.559  0.00  0.00     0.115 H 
ATOM     45  N7  EML d          -4.182  31.334  80.752  0.00  0.00    -0.231 NA
BRANCH  40  46
ATOM     46  C1  EML d          -6.695  28.373  77.295  0.00  0.00     0.029 A 
ATOM     47  C8  EML d          -5.900  28.866  76.263  0.00  0.00     0.035 A 
ATOM     48  N5  EML d          -6.258  28.140  75.185  0.00  0.00    -0.187 NA
ATOM     49  H7  EML d          -5.156  29.659  76.316  0.00  0.00     0.118 H 
ATOM     50  N4  EML d          -7.203  27.226  75.474  0.00  0.00    -0.289 N 
ATOM     51  C10 EML d          -7.516  27.331  76.767  0.00  0.00     0.009 A 
ATOM     52  H6  EML d          -7.616  26.557  74.809  0.00  0.00     0.188 HD
ATOM     53  H10 EML d          -8.251  26.740  77.311  0.00  0.00     0.115 H 
ENDBRANCH  40  46
BRANCH  43  54
ATOM     54  C19 EML d          -2.820  32.015  78.787  0.00  0.00    -0.034 C 
ATOM     55  H22 EML d          -3.093  32.316  77.765  0.00  0.00     0.035 H 
ATOM     56  H23 EML d          -1.914  31.392  78.756  0.00  0.00     0.035 H 
ATOM     57  H24 EML d          -2.628  32.912  79.394  0.00  0.00     0.035 H 
ENDBRANCH  43  54
ENDBRANCH  33  35
ENDBRANCH   3  33
TORSDOF 13
ENDMDL
MODEL 3
REMARK VINA RESULT:      -6.5      2.101      3.482
REMARK  13 active torsions:
REMARK  status: ('A' for Active; 'I' for Inactive)
REMARK    1  A    between atoms: C7_15  and  C1_1 
REMARK    2  A    between atoms: N1_2  and  C5_11 
REMARK    3  A    between atoms: C11_21  and  N1_2 
REMARK    4  A    between atoms: C17_27  and  O1_3 
REMARK    5  A    between atoms: C3_7  and  C19_29 
REMARK    6  A    between atoms: N8_18  and  C4_9 
REMARK    7  A    between atoms: C4_9  and  C16_26 
REMARK    8  A    between atoms: N8_18  and  C13_23 
REMARK    9  A    between atoms: C15_25  and  N8_18 
REMARK   10  A    between atoms: C13_23  and  C14_24 
REMARK   11  A    between atoms: C15_25  and  C17_27 
REMARK   12  A    between atoms: C15_25  and  C18_28 
REMARK   13  A    between atoms: C15_25  and  C20_30 
ROOT
ATOM      1  S1  EML d          -3.129  32.156  85.916  0.00  0.00     0.029 SA
ATOM      2  N6  EML d          -2.509  33.559  86.210  0.00  0.00    -0.212 NA
ATOM      3  C11 EML d          -3.905  32.539  84.416  0.00  0.00     0.096 A 
ATOM      4  C12 EML d          -3.593  33.883  84.183  0.00  0.00    -0.023 A 
ATOM      5  C14 EML d          -2.813  34.417  85.209  0.00  0.00     0.071 A 
ATOM      6  H11 EML d          -3.919  34.444  83.308  0.00  0.00     0.091 H 
ENDROOT
BRANCH   5   7
ATOM      7  C13 EML d          -2.286  35.832  85.270  0.00  0.00     0.124 C 
ATOM      8  H12 EML d          -3.019  36.434  85.827  0.00  0.00     0.086 H 
ATOM      9  H13 EML d          -1.335  35.807  85.822  0.00  0.00     0.086 H 
BRANCH   7  10
ATOM     10  N8  EML d          -2.029  36.536  83.953  0.00  0.00    -0.056 N 
ATOM     11  H8  EML d          -2.676  36.017  83.378  0.00  0.00     0.281 HD
BRANCH  10  12
ATOM     12  C4  EML d          -2.610  37.874  83.820  0.00  0.00     0.082 C 
ATOM     13  H4  EML d          -2.506  38.153  82.761  0.00  0.00     0.075 H 
ATOM     14  H5  EML d          -1.991  38.543  84.437  0.00  0.00     0.075 H 
BRANCH  12  15
ATOM     15  C16 EML d          -4.037  38.153  84.194  0.00  0.00    -0.053 C 
ATOM     16  H14 EML d          -4.256  39.219  84.032  0.00  0.00     0.029 H 
ATOM     17  H15 EML d          -4.194  37.902  85.253  0.00  0.00     0.029 H 
ATOM     18  H16 EML d          -4.705  37.543  83.569  0.00  0.00     0.029 H 
ENDBRANCH  12  15
ENDBRANCH  10  12
BRANCH  10  19
ATOM     19  C15 EML d          -0.794  36.277  83.177  0.00  0.00     0.142 C 
BRANCH  19  20
ATOM     20  C17 EML d           0.370  35.800  84.075  0.00  0.00     0.047 C 
ATOM     21  H17 EML d           0.657  36.619  84.750  0.00  0.00     0.077 H 
ATOM     22  H18 EML d           0.032  34.937  84.668  0.00  0.00     0.077 H 
BRANCH  20  23
ATOM     23  O1  EML d           1.521  35.410  83.301  0.00  0.00    -0.398 OA
ATOM     24  H2  EML d           2.172  35.026  83.876  0.00  0.00     0.209 HD
ENDBRANCH  20  23
ENDBRANCH  19  20
BRANCH  19  25
ATOM     25  C18 EML d          -0.175  37.492  82.577  0.00  0.00    -0.043 C 
ATOM     26  H19 EML d          -0.250  38.330  83.286  0.00  0.00     0.030 H 
ATOM     27  H20 EML d          -0.701  37.750  81.647  0.00  0.00     0.030 H 
ATOM     28  H21 EML d           0.884  37.293  82.357  0.00  0.00     0.030 H 
ENDBRANCH  19  25
BRANCH  19  29
ATOM     29  C20 EML d          -1.049  35.343  81.960  0.00  0.00    -0.043 C 
ATOM     30  H25 EML d          -0.140  34.761  81.748  0.00  0.00     0.030 H 
ATOM     31  H26 EML d          -1.309  35.950  81.081  0.00  0.00     0.030 H 
ATOM     32  H27 EML d          -1.878  34.658  82.191  0.00  0.00     0.030 H 
ENDBRANCH  19  29
ENDBRANCH  10  19
ENDBRANCH   7  10
ENDBRANCH   5   7
BRANCH   3  33
ATOM     33  N1  EML d          -4.682  31.694  83.622  0.00  0.00    -0.331 N 
ATOM     34  H1  EML d          -5.427  31.159  84.090  0.00  0.00     0.168 HD
BRANCH  33  35
ATOM     35  C5  EML d          -4.533  31.515  82.254  0.00  0.00     0.176 A 
ATOM     36  C6  EML d          -5.387  30.679  81.531  0.00  0.00     0.181 A 
ATOM     37  N2  EML d          -6.429  29.861  81.984  0.00  0.00    -0.237 NA
ATOM     38  N3  EML d          -5.186  30.551  80.188  0.00  0.00    -0.299 N 
ATOM     39  C9  EML d          -6.834  29.265  80.843  0.00  0.00     0.032 A 
ATOM     40  C7  EML d          -6.107  29.654  79.688  0.00  0.00     0.071 A 
ATOM     41  H9  EML d          -7.650  28.545  80.811  0.00  0.00     0.118 H 
ATOM     42  C2  EML d          -4.191  31.182  79.473  0.00  0.00     0.011 A 
ATOM     43  C3  EML d          -3.331  31.990  80.178  0.00  0.00     0.049 A 
ATOM     44  H3  EML d          -4.091  31.047  78.397  0.00  0.00     0.115 H 
ATOM     45  N7  EML d          -3.507  32.113  81.549  0.00  0.00    -0.231 NA
BRANCH  40  46
ATOM     46  C1  EML d          -6.228  29.136  78.267  0.00  0.00     0.029 A 
ATOM     47  C8  EML d          -7.245  28.299  77.815  0.00  0.00     0.035 A 
ATOM     48  N5  EML d          -6.967  28.105  76.510  0.00  0.00    -0.187 NA
ATOM     49  H7  EML d          -8.077  27.893  78.387  0.00  0.00     0.118 H 
ATOM     50  N4  EML d          -5.866  28.771  76.117  0.00  0.00    -0.289 N 
ATOM     51  C10 EML d          -5.363  29.422  77.167  0.00  0.00     0.009 A 
ATOM     52  H6  EML d          -5.475  28.776  75.163  0.00  0.00     0.188 HD
ATOM     53  H10 EML d          -4.471  30.046  77.183  0.00  0.00     0.115 H 
ENDBRANCH  40  46
BRANCH  43  54
ATOM     54  C19 EML d          -2.234  32.744  79.509  0.00  0.00    -0.034 C 
ATOM     55  H22 EML d          -2.396  33.824  79.644  0.00  0.00     0.035 H 
ATOM     56  H23 EML d          -2.228  32.506  78.435  0.00  0.00     0.035 H 
ATOM     57  H24 EML d          -1.269  32.460  79.954  0.00  0.00     0.035 H 
ENDBRANCH  43  54
ENDBRANCH  33  35
ENDBRANCH   3  33
TORSDOF 13
ENDMDL
MODEL 4
REMARK VINA RESULT:      -6.3      1.766      2.103
REMARK  13 active torsions:
REMARK  status: ('A' for Active; 'I' for Inactive)
REMARK    1  A    between atoms: C7_15  and  C1_1 
REMARK    2  A    between atoms: N1_2  and  C5_11 
REMARK    3  A    between atoms: C11_21  and  N1_2 
REMARK    4  A    between atoms: C17_27  and  O1_3 
REMARK    5  A    between atoms: C3_7  and  C19_29 
REMARK    6  A    between atoms: N8_18  and  C4_9 
REMARK    7  A    between atoms: C4_9  and  C16_26 
REMARK    8  A    between atoms: N8_18  and  C13_23 
REMARK    9  A    between atoms: C15_25  and  N8_18 
REMARK   10  A    between atoms: C13_23  and  C14_24 
REMARK   11  A    between atoms: C15_25  and  C17_27 
REMARK   12  A    between atoms: C15_25  and  C18_28 
REMARK   13  A    between atoms: C15_25  and  C20_30 
ROOT
ATOM      1  S1  EML d           0.409  34.248  80.577  0.00  0.00     0.029 SA
ATOM      2  N6  EML d           0.522  35.033  81.922  0.00  0.00    -0.212 NA
ATOM      3  C11 EML d          -1.317  34.116  80.514  0.00  0.00     0.096 A 
ATOM      4  C12 EML d          -1.771  34.780  81.659  0.00  0.00    -0.023 A 
ATOM      5  C14 EML d          -0.712  35.277  82.420  0.00  0.00     0.071 A 
ATOM      6  H11 EML d          -2.821  34.895  81.924  0.00  0.00     0.091 H 
ENDROOT
BRANCH   5   7
ATOM      7  C13 EML d          -0.844  36.057  83.708  0.00  0.00     0.124 C 
ATOM      8  H12 EML d          -1.737  35.684  84.230  0.00  0.00     0.086 H 
ATOM      9  H13 EML d           0.050  35.847  84.315  0.00  0.00     0.086 H 
BRANCH   7  10
ATOM     10  N8  EML d          -0.977  37.562  83.599  0.00  0.00    -0.056 N 
ATOM     11  H8  EML d          -1.164  37.624  82.611  0.00  0.00     0.281 HD
BRANCH  10  12
ATOM     12  C4  EML d          -2.223  38.132  84.116  0.00  0.00     0.082 C 
ATOM     13  H4  EML d          -2.371  39.085  83.587  0.00  0.00     0.075 H 
ATOM     14  H5  EML d          -2.054  38.329  85.185  0.00  0.00     0.075 H 
BRANCH  12  15
ATOM     15  C16 EML d          -3.525  37.390  84.024  0.00  0.00    -0.053 C 
ATOM     16  H14 EML d          -4.126  37.806  83.201  0.00  0.00     0.029 H 
ATOM     17  H15 EML d          -4.075  37.496  84.970  0.00  0.00     0.029 H 
ATOM     18  H16 EML d          -3.327  36.326  83.831  0.00  0.00     0.029 H 
ENDBRANCH  12  15
ENDBRANCH  10  12
BRANCH  10  19
ATOM     19  C15 EML d           0.215  38.439  83.650  0.00  0.00     0.142 C 
BRANCH  19  20
ATOM     20  C17 EML d           0.889  38.591  82.267  0.00  0.00     0.047 C 
ATOM     21  H17 EML d           1.834  39.140  82.390  0.00  0.00     0.077 H 
ATOM     22  H18 EML d           1.097  37.590  81.861  0.00  0.00     0.077 H 
BRANCH  20  23
ATOM     23  O1  EML d           0.053  39.305  81.337  0.00  0.00    -0.398 OA
ATOM     24  H2  EML d           0.563  39.539  80.570  0.00  0.00     0.209 HD
ENDBRANCH  20  23
ENDBRANCH  19  20
BRANCH  19  25
ATOM     25  C18 EML d           1.357  37.887  84.432  0.00  0.00    -0.043 C 
ATOM     26  H19 EML d           2.227  38.553  84.332  0.00  0.00     0.030 H 
ATOM     27  H20 EML d           1.614  36.888  84.050  0.00  0.00     0.030 H 
ATOM     28  H21 EML d           1.073  37.811  85.492  0.00  0.00     0.030 H 
ENDBRANCH  19  25
BRANCH  19  29
ATOM     29  C20 EML d          -0.087  39.802  84.334  0.00  0.00    -0.043 C 
ATOM     30  H25 EML d           0.858  40.282  84.630  0.00  0.00     0.030 H 
ATOM     31  H26 EML d          -0.708  39.635  85.226  0.00  0.00     0.030 H 
ATOM     32  H27 EML d          -0.624  40.455  83.630  0.00  0.00     0.030 H 
ENDBRANCH  19  29
ENDBRANCH  10  19
ENDBRANCH   7  10
ENDBRANCH   5   7
BRANCH   3  33
ATOM     33  N1  EML d          -2.085  33.476  79.539  0.00  0.00    -0.331 N 
ATOM     34  H1  EML d          -1.904  33.725  78.557  0.00  0.00     0.168 HD
BRANCH  33  35
ATOM     35  C5  EML d          -3.071  32.531  79.785  0.00  0.00     0.176 A 
ATOM     36  C6  EML d          -3.589  31.735  78.761  0.00  0.00     0.181 A 
ATOM     37  N2  EML d          -3.315  31.758  77.388  0.00  0.00    -0.237 NA
ATOM     38  N3  EML d          -4.555  30.824  79.072  0.00  0.00    -0.299 N 
ATOM     39  C9  EML d          -4.153  30.809  76.919  0.00  0.00     0.032 A 
ATOM     40  C7  EML d          -4.948  30.185  77.916  0.00  0.00     0.071 A 
ATOM     41  H9  EML d          -4.213  30.545  75.865  0.00  0.00     0.118 H 
ATOM     42  C2  EML d          -5.076  30.624  80.332  0.00  0.00     0.011 A 
ATOM     43  C3  EML d          -4.590  31.417  81.344  0.00  0.00     0.049 A 
ATOM     44  H3  EML d          -5.840  29.871  80.519  0.00  0.00     0.115 H 
ATOM     45  N7  EML d          -3.623  32.366  81.040  0.00  0.00    -0.231 NA
BRANCH  40  46
ATOM     46  C1  EML d          -6.043  29.148  77.749  0.00  0.00     0.029 A 
ATOM     47  C8  EML d          -6.377  28.539  76.542  0.00  0.00     0.035 A 
ATOM     48  N5  EML d          -7.380  27.694  76.857  0.00  0.00    -0.187 NA
ATOM     49  H7  EML d          -5.929  28.708  75.564  0.00  0.00     0.118 H 
ATOM     50  N4  EML d          -7.680  27.722  78.168  0.00  0.00    -0.289 N 
ATOM     51  C10 EML d          -6.887  28.612  78.768  0.00  0.00     0.009 A 
ATOM     52  H6  EML d          -8.402  27.153  78.632  0.00  0.00     0.188 HD
ATOM     53  H10 EML d          -6.884  28.876  79.824  0.00  0.00     0.115 H 
ENDBRANCH  40  46
BRANCH  43  54
ATOM     54  C19 EML d          -5.058  31.273  82.751  0.00  0.00    -0.034 C 
ATOM     55  H22 EML d          -5.846  32.014  82.953  0.00  0.00     0.035 H 
ATOM     56  H23 EML d          -4.215  31.439  83.437  0.00  0.00     0.035 H 
ATOM     57  H24 EML d          -5.461  30.260  82.902  0.00  0.00     0.035 H 
ENDBRANCH  43  54
ENDBRANCH  33  35
ENDBRANCH   3  33
TORSDOF 13
ENDMDL
MODEL 5
REMARK VINA RESULT:      -6.1      2.498      3.983
REMARK  13 active torsions:
REMARK  status: ('A' for Active; 'I' for Inactive)
REMARK    1  A    between atoms: C7_15  and  C1_1 
REMARK    2  A    between atoms: N1_2  and  C5_11 
REMARK    3  A    between atoms: C11_21  and  N1_2 
REMARK    4  A    between atoms: C17_27  and  O1_3 
REMARK    5  A    between atoms: C3_7  and  C19_29 
REMARK    6  A    between atoms: N8_18  and  C4_9 
REMARK    7  A    between atoms: C4_9  and  C16_26 
REMARK    8  A    between atoms: N8_18  and  C13_23 
REMARK    9  A    between atoms: C15_25  and  N8_18 
REMARK   10  A    between atoms: C13_23  and  C14_24 
REMARK   11  A    between atoms: C15_25  and  C17_27 
REMARK   12  A    between atoms: C15_25  and  C18_28 
REMARK   13  A    between atoms: C15_25  and  C20_30 
ROOT
ATOM      1  S1  EML d          -1.987  32.127  85.555  0.00  0.00     0.029 SA
ATOM      2  N6  EML d          -0.875  33.224  85.594  0.00  0.00    -0.212 NA
ATOM      3  C11 EML d          -3.331  33.154  85.184  0.00  0.00     0.096 A 
ATOM      4  C12 EML d          -2.785  34.438  85.079  0.00  0.00    -0.023 A 
ATOM      5  C14 EML d          -1.411  34.435  85.316  0.00  0.00     0.071 A 
ATOM      6  H11 EML d          -3.363  35.330  84.841  0.00  0.00     0.091 H 
ENDROOT
BRANCH   5   7
ATOM      7  C13 EML d          -0.506  35.645  85.269  0.00  0.00     0.124 C 
ATOM      8  H12 EML d          -0.686  36.228  86.184  0.00  0.00     0.086 H 
ATOM      9  H13 EML d           0.533  35.281  85.263  0.00  0.00     0.086 H 
BRANCH   7  10
ATOM     10  N8  EML d          -0.664  36.586  84.092  0.00  0.00    -0.056 N 
ATOM     11  H8  EML d          -1.427  36.117  83.628  0.00  0.00     0.281 HD
BRANCH  10  12
ATOM     12  C4  EML d          -1.311  37.868  84.383  0.00  0.00     0.082 C 
ATOM     13  H4  EML d          -0.763  38.628  83.807  0.00  0.00     0.075 H 
ATOM     14  H5  EML d          -1.169  38.050  85.459  0.00  0.00     0.075 H 
BRANCH  12  15
ATOM     15  C16 EML d          -2.768  38.094  84.104  0.00  0.00    -0.053 C 
ATOM     16  H14 EML d          -3.306  38.233  85.055  0.00  0.00     0.029 H 
ATOM     17  H15 EML d          -3.180  37.224  83.573  0.00  0.00     0.029 H 
ATOM     18  H16 EML d          -2.888  38.993  83.482  0.00  0.00     0.029 H 
ENDBRANCH  12  15
ENDBRANCH  10  12
BRANCH  10  19
ATOM     19  C15 EML d           0.306  36.580  82.974  0.00  0.00     0.142 C 
BRANCH  19  20
ATOM     20  C17 EML d          -0.067  35.553  81.881  0.00  0.00     0.047 C 
ATOM     21  H17 EML d           0.755  35.494  81.153  0.00  0.00     0.077 H 
ATOM     22  H18 EML d          -0.212  34.569  82.351  0.00  0.00     0.077 H 
BRANCH  20  23
ATOM     23  O1  EML d          -1.276  35.919  81.189  0.00  0.00    -0.398 OA
ATOM     24  H2  EML d          -2.028  35.688  81.722  0.00  0.00     0.209 HD
ENDBRANCH  20  23
ENDBRANCH  19  20
BRANCH  19  25
ATOM     25  C18 EML d           1.664  36.087  83.336  0.00  0.00    -0.043 C 
ATOM     26  H19 EML d           1.805  36.166  84.424  0.00  0.00     0.030 H 
ATOM     27  H20 EML d           2.424  36.694  82.823  0.00  0.00     0.030 H 
ATOM     28  H21 EML d           1.767  35.036  83.028  0.00  0.00     0.030 H 
ENDBRANCH  19  25
BRANCH  19  29
ATOM     29  C20 EML d           0.561  38.006  82.409  0.00  0.00    -0.043 C 
ATOM     30  H25 EML d           0.635  37.959  81.312  0.00  0.00     0.030 H 
ATOM     31  H26 EML d           1.499  38.403  82.823  0.00  0.00     0.030 H 
ATOM     32  H27 EML d          -0.273  38.667  82.692  0.00  0.00     0.030 H 
ENDBRANCH  19  29
ENDBRANCH  10  19
ENDBRANCH   7  10
ENDBRANCH   5   7
BRANCH   3  33
ATOM     33  N1  EML d          -4.669  32.781  85.036  0.00  0.00    -0.331 N 
ATOM     34  H1  EML d          -5.364  33.277  85.612  0.00  0.00     0.168 HD
BRANCH  33  35
ATOM     35  C5  EML d          -5.139  31.798  84.177  0.00  0.00     0.176 A 
ATOM     36  C6  EML d          -4.823  31.808  82.817  0.00  0.00     0.181 A 
ATOM     37  N2  EML d          -4.102  32.751  82.075  0.00  0.00    -0.237 NA
ATOM     38  N3  EML d          -5.316  30.809  82.029  0.00  0.00    -0.299 N 
ATOM     39  C9  EML d          -4.184  32.247  80.826  0.00  0.00     0.032 A 
ATOM     40  C7  EML d          -4.920  31.037  80.728  0.00  0.00     0.071 A 
ATOM     41  H9  EML d          -3.724  32.729  79.964  0.00  0.00     0.118 H 
ATOM     42  C2  EML d          -6.118  29.778  82.469  0.00  0.00     0.011 A 
ATOM     43  C3  EML d          -6.453  29.770  83.802  0.00  0.00     0.049 A 
ATOM     44  H3  EML d          -6.470  29.002  81.790  0.00  0.00     0.115 H 
ATOM     45  N7  EML d          -5.979  30.792  84.613  0.00  0.00    -0.231 NA
BRANCH  40  46
ATOM     46  C1  EML d          -5.284  30.241  79.489  0.00  0.00     0.029 A 
ATOM     47  C8  EML d          -4.542  30.229  78.311  0.00  0.00     0.035 A 
ATOM     48  N5  EML d          -5.216  29.393  77.495  0.00  0.00    -0.187 NA
ATOM     49  H7  EML d          -3.623  30.773  78.097  0.00  0.00     0.118 H 
ATOM     50  N4  EML d          -6.310  28.876  78.084  0.00  0.00    -0.289 N 
ATOM     51  C10 EML d          -6.405  29.372  79.319  0.00  0.00     0.009 A 
ATOM     52  H6  EML d          -6.965  28.208  77.654  0.00  0.00     0.188 HD
ATOM     53  H10 EML d          -7.182  29.158  80.051  0.00  0.00     0.115 H 
ENDBRANCH  40  46
BRANCH  43  54
ATOM     54  C19 EML d          -7.290  28.692  84.396  0.00  0.00    -0.034 C 
ATOM     55  H22 EML d          -6.838  28.354  85.340  0.00  0.00     0.035 H 
ATOM     56  H23 EML d          -7.350  27.846  83.695  0.00  0.00     0.035 H 
ATOM     57  H24 EML d          -8.302  29.078  84.592  0.00  0.00     0.035 H 
ENDBRANCH  43  54
ENDBRANCH  33  35
ENDBRANCH   3  33
TORSDOF 13
ENDMDL
MODEL 6
REMARK VINA RESULT:      -6.1      1.674      2.169
REMARK  13 active torsions:
REMARK  status: ('A' for Active; 'I' for Inactive)
REMARK    1  A    between atoms: C7_15  and  C1_1 
REMARK    2  A    between atoms: N1_2  and  C5_11 
REMARK    3  A    between atoms: C11_21  and  N1_2 
REMARK    4  A    between atoms: C17_27  and  O1_3 
REMARK    5  A    between atoms: C3_7  and  C19_29 
REMARK    6  A    between atoms: N8_18  and  C4_9 
REMARK    7  A    between atoms: C4_9  and  C16_26 
REMARK    8  A    between atoms: N8_18  and  C13_23 
REMARK    9  A    between atoms: C15_25  and  N8_18 
REMARK   10  A    between atoms: C13_23  and  C14_24 
REMARK   11  A    between atoms: C15_25  and  C17_27 
REMARK   12  A    between atoms: C15_25  and  C18_28 
REMARK   13  A    between atoms: C15_25  and  C20_30 
ROOT
ATOM      1  S1  EML d           0.827  34.024  80.613  0.00  0.00     0.029 SA
ATOM      2  N6  EML d           1.094  35.032  81.776  0.00  0.00    -0.212 NA
ATOM      3  C11 EML d          -0.894  34.202  80.525  0.00  0.00     0.096 A 
ATOM      4  C12 EML d          -1.207  35.156  81.500  0.00  0.00    -0.023 A 
ATOM      5  C14 EML d          -0.069  35.594  82.177  0.00  0.00     0.071 A 
ATOM      6  H11 EML d          -2.216  35.513  81.704  0.00  0.00     0.091 H 
ENDROOT
BRANCH   5   7
ATOM      7  C13 EML d          -0.044  36.629  83.278  0.00  0.00     0.124 C 
ATOM      8  H12 EML d           0.783  36.371  83.956  0.00  0.00     0.086 H 
ATOM      9  H13 EML d           0.157  37.605  82.810  0.00  0.00     0.086 H 
BRANCH   7  10
ATOM     10  N8  EML d          -1.293  36.778  84.122  0.00  0.00    -0.056 N 
ATOM     11  H8  EML d          -0.994  37.551  84.696  0.00  0.00     0.281 HD
BRANCH  10  12
ATOM     12  C4  EML d          -2.441  37.401  83.458  0.00  0.00     0.082 C 
ATOM     13  H4  EML d          -3.199  36.612  83.346  0.00  0.00     0.075 H 
ATOM     14  H5  EML d          -2.091  37.717  82.464  0.00  0.00     0.075 H 
BRANCH  12  15
ATOM     15  C16 EML d          -3.147  38.584  84.054  0.00  0.00    -0.053 C 
ATOM     16  H14 EML d          -2.406  39.275  84.484  0.00  0.00     0.029 H 
ATOM     17  H15 EML d          -3.831  38.243  84.844  0.00  0.00     0.029 H 
ATOM     18  H16 EML d          -3.720  39.102  83.271  0.00  0.00     0.029 H 
ENDBRANCH  12  15
ENDBRANCH  10  12
BRANCH  10  19
ATOM     19  C15 EML d          -1.604  35.814  85.202  0.00  0.00     0.142 C 
BRANCH  19  20
ATOM     20  C17 EML d          -1.589  36.476  86.599  0.00  0.00     0.047 C 
ATOM     21  H17 EML d          -2.624  36.695  86.900  0.00  0.00     0.077 H 
ATOM     22  H18 EML d          -1.139  35.776  87.319  0.00  0.00     0.077 H 
BRANCH  20  23
ATOM     23  O1  EML d          -0.832  37.701  86.606  0.00  0.00    -0.398 OA
ATOM     24  H2  EML d          -0.558  37.898  87.494  0.00  0.00     0.209 HD
ENDBRANCH  20  23
ENDBRANCH  19  20
BRANCH  19  25
ATOM     25  C18 EML d          -0.572  34.759  85.406  0.00  0.00    -0.043 C 
ATOM     26  H19 EML d           0.158  34.796  84.584  0.00  0.00     0.030 H 
ATOM     27  H20 EML d          -1.056  33.772  85.422  0.00  0.00     0.030 H 
ATOM     28  H21 EML d          -0.057  34.931  86.362  0.00  0.00     0.030 H 
ENDBRANCH  19  25
BRANCH  19  29
ATOM     29  C20 EML d          -2.909  35.016  84.919  0.00  0.00    -0.043 C 
ATOM     30  H25 EML d          -3.742  35.718  84.763  0.00  0.00     0.030 H 
ATOM     31  H26 EML d          -3.134  34.366  85.777  0.00  0.00     0.030 H 
ATOM     32  H27 EML d          -2.775  34.401  84.017  0.00  0.00     0.030 H 
ENDBRANCH  19  29
ENDBRANCH  10  19
ENDBRANCH   7  10
ENDBRANCH   5   7
BRANCH   3  33
ATOM     33  N1  EML d          -1.775  33.529  79.676  0.00  0.00    -0.331 N 
ATOM     34  H1  EML d          -1.653  33.669  78.663  0.00  0.00     0.168 HD
BRANCH  33  35
ATOM     35  C5  EML d          -2.800  32.688  80.084  0.00  0.00     0.176 A 
ATOM     36  C6  EML d          -3.419  31.808  79.193  0.00  0.00     0.181 A 
ATOM     37  N2  EML d          -3.220  31.645  77.817  0.00  0.00    -0.237 NA
ATOM     38  N3  EML d          -4.419  31.007  79.661  0.00  0.00    -0.299 N 
ATOM     39  C9  EML d          -4.136  30.703  77.511  0.00  0.00     0.032 A 
ATOM     40  C7  EML d          -4.911  30.258  78.613  0.00  0.00     0.071 A 
ATOM     41  H9  EML d          -4.270  30.317  76.501  0.00  0.00     0.118 H 
ATOM     42  C2  EML d          -4.881  30.997  80.959  0.00  0.00     0.011 A 
ATOM     43  C3  EML d          -4.294  31.874  81.840  0.00  0.00     0.049 A 
ATOM     44  H3  EML d          -5.677  30.323  81.274  0.00  0.00     0.115 H 
ATOM     45  N7  EML d          -3.292  32.713  81.374  0.00  0.00    -0.231 NA
BRANCH  40  46
ATOM     46  C1  EML d          -6.073  29.283  78.629  0.00  0.00     0.029 A 
ATOM     47  C8  EML d          -6.706  28.790  77.491  0.00  0.00     0.035 A 
ATOM     48  N5  EML d          -7.658  27.961  77.966  0.00  0.00    -0.187 NA
ATOM     49  H7  EML d          -6.483  29.023  76.451  0.00  0.00     0.118 H 
ATOM     50  N4  EML d          -7.650  27.891  79.310  0.00  0.00    -0.289 N 
ATOM     51  C10 EML d          -6.692  28.696  79.774  0.00  0.00     0.009 A 
ATOM     52  H6  EML d          -8.280  27.313  79.886  0.00  0.00     0.188 HD
ATOM     53  H10 EML d          -6.434  28.870  80.817  0.00  0.00     0.115 H 
ENDBRANCH  40  46
BRANCH  43  54
ATOM     54  C19 EML d          -4.693  31.933  83.274  0.00  0.00    -0.034 C 
ATOM     55  H22 EML d          -4.378  31.009  83.781  0.00  0.00     0.035 H 
ATOM     56  H23 EML d          -5.785  32.037  83.347  0.00  0.00     0.035 H 
ATOM     57  H24 EML d          -4.209  32.797  83.754  0.00  0.00     0.035 H 
ENDBRANCH  43  54
ENDBRANCH  33  35
ENDBRANCH   3  33
TORSDOF 13
ENDMDL
MODEL 7
REMARK VINA RESULT:      -5.9      2.473      4.239
REMARK  13 active torsions:
REMARK  status: ('A' for Active; 'I' for Inactive)
REMARK    1  A    between atoms: C7_15  and  C1_1 
REMARK    2  A    between atoms: N1_2  and  C5_11 
REMARK    3  A    between atoms: C11_21  and  N1_2 
REMARK    4  A    between atoms: C17_27  and  O1_3 
REMARK    5  A    between atoms: C3_7  and  C19_29 
REMARK    6  A    between atoms: N8_18  and  C4_9 
REMARK    7  A    between atoms: C4_9  and  C16_26 
REMARK    8  A    between atoms: N8_18  and  C13_23 
REMARK    9  A    between atoms: C15_25  and  N8_18 
REMARK   10  A    between atoms: C13_23  and  C14_24 
REMARK   11  A    between atoms: C15_25  and  C17_27 
REMARK   12  A    between atoms: C15_25  and  C18_28 
REMARK   13  A    between atoms: C15_25  and  C20_30 
ROOT
ATOM      1  S1  EML d          -1.593  32.429  85.380  0.00  0.00     0.029 SA
ATOM      2  N6  EML d          -0.628  33.641  85.580  0.00  0.00    -0.212 NA
ATOM      3  C11 EML d          -3.040  33.321  85.049  0.00  0.00     0.096 A 
ATOM      4  C12 EML d          -2.654  34.665  85.096  0.00  0.00    -0.023 A 
ATOM      5  C14 EML d          -1.299  34.802  85.397  0.00  0.00     0.071 A 
ATOM      6  H11 EML d          -3.329  35.502  84.920  0.00  0.00     0.091 H 
ENDROOT
BRANCH   5   7
ATOM      7  C13 EML d          -0.550  36.109  85.513  0.00  0.00     0.124 C 
ATOM      8  H12 EML d          -1.297  36.913  85.584  0.00  0.00     0.086 H 
ATOM      9  H13 EML d           0.039  36.072  86.441  0.00  0.00     0.086 H 
BRANCH   7  10
ATOM     10  N8  EML d           0.399  36.469  84.387  0.00  0.00    -0.056 N 
ATOM     11  H8  EML d           0.711  37.362  84.735  0.00  0.00     0.281 HD
BRANCH  10  12
ATOM     12  C4  EML d           1.678  35.755  84.377  0.00  0.00     0.082 C 
ATOM     13  H4  EML d           1.948  35.619  83.320  0.00  0.00     0.075 H 
ATOM     14  H5  EML d           1.488  34.773  84.836  0.00  0.00     0.075 H 
BRANCH  12  15
ATOM     15  C16 EML d           2.895  36.312  85.057  0.00  0.00    -0.053 C 
ATOM     16  H14 EML d           2.992  35.865  86.058  0.00  0.00     0.029 H 
ATOM     17  H15 EML d           2.795  37.403  85.150  0.00  0.00     0.029 H 
ATOM     18  H16 EML d           3.788  36.074  84.462  0.00  0.00     0.029 H 
ENDBRANCH  12  15
ENDBRANCH  10  12
BRANCH  10  19
ATOM     19  C15 EML d          -0.113  36.915  83.071  0.00  0.00     0.142 C 
BRANCH  19  20
ATOM     20  C17 EML d          -0.171  35.760  82.044  0.00  0.00     0.047 C 
ATOM     21  H17 EML d           0.710  35.823  81.389  0.00  0.00     0.077 H 
ATOM     22  H18 EML d          -0.159  34.803  82.585  0.00  0.00     0.077 H 
BRANCH  20  23
ATOM     23  O1  EML d          -1.359  35.821  81.233  0.00  0.00    -0.398 OA
ATOM     24  H2  EML d          -2.109  36.009  81.785  0.00  0.00     0.209 HD
ENDBRANCH  20  23
ENDBRANCH  19  20
BRANCH  19  25
ATOM     25  C18 EML d           0.784  37.858  82.346  0.00  0.00    -0.043 C 
ATOM     26  H19 EML d           0.222  38.766  82.078  0.00  0.00     0.030 H 
ATOM     27  H20 EML d           1.160  37.377  81.431  0.00  0.00     0.030 H 
ATOM     28  H21 EML d           1.631  38.129  82.993  0.00  0.00     0.030 H 
ENDBRANCH  19  25
BRANCH  19  29
ATOM     29  C20 EML d          -1.456  37.689  83.194  0.00  0.00    -0.043 C 
ATOM     30  H25 EML d          -1.262  38.771  83.138  0.00  0.00     0.030 H 
ATOM     31  H26 EML d          -1.929  37.452  84.158  0.00  0.00     0.030 H 
ATOM     32  H27 EML d          -2.126  37.394  82.374  0.00  0.00     0.030 H 
ENDBRANCH  19  29
ENDBRANCH  10  19
ENDBRANCH   7  10
ENDBRANCH   5   7
BRANCH   3  33
ATOM     33  N1  EML d          -4.315  32.808  84.801  0.00  0.00    -0.331 N 
ATOM     34  H1  EML d          -5.053  33.027  85.485  0.00  0.00     0.168 HD
BRANCH  33  35
ATOM     35  C5  EML d          -4.670  32.029  83.709  0.00  0.00     0.176 A 
ATOM     36  C6  EML d          -4.068  32.205  82.461  0.00  0.00     0.181 A 
ATOM     37  N2  EML d          -3.126  33.157  82.051  0.00  0.00    -0.237 NA
ATOM     38  N3  EML d          -4.462  31.402  81.431  0.00  0.00    -0.299 N 
ATOM     39  C9  EML d          -2.979  32.860  80.744  0.00  0.00     0.032 A 
ATOM     40  C7  EML d          -3.776  31.775  80.294  0.00  0.00     0.071 A 
ATOM     41  H9  EML d          -2.305  33.408  80.087  0.00  0.00     0.118 H 
ATOM     42  C2  EML d          -5.424  30.419  81.518  0.00  0.00     0.011 A 
ATOM     43  C3  EML d          -6.038  30.251  82.737  0.00  0.00     0.049 A 
ATOM     44  H3  EML d          -5.685  29.802  80.660  0.00  0.00     0.115 H 
ATOM     45  N7  EML d          -5.666  31.076  83.789  0.00  0.00    -0.231 NA
BRANCH  40  46
ATOM     46  C1  EML d          -3.930  31.223  78.890  0.00  0.00     0.029 A 
ATOM     47  C8  EML d          -3.542  31.892  77.732  0.00  0.00     0.035 A 
ATOM     48  N5  EML d          -3.849  31.041  76.731  0.00  0.00    -0.187 NA
ATOM     49  H7  EML d          -3.092  32.880  77.652  0.00  0.00     0.118 H 
ATOM     50  N4  EML d          -4.383  29.892  77.184  0.00  0.00    -0.289 N 
ATOM     51  C10 EML d          -4.462  29.953  78.514  0.00  0.00     0.009 A 
ATOM     52  H6  EML d          -4.680  29.097  76.600  0.00  0.00     0.188 HD
ATOM     53  H10 EML d          -4.855  29.187  79.181  0.00  0.00     0.115 H 
ENDBRANCH  40  46
BRANCH  43  54
ATOM     54  C19 EML d          -7.072  29.202  82.957  0.00  0.00    -0.034 C 
ATOM     55  H22 EML d          -7.632  29.426  83.877  0.00  0.00     0.035 H 
ATOM     56  H23 EML d          -6.585  28.221  83.054  0.00  0.00     0.035 H 
ATOM     57  H24 EML d          -7.765  29.184  82.102  0.00  0.00     0.035 H 
ENDBRANCH  43  54
ENDBRANCH  33  35
ENDBRANCH   3  33
TORSDOF 13
ENDMDL
MODEL 8
REMARK VINA RESULT:      -5.8      2.298      3.871
REMARK  13 active torsions:
REMARK  status: ('A' for Active; 'I' for Inactive)
REMARK    1  A    between atoms: C7_15  and  C1_1 
REMARK    2  A    between atoms: N1_2  and  C5_11 
REMARK    3  A    between atoms: C11_21  and  N1_2 
REMARK    4  A    between atoms: C17_27  and  O1_3 
REMARK    5  A    between atoms: C3_7  and  C19_29 
REMARK    6  A    between atoms: N8_18  and  C4_9 
REMARK    7  A    between atoms: C4_9  and  C16_26 
REMARK    8  A    between atoms: N8_18  and  C13_23 
REMARK    9  A    between atoms: C15_25  and  N8_18 
REMARK   10  A    between atoms: C13_23  and  C14_24 
REMARK   11  A    between atoms: C15_25  and  C17_27 
REMARK   12  A    between atoms: C15_25  and  C18_28 
REMARK   13  A    between atoms: C15_25  and  C20_30 
ROOT
ATOM      1  S1  EML d          -1.718  32.611  85.091  0.00  0.00     0.029 SA
ATOM      2  N6  EML d          -0.888  33.924  85.252  0.00  0.00    -0.212 NA
ATOM      3  C11 EML d          -3.275  33.332  84.853  0.00  0.00     0.096 A 
ATOM      4  C12 EML d          -3.043  34.711  84.897  0.00  0.00    -0.023 A 
ATOM      5  C14 EML d          -1.697  35.001  85.124  0.00  0.00     0.071 A 
ATOM      6  H11 EML d          -3.818  35.466  84.771  0.00  0.00     0.091 H 
ENDROOT
BRANCH   5   7
ATOM      7  C13 EML d          -1.098  36.386  85.214  0.00  0.00     0.124 C 
ATOM      8  H12 EML d          -1.762  36.992  85.846  0.00  0.00     0.086 H 
ATOM      9  H13 EML d          -0.115  36.289  85.700  0.00  0.00     0.086 H 
BRANCH   7  10
ATOM     10  N8  EML d          -0.892  37.140  83.916  0.00  0.00    -0.056 N 
ATOM     11  H8  EML d          -1.589  36.671  83.359  0.00  0.00     0.281 HD
BRANCH  10  12
ATOM     12  C4  EML d          -1.429  38.502  83.878  0.00  0.00     0.082 C 
ATOM     13  H4  EML d          -1.108  38.934  82.919  0.00  0.00     0.075 H 
ATOM     14  H5  EML d          -0.950  39.048  84.704  0.00  0.00     0.075 H 
BRANCH  12  15
ATOM     15  C16 EML d          -2.901  38.770  83.991  0.00  0.00    -0.053 C 
ATOM     16  H14 EML d          -3.091  39.845  83.851  0.00  0.00     0.029 H 
ATOM     17  H15 EML d          -3.254  38.463  84.986  0.00  0.00     0.029 H 
ATOM     18  H16 EML d          -3.438  38.200  83.219  0.00  0.00     0.029 H 
ENDBRANCH  12  15
ENDBRANCH  10  12
BRANCH  10  19
ATOM     19  C15 EML d           0.286  36.876  83.058  0.00  0.00     0.142 C 
BRANCH  19  20
ATOM     20  C17 EML d           1.542  36.515  83.884  0.00  0.00     0.047 C 
ATOM     21  H17 EML d           2.417  37.008  83.435  0.00  0.00     0.077 H 
ATOM     22  H18 EML d           1.407  36.877  84.914  0.00  0.00     0.077 H 
BRANCH  20  23
ATOM     23  O1  EML d           1.775  35.094  83.918  0.00  0.00    -0.398 OA
ATOM     24  H2  EML d           0.976  34.649  84.176  0.00  0.00     0.209 HD
ENDBRANCH  20  23
ENDBRANCH  19  20
BRANCH  19  25
ATOM     25  C18 EML d           0.796  38.067  82.323  0.00  0.00    -0.043 C 
ATOM     26  H19 EML d           1.538  38.591  82.943  0.00  0.00     0.030 H 
ATOM     27  H20 EML d          -0.040  38.745  82.100  0.00  0.00     0.030 H 
ATOM     28  H21 EML d           1.266  37.743  81.383  0.00  0.00     0.030 H 
ENDBRANCH  19  25
BRANCH  19  29
ATOM     29  C20 EML d          -0.024  35.844  81.937  0.00  0.00    -0.043 C 
ATOM     30  H25 EML d          -1.079  35.539  82.001  0.00  0.00     0.030 H 
ATOM     31  H26 EML d           0.621  34.961  82.063  0.00  0.00     0.030 H 
ATOM     32  H27 EML d           0.167  36.301  80.955  0.00  0.00     0.030 H 
ENDBRANCH  19  29
ENDBRANCH  10  19
ENDBRANCH   7  10
ENDBRANCH   5   7
BRANCH   3  33
ATOM     33  N1  EML d          -4.495  32.677  84.671  0.00  0.00    -0.331 N 
ATOM     34  H1  EML d          -5.210  32.800  85.401  0.00  0.00     0.168 HD
BRANCH  33  35
ATOM     35  C5  EML d          -4.823  31.876  83.587  0.00  0.00     0.176 A 
ATOM     36  C6  EML d          -4.240  32.072  82.333  0.00  0.00     0.181 A 
ATOM     37  N2  EML d          -3.345  33.063  81.910  0.00  0.00    -0.237 NA
ATOM     38  N3  EML d          -4.605  31.246  81.310  0.00  0.00    -0.299 N 
ATOM     39  C9  EML d          -3.195  32.766  80.602  0.00  0.00     0.032 A 
ATOM     40  C7  EML d          -3.946  31.643  80.166  0.00  0.00     0.071 A 
ATOM     41  H9  EML d          -2.552  33.339  79.937  0.00  0.00     0.118 H 
ATOM     42  C2  EML d          -5.520  30.221  81.411  0.00  0.00     0.011 A 
ATOM     43  C3  EML d          -6.117  30.032  82.636  0.00  0.00     0.049 A 
ATOM     44  H3  EML d          -5.761  29.587  80.559  0.00  0.00     0.115 H 
ATOM     45  N7  EML d          -5.774  30.879  83.680  0.00  0.00    -0.231 NA
BRANCH  40  46
ATOM     46  C1  EML d          -4.086  31.076  78.766  0.00  0.00     0.029 A 
ATOM     47  C8  EML d          -3.652  31.716  77.608  0.00  0.00     0.035 A 
ATOM     48  N5  EML d          -3.963  30.861  76.612  0.00  0.00    -0.187 NA
ATOM     49  H7  EML d          -3.169  32.688  77.525  0.00  0.00     0.118 H 
ATOM     50  N4  EML d          -4.543  29.735  77.068  0.00  0.00    -0.289 N 
ATOM     51  C10 EML d          -4.650  29.818  78.396  0.00  0.00     0.009 A 
ATOM     52  H6  EML d          -4.853  28.942  76.489  0.00  0.00     0.188 HD
ATOM     53  H10 EML d          -5.082  29.074  79.064  0.00  0.00     0.115 H 
ENDBRANCH  40  46
BRANCH  43  54
ATOM     54  C19 EML d          -7.101  28.939  82.871  0.00  0.00    -0.034 C 
ATOM     55  H22 EML d          -7.951  29.329  83.449  0.00  0.00     0.035 H 
ATOM     56  H23 EML d          -6.618  28.126  83.433  0.00  0.00     0.035 H 
ATOM     57  H24 EML d          -7.460  28.554  81.904  0.00  0.00     0.035 H 
ENDBRANCH  43  54
ENDBRANCH  33  35
ENDBRANCH   3  33
TORSDOF 13
ENDMDL
MODEL 9
REMARK VINA RESULT:      -5.8      3.018      9.957
REMARK  13 active torsions:
REMARK  status: ('A' for Active; 'I' for Inactive)
REMARK    1  A    between atoms: C7_15  and  C1_1 
REMARK    2  A    between atoms: N1_2  and  C5_11 
REMARK    3  A    between atoms: C11_21  and  N1_2 
REMARK    4  A    between atoms: C17_27  and  O1_3 
REMARK    5  A    between atoms: C3_7  and  C19_29 
REMARK    6  A    between atoms: N8_18  and  C4_9 
REMARK    7  A    between atoms: C4_9  and  C16_26 
REMARK    8  A    between atoms: N8_18  and  C13_23 
REMARK    9  A    between atoms: C15_25  and  N8_18 
REMARK   10  A    between atoms: C13_23  and  C14_24 
REMARK   11  A    between atoms: C15_25  and  C17_27 
REMARK   12  A    between atoms: C15_25  and  C18_28 
REMARK   13  A    between atoms: C15_25  and  C20_30 
ROOT
ATOM      1  S1  EML d          -2.930  32.678  79.854  0.00  0.00     0.029 SA
ATOM      2  N6  EML d          -3.285  31.417  79.005  0.00  0.00    -0.212 NA
ATOM      3  C11 EML d          -3.991  32.382  81.189  0.00  0.00     0.096 A 
ATOM      4  C12 EML d          -4.626  31.172  80.884  0.00  0.00    -0.023 A 
ATOM      5  C14 EML d          -4.204  30.666  79.654  0.00  0.00     0.071 A 
ATOM      6  H11 EML d          -5.358  30.687  81.527  0.00  0.00     0.091 H 
ENDROOT
BRANCH   5   7
ATOM      7  C13 EML d          -4.674  29.374  79.026  0.00  0.00     0.124 C 
ATOM      8  H12 EML d          -3.961  29.116  78.229  0.00  0.00     0.086 H 
ATOM      9  H13 EML d          -4.649  28.599  79.807  0.00  0.00     0.086 H 
BRANCH   7  10
ATOM     10  N8  EML d          -6.061  29.361  78.417  0.00  0.00    -0.056 N 
ATOM     11  H8  EML d          -6.287  30.336  78.539  0.00  0.00     0.281 HD
BRANCH  10  12
ATOM     12  C4  EML d          -6.116  29.282  76.955  0.00  0.00     0.082 C 
ATOM     13  H4  EML d          -7.151  29.519  76.671  0.00  0.00     0.075 H 
ATOM     14  H5  EML d          -5.893  28.236  76.693  0.00  0.00     0.075 H 
BRANCH  12  15
ATOM     15  C16 EML d          -5.233  30.132  76.089  0.00  0.00    -0.053 C 
ATOM     16  H14 EML d          -4.183  29.998  76.391  0.00  0.00     0.029 H 
ATOM     17  H15 EML d          -5.515  31.189  76.203  0.00  0.00     0.029 H 
ATOM     18  H16 EML d          -5.352  29.832  75.037  0.00  0.00     0.029 H 
ENDBRANCH  12  15
ENDBRANCH  10  12
BRANCH  10  19
ATOM     19  C15 EML d          -7.210  28.779  79.148  0.00  0.00     0.142 C 
BRANCH  19  20
ATOM     20  C17 EML d          -8.074  29.861  79.836  0.00  0.00     0.047 C 
ATOM     21  H17 EML d          -7.535  30.820  79.803  0.00  0.00     0.077 H 
ATOM     22  H18 EML d          -9.025  29.956  79.292  0.00  0.00     0.077 H 
BRANCH  20  23
ATOM     23  O1  EML d          -8.355  29.532  81.209  0.00  0.00    -0.398 OA
ATOM     24  H2  EML d          -9.138  28.995  81.252  0.00  0.00     0.209 HD
ENDBRANCH  20  23
ENDBRANCH  19  20
BRANCH  19  25
ATOM     25  C18 EML d          -6.838  27.956  80.332  0.00  0.00    -0.043 C 
ATOM     26  H19 EML d          -5.770  28.096  80.555  0.00  0.00     0.030 H 
ATOM     27  H20 EML d          -7.031  26.895  80.117  0.00  0.00     0.030 H 
ATOM     28  H21 EML d          -7.437  28.269  81.199  0.00  0.00     0.030 H 
ENDBRANCH  19  25
BRANCH  19  29
ATOM     29  C20 EML d          -8.041  27.809  78.260  0.00  0.00    -0.043 C 
ATOM     30  H25 EML d          -8.154  26.845  78.777  0.00  0.00     0.030 H 
ATOM     31  H26 EML d          -7.523  27.653  77.303  0.00  0.00     0.030 H 
ATOM     32  H27 EML d          -9.034  28.243  78.073  0.00  0.00     0.030 H 
ENDBRANCH  19  29
ENDBRANCH  10  19
ENDBRANCH   7  10
ENDBRANCH   5   7
BRANCH   3  33
ATOM     33  N1  EML d          -4.181  33.183  82.318  0.00  0.00    -0.331 N 
ATOM     34  H1  EML d          -5.064  33.707  82.381  0.00  0.00     0.168 HD
BRANCH  33  35
ATOM     35  C5  EML d          -3.277  33.330  83.360  0.00  0.00     0.176 A 
ATOM     36  C6  EML d          -2.340  34.365  83.371  0.00  0.00     0.181 A 
ATOM     37  N2  EML d          -2.076  35.341  82.402  0.00  0.00    -0.237 NA
ATOM     38  N3  EML d          -1.482  34.453  84.428  0.00  0.00    -0.299 N 
ATOM     39  C9  EML d          -1.039  36.008  82.950  0.00  0.00     0.032 A 
ATOM     40  C7  EML d          -0.624  35.511  84.214  0.00  0.00     0.071 A 
ATOM     41  H9  EML d          -0.561  36.857  82.464  0.00  0.00     0.118 H 
ATOM     42  C2  EML d          -1.458  33.588  85.501  0.00  0.00     0.011 A 
ATOM     43  C3  EML d          -2.362  32.553  85.491  0.00  0.00     0.049 A 
ATOM     44  H3  EML d          -0.755  33.720  86.322  0.00  0.00     0.115 H 
ATOM     45  N7  EML d          -3.226  32.435  84.411  0.00  0.00    -0.231 NA
BRANCH  40  46
ATOM     46  C1  EML d           0.544  35.954  85.074  0.00  0.00     0.029 A 
ATOM     47  C8  EML d           1.771  35.298  85.138  0.00  0.00     0.035 A 
ATOM     48  N5  EML d           2.501  36.032  86.003  0.00  0.00    -0.187 NA
ATOM     49  H7  EML d           2.073  34.396  84.609  0.00  0.00     0.118 H 
ATOM     50  N4  EML d           1.825  37.099  86.465  0.00  0.00    -0.289 N 
ATOM     51  C10 EML d           0.604  37.097  85.928  0.00  0.00     0.009 A 
ATOM     52  H6  EML d           2.189  37.802  87.125  0.00  0.00     0.188 HD
ATOM     53  H10 EML d          -0.189  37.821  86.105  0.00  0.00     0.115 H 
ENDBRANCH  40  46
BRANCH  43  54
ATOM     54  C19 EML d          -2.447  31.572  86.608  0.00  0.00    -0.034 C 
ATOM     55  H22 EML d          -2.339  30.552  86.211  0.00  0.00     0.035 H 
ATOM     56  H23 EML d          -3.423  31.669  87.108  0.00  0.00     0.035 H 
ATOM     57  H24 EML d          -1.643  31.770  87.333  0.00  0.00     0.035 H 
ENDBRANCH  43  54
ENDBRANCH  33  35
ENDBRANCH   3  33
TORSDOF 13
ENDMDL
MODEL 10
REMARK VINA RESULT:      -5.7      3.281      9.855
REMARK  13 active torsions:
REMARK  status: ('A' for Active; 'I' for Inactive)
REMARK    1  A    between atoms: C7_15  and  C1_1 
REMARK    2  A    between atoms: N1_2  and  C5_11 
REMARK    3  A    between atoms: C11_21  and  N1_2 
REMARK    4  A    between atoms: C17_27  and  O1_3 
REMARK    5  A    between atoms: C3_7  and  C19_29 
REMARK    6  A    between atoms: N8_18  and  C4_9 
REMARK    7  A    between atoms: C4_9  and  C16_26 
REMARK    8  A    between atoms: N8_18  and  C13_23 
REMARK    9  A    between atoms: C15_25  and  N8_18 
REMARK   10  A    between atoms: C13_23  and  C14_24 
REMARK   11  A    between atoms: C15_25  and  C17_27 
REMARK   12  A    between atoms: C15_25  and  C18_28 
REMARK   13  A    between atoms: C15_25  and  C20_30 
ROOT
ATOM      1  S1  EML d          -6.995  28.043  81.814  0.00  0.00     0.029 SA
ATOM      2  N6  EML d          -7.475  27.816  80.346  0.00  0.00    -0.212 NA
ATOM      3  C11 EML d          -6.284  29.608  81.600  0.00  0.00     0.096 A 
ATOM      4  C12 EML d          -6.496  29.918  80.252  0.00  0.00    -0.023 A 
ATOM      5  C14 EML d          -7.163  28.890  79.585  0.00  0.00     0.071 A 
ATOM      6  H11 EML d          -6.178  30.847  79.782  0.00  0.00     0.091 H 
ENDROOT
BRANCH   5   7
ATOM      7  C13 EML d          -7.564  28.901  78.128  0.00  0.00     0.124 C 
ATOM      8  H12 EML d          -8.479  28.299  78.033  0.00  0.00     0.086 H 
ATOM      9  H13 EML d          -7.780  29.944  77.853  0.00  0.00     0.086 H 
BRANCH   7  10
ATOM     10  N8  EML d          -6.561  28.365  77.127  0.00  0.00    -0.056 N 
ATOM     11  H8  EML d          -5.987  27.831  77.762  0.00  0.00     0.281 HD
BRANCH  10  12
ATOM     12  C4  EML d          -7.037  27.281  76.264  0.00  0.00     0.082 C 
ATOM     13  H4  EML d          -7.406  26.491  76.935  0.00  0.00     0.075 H 
ATOM     14  H5  EML d          -6.158  26.914  75.714  0.00  0.00     0.075 H 
BRANCH  12  15
ATOM     15  C16 EML d          -8.112  27.505  75.241  0.00  0.00    -0.053 C 
ATOM     16  H14 EML d          -7.740  28.185  74.460  0.00  0.00     0.029 H 
ATOM     17  H15 EML d          -8.992  27.952  75.727  0.00  0.00     0.029 H 
ATOM     18  H16 EML d          -8.393  26.544  74.787  0.00  0.00     0.029 H 
ENDBRANCH  12  15
ENDBRANCH  10  12
BRANCH  10  19
ATOM     19  C15 EML d          -5.506  29.237  76.562  0.00  0.00     0.142 C 
BRANCH  19  20
ATOM     20  C17 EML d          -6.059  30.608  76.112  0.00  0.00     0.047 C 
ATOM     21  H17 EML d          -6.941  30.444  75.476  0.00  0.00     0.077 H 
ATOM     22  H18 EML d          -6.352  31.183  77.003  0.00  0.00     0.077 H 
BRANCH  20  23
ATOM     23  O1  EML d          -5.084  31.365  75.370  0.00  0.00    -0.398 OA
ATOM     24  H2  EML d          -4.346  31.566  75.933  0.00  0.00     0.209 HD
ENDBRANCH  20  23
ENDBRANCH  19  20
BRANCH  19  25
ATOM     25  C18 EML d          -4.931  28.757  75.274  0.00  0.00    -0.043 C 
ATOM     26  H19 EML d          -5.243  29.428  74.460  0.00  0.00     0.030 H 
ATOM     27  H20 EML d          -5.291  27.739  75.069  0.00  0.00     0.030 H 
ATOM     28  H21 EML d          -3.833  28.750  75.343  0.00  0.00     0.030 H 
ENDBRANCH  19  25
BRANCH  19  29
ATOM     29  C20 EML d          -4.275  29.356  77.505  0.00  0.00    -0.043 C 
ATOM     30  H25 EML d          -3.829  28.361  77.653  0.00  0.00     0.030 H 
ATOM     31  H26 EML d          -4.594  29.763  78.475  0.00  0.00     0.030 H 
ATOM     32  H27 EML d          -3.530  30.027  77.052  0.00  0.00     0.030 H 
ENDBRANCH  19  29
ENDBRANCH  10  19
ENDBRANCH   7  10
ENDBRANCH   5   7
BRANCH   3  33
ATOM     33  N1  EML d          -5.632  30.383  82.562  0.00  0.00    -0.331 N 
ATOM     34  H1  EML d          -5.869  30.210  83.548  0.00  0.00     0.168 HD
BRANCH  33  35
ATOM     35  C5  EML d          -4.689  31.366  82.297  0.00  0.00     0.176 A 
ATOM     36  C6  EML d          -4.384  32.354  83.235  0.00  0.00     0.181 A 
ATOM     37  N2  EML d          -4.951  32.597  84.492  0.00  0.00    -0.237 NA
ATOM     38  N3  EML d          -3.445  33.290  82.911  0.00  0.00    -0.299 N 
ATOM     39  C9  EML d          -4.289  33.703  84.889  0.00  0.00     0.032 A 
ATOM     40  C7  EML d          -3.334  34.183  83.955  0.00  0.00     0.071 A 
ATOM     41  H9  EML d          -4.473  34.189  85.847  0.00  0.00     0.118 H 
ATOM     42  C2  EML d          -2.766  33.346  81.713  0.00  0.00     0.011 A 
ATOM     43  C3  EML d          -3.074  32.391  80.773  0.00  0.00     0.049 A 
ATOM     44  H3  EML d          -2.018  34.113  81.520  0.00  0.00     0.115 H 
ATOM     45  N7  EML d          -4.045  31.447  81.078  0.00  0.00    -0.231 NA
BRANCH  40  46
ATOM     46  C1  EML d          -2.475  35.432  84.027  0.00  0.00     0.029 A 
ATOM     47  C8  EML d          -2.962  36.732  83.916  0.00  0.00     0.035 A 
ATOM     48  N5  EML d          -1.870  37.513  84.047  0.00  0.00    -0.187 NA
ATOM     49  H7  EML d          -3.992  37.047  83.759  0.00  0.00     0.118 H 
ATOM     50  N4  EML d          -0.749  36.796  84.245  0.00  0.00    -0.289 N 
ATOM     51  C10 EML d          -1.065  35.499  84.236  0.00  0.00     0.009 A 
ATOM     52  H6  EML d           0.196  37.183  84.382  0.00  0.00     0.188 HD
ATOM     53  H10 EML d          -0.382  34.660  84.362  0.00  0.00     0.115 H 
ENDBRANCH  40  46
BRANCH  43  54
ATOM     54  C19 EML d          -2.387  32.337  79.454  0.00  0.00    -0.034 C 
ATOM     55  H22 EML d          -1.794  31.412  79.387  0.00  0.00     0.035 H 
ATOM     56  H23 EML d          -1.722  33.206  79.350  0.00  0.00     0.035 H 
ATOM     57  H24 EML d          -3.136  32.350  78.648  0.00  0.00     0.035 H 
ENDBRANCH  43  54
ENDBRANCH  33  35
ENDBRANCH   3  33
TORSDOF 13
ENDMDL
