MODEL 1
REMARK VINA RESULT:      -5.2      0.000      0.000
REMARK  6 active torsions:
REMARK  status: ('A' for Active; 'I' for Inactive)
REMARK    1  A    between atoms: C1_17  and  N1_1 
REMARK    2  A    between atoms: C5_10  and  O5_9 
REMARK    3  A    between atoms: C4_11  and  C5_10 
REMARK    4  A    between atoms: C3_13  and  O3_14 
REMARK    5  A    between atoms: O3_14  and  P_19 
REMARK    6  A    between atoms: C2_15  and  O2_16 
ROOT
ATOM      1  C4  UA3 d          39.103  -2.715  13.828  0.00  0.00     0.089 C 
ATOM      2  O4  UA3 d          38.905  -1.439  14.429  0.00  0.00    -0.353 OA
ATOM      3  C3  UA3 d          38.628  -3.211  12.635  0.00  0.00     0.107 C 
ATOM      4  C2  UA3 d          38.274  -1.600  12.067  0.00  0.00     0.106 C 
ATOM      5  C1  UA3 d          37.703  -1.001  13.536  0.00  0.00     0.141 C 
ATOM      6  H7  UA3 d          38.291  -3.181  14.406  0.00  0.00     0.090 H 
ATOM      7  H8  UA3 d          39.494  -3.645  12.114  0.00  0.00     0.092 H 
ATOM      8  H9  UA3 d          37.430  -1.604  11.360  0.00  0.00     0.093 H 
ATOM      9  H11 UA3 d          36.741  -1.412  13.879  0.00  0.00     0.123 H 
ENDROOT
BRANCH   5  10
ATOM     10  N1  UA3 d          37.629   0.378  13.283  0.00  0.00    -0.280 N 
ATOM     11  C2  UA3 d          36.479   0.828  12.571  0.00  0.00     0.331 A 
ATOM     12  O2  UA3 d          35.624   0.093  12.228  0.00  0.00    -0.246 OA
ATOM     13  N3  UA3 d          36.482   2.211  12.336  0.00  0.00    -0.275 N 
ATOM     14  C4  UA3 d          37.465   3.155  12.710  0.00  0.00     0.250 A 
ATOM     15  H1  UA3 d          35.691   2.573  11.843  0.00  0.00     0.173 HD
ATOM     16  O4  UA3 d          37.285   4.314  12.412  0.00  0.00    -0.268 OA
ATOM     17  C5  UA3 d          38.604   2.601  13.424  0.00  0.00    -0.002 A 
ATOM     18  C6  UA3 d          38.659   1.283  13.684  0.00  0.00    -0.008 A 
ATOM     19  H2  UA3 d          39.412   3.254  13.749  0.00  0.00     0.094 H 
ATOM     20  H3  UA3 d          39.521   0.890  14.220  0.00  0.00     0.112 H 
ENDBRANCH   5  10
BRANCH   4  21
ATOM     21  O2  UA3 d          39.552  -1.025  11.210  0.00  0.00    -0.388 OA
ATOM     22  H10 UA3 d          39.549  -1.410  10.341  0.00  0.00     0.210 HD
ENDBRANCH   4  21
BRANCH   1  23
ATOM     23  C5  UA3 d          40.094  -3.414  14.387  0.00  0.00     0.043 C 
ATOM     24  H5  UA3 d          41.035  -3.072  13.930  0.00  0.00     0.078 H 
ATOM     25  H6  UA3 d          40.099  -3.174  15.460  0.00  0.00     0.078 H 
BRANCH  23  26
ATOM     26  O5  UA3 d          40.050  -4.979  14.256  0.00  0.00    -0.398 OA
ATOM     27  H4  UA3 d          40.502  -5.370  14.994  0.00  0.00     0.209 HD
ENDBRANCH  23  26
ENDBRANCH   1  23
BRANCH   3  28
ATOM     28  O3  UA3 d          37.479  -4.166  12.262  0.00  0.00    -0.272 OA
BRANCH  28  29
ATOM     29  P   UA3 d          36.393  -4.790  13.101  0.00  0.00     0.422 P 
ATOM     30  O3P UA3 d          35.387  -3.594  13.458  0.00  0.00    -0.617 OA
ATOM     31  O1P UA3 d          37.014  -5.425  14.310  0.00  0.00    -0.617 OA
ATOM     32  O2P UA3 d          35.656  -5.810  12.274  0.00  0.00    -0.617 OA
ENDBRANCH  28  29
ENDBRANCH   3  28
TORSDOF 6
ENDMDL
MODEL 2
REMARK VINA RESULT:      -5.1      1.623      2.089
REMARK  6 active torsions:
REMARK  status: ('A' for Active; 'I' for Inactive)
REMARK    1  A    between atoms: C1_17  and  N1_1 
REMARK    2  A    between atoms: C5_10  and  O5_9 
REMARK    3  A    between atoms: C4_11  and  C5_10 
REMARK    4  A    between atoms: C3_13  and  O3_14 
REMARK    5  A    between atoms: O3_14  and  P_19 
REMARK    6  A    between atoms: C2_15  and  O2_16 
ROOT
ATOM      1  C4  UA3 d          38.148  -2.486  13.679  0.00  0.00     0.089 C 
ATOM      2  O4  UA3 d          38.228  -1.333  14.510  0.00  0.00    -0.353 OA
ATOM      3  C3  UA3 d          38.069  -2.582  12.308  0.00  0.00     0.107 C 
ATOM      4  C2  UA3 d          38.643  -0.944  12.126  0.00  0.00     0.106 C 
ATOM      5  C1  UA3 d          37.789  -0.297  13.429  0.00  0.00     0.141 C 
ATOM      6  H7  UA3 d          37.058  -2.573  13.801  0.00  0.00     0.090 H 
ATOM      7  H8  UA3 d          38.830  -3.315  12.004  0.00  0.00     0.092 H 
ATOM      8  H9  UA3 d          38.248  -0.483  11.209  0.00  0.00     0.093 H 
ATOM      9  H11 UA3 d          36.697  -0.243  13.305  0.00  0.00     0.123 H 
ENDROOT
BRANCH   5  10
ATOM     10  N1  UA3 d          38.372   0.974  13.560  0.00  0.00    -0.280 N 
ATOM     11  C2  UA3 d          37.770   2.024  12.807  0.00  0.00     0.331 A 
ATOM     12  O2  UA3 d          36.824   1.848  12.126  0.00  0.00    -0.246 OA
ATOM     13  N3  UA3 d          38.414   3.259  12.969  0.00  0.00    -0.275 N 
ATOM     14  C4  UA3 d          39.548   3.551  13.761  0.00  0.00     0.250 A 
ATOM     15  H1  UA3 d          38.023   4.028  12.463  0.00  0.00     0.173 HD
ATOM     16  O4  UA3 d          39.959   4.690  13.770  0.00  0.00    -0.268 OA
ATOM     17  C5  UA3 d          40.096   2.416  14.486  0.00  0.00    -0.002 A 
ATOM     18  C6  UA3 d          39.521   1.205  14.375  0.00  0.00    -0.008 A 
ATOM     19  H2  UA3 d          40.972   2.547  15.119  0.00  0.00     0.094 H 
ATOM     20  H3  UA3 d          39.949   0.370  14.926  0.00  0.00     0.112 H 
ENDBRANCH   5  10
BRANCH   4  21
ATOM     21  O2  UA3 d          40.275  -0.951  11.937  0.00  0.00    -0.388 OA
ATOM     22  H10 UA3 d          40.638  -0.150  12.296  0.00  0.00     0.210 HD
ENDBRANCH   4  21
BRANCH   1  23
ATOM     23  C5  UA3 d          38.454  -3.619  14.317  0.00  0.00     0.043 C 
ATOM     24  H5  UA3 d          39.220  -4.135  13.719  0.00  0.00     0.078 H 
ATOM     25  H6  UA3 d          38.876  -3.341  15.293  0.00  0.00     0.078 H 
BRANCH  23  26
ATOM     26  O5  UA3 d          37.293  -4.645  14.581  0.00  0.00    -0.398 OA
ATOM     27  H4  UA3 d          36.961  -4.966  13.751  0.00  0.00     0.209 HD
ENDBRANCH  23  26
ENDBRANCH   1  23
BRANCH   3  28
ATOM     28  O3  UA3 d          36.913  -2.846  11.326  0.00  0.00    -0.272 OA
BRANCH  28  29
ATOM     29  P   UA3 d          35.436  -3.040  11.556  0.00  0.00     0.422 P 
ATOM     30  O3P UA3 d          35.222  -2.859  13.135  0.00  0.00    -0.617 OA
ATOM     31  O1P UA3 d          35.037  -4.396  11.054  0.00  0.00    -0.617 OA
ATOM     32  O2P UA3 d          34.678  -1.955  10.839  0.00  0.00    -0.617 OA
ENDBRANCH  28  29
ENDBRANCH   3  28
TORSDOF 6
ENDMDL
MODEL 3
REMARK VINA RESULT:      -4.9      1.975      3.436
REMARK  6 active torsions:
REMARK  status: ('A' for Active; 'I' for Inactive)
REMARK    1  A    between atoms: C1_17  and  N1_1 
REMARK    2  A    between atoms: C5_10  and  O5_9 
REMARK    3  A    between atoms: C4_11  and  C5_10 
REMARK    4  A    between atoms: C3_13  and  O3_14 
REMARK    5  A    between atoms: O3_14  and  P_19 
REMARK    6  A    between atoms: C2_15  and  O2_16 
ROOT
ATOM      1  C4  UA3 d          36.970  -2.282  11.564  0.00  0.00     0.089 C 
ATOM      2  O4  UA3 d          36.695  -0.923  11.241  0.00  0.00    -0.353 OA
ATOM      3  C3  UA3 d          37.920  -2.815  12.406  0.00  0.00     0.107 C 
ATOM      4  C2  UA3 d          38.135  -1.272  13.193  0.00  0.00     0.106 C 
ATOM      5  C1  UA3 d          38.026  -0.330  11.798  0.00  0.00     0.141 C 
ATOM      6  H7  UA3 d          37.600  -2.430  10.674  0.00  0.00     0.090 H 
ATOM      7  H8  UA3 d          37.393  -3.531  13.054  0.00  0.00     0.092 H 
ATOM      8  H9  UA3 d          39.157  -1.165  13.586  0.00  0.00     0.093 H 
ATOM      9  H11 UA3 d          38.865  -0.422  11.093  0.00  0.00     0.123 H 
ENDROOT
BRANCH   5  10
ATOM     10  N1  UA3 d          37.918   0.966  12.327  0.00  0.00    -0.280 N 
ATOM     11  C2  UA3 d          39.142   1.658  12.558  0.00  0.00     0.331 A 
ATOM     12  O2  UA3 d          40.191   1.183  12.304  0.00  0.00    -0.246 OA
ATOM     13  N3  UA3 d          38.960   2.936  13.104  0.00  0.00    -0.275 N 
ATOM     14  C4  UA3 d          37.744   3.574  13.438  0.00  0.00     0.250 A 
ATOM     15  H1  UA3 d          39.793   3.461  13.280  0.00  0.00     0.173 HD
ATOM     16  O4  UA3 d          37.794   4.690  13.905  0.00  0.00    -0.268 OA
ATOM     17  C5  UA3 d          36.549   2.789  13.174  0.00  0.00    -0.002 A 
ATOM     18  C6  UA3 d          36.657   1.556  12.647  0.00  0.00    -0.008 A 
ATOM     19  H2  UA3 d          35.567   3.198  13.403  0.00  0.00     0.094 H 
ATOM     20  H3  UA3 d          35.749   0.986  12.457  0.00  0.00     0.112 H 
ENDBRANCH   5  10
BRANCH   4  21
ATOM     21  O2  UA3 d          37.155  -1.183  14.508  0.00  0.00    -0.388 OA
ATOM     22  H10 UA3 d          37.492  -0.530  15.110  0.00  0.00     0.210 HD
ENDBRANCH   4  21
BRANCH   1  23
ATOM     23  C5  UA3 d          36.000  -3.120  11.190  0.00  0.00     0.043 C 
ATOM     24  H5  UA3 d          36.376  -3.699  10.334  0.00  0.00     0.078 H 
ATOM     25  H6  UA3 d          35.809  -3.798  12.035  0.00  0.00     0.078 H 
BRANCH  23  26
ATOM     26  O5  UA3 d          34.620  -2.499  10.767  0.00  0.00    -0.398 OA
ATOM     27  H4  UA3 d          34.192  -2.130  11.531  0.00  0.00     0.209 HD
ENDBRANCH  23  26
ENDBRANCH   1  23
BRANCH   3  28
ATOM     28  O3  UA3 d          39.287  -3.485  12.179  0.00  0.00    -0.272 OA
BRANCH  28  29
ATOM     29  P   UA3 d          39.899  -4.725  12.778  0.00  0.00     0.422 P 
ATOM     30  O3P UA3 d          40.307  -4.322  14.274  0.00  0.00    -0.617 OA
ATOM     31  O1P UA3 d          41.067  -5.149  11.937  0.00  0.00    -0.617 OA
ATOM     32  O2P UA3 d          38.857  -5.810  12.838  0.00  0.00    -0.617 OA
ENDBRANCH  28  29
ENDBRANCH   3  28
TORSDOF 6
ENDMDL
MODEL 4
REMARK VINA RESULT:      -4.5      3.158      6.962
REMARK  6 active torsions:
REMARK  status: ('A' for Active; 'I' for Inactive)
REMARK    1  A    between atoms: C1_17  and  N1_1 
REMARK    2  A    between atoms: C5_10  and  O5_9 
REMARK    3  A    between atoms: C4_11  and  C5_10 
REMARK    4  A    between atoms: C3_13  and  O3_14 
REMARK    5  A    between atoms: O3_14  and  P_19 
REMARK    6  A    between atoms: C2_15  and  O2_16 
ROOT
ATOM      1  C4  UA3 d          37.577   1.379  13.276  0.00  0.00     0.089 C 
ATOM      2  O4  UA3 d          37.371   0.219  14.075  0.00  0.00    -0.353 OA
ATOM      3  C3  UA3 d          38.611   1.690  12.422  0.00  0.00     0.107 C 
ATOM      4  C2  UA3 d          39.100   0.017  12.351  0.00  0.00     0.106 C 
ATOM      5  C1  UA3 d          38.828  -0.331  13.978  0.00  0.00     0.141 C 
ATOM      6  H7  UA3 d          38.022   1.946  14.107  0.00  0.00     0.090 H 
ATOM      7  H8  UA3 d          38.147   2.018  11.481  0.00  0.00     0.092 H 
ATOM      8  H9  UA3 d          40.181  -0.074  12.169  0.00  0.00     0.093 H 
ATOM      9  H11 UA3 d          39.516   0.148  14.691  0.00  0.00     0.123 H 
ENDROOT
BRANCH   5  10
ATOM     10  N1  UA3 d          38.932  -1.731  14.001  0.00  0.00    -0.280 N 
ATOM     11  C2  UA3 d          40.233  -2.263  14.237  0.00  0.00     0.331 A 
ATOM     12  O2  UA3 d          41.171  -1.573  14.424  0.00  0.00    -0.246 OA
ATOM     13  N3  UA3 d          40.267  -3.665  14.227  0.00  0.00    -0.275 N 
ATOM     14  C4  UA3 d          39.194  -4.559  14.010  0.00  0.00     0.250 A 
ATOM     15  H1  UA3 d          41.160  -4.083  14.393  0.00  0.00     0.173 HD
ATOM     16  O4  UA3 d          39.427  -5.747  14.039  0.00  0.00    -0.268 OA
ATOM     17  C5  UA3 d          37.908  -3.924  13.770  0.00  0.00    -0.002 A 
ATOM     18  C6  UA3 d          37.809  -2.583  13.771  0.00  0.00    -0.008 A 
ATOM     19  H2  UA3 d          37.025  -4.535  13.589  0.00  0.00     0.094 H 
ATOM     20  H3  UA3 d          36.836  -2.129  13.589  0.00  0.00     0.112 H 
ENDBRANCH   5  10
BRANCH   4  21
ATOM     21  O2  UA3 d          38.383  -0.712  11.065  0.00  0.00    -0.388 OA
ATOM     22  H10 UA3 d          38.618  -1.633  11.053  0.00  0.00     0.210 HD
ENDBRANCH   4  21
BRANCH   1  23
ATOM     23  C5  UA3 d          36.484   2.137  13.155  0.00  0.00     0.043 C 
ATOM     24  H5  UA3 d          35.625   1.459  13.047  0.00  0.00     0.078 H 
ATOM     25  H6  UA3 d          36.381   2.715  14.085  0.00  0.00     0.078 H 
BRANCH  23  26
ATOM     26  O5  UA3 d          36.431   3.158  11.962  0.00  0.00    -0.398 OA
ATOM     27  H4  UA3 d          35.729   2.915  11.370  0.00  0.00     0.209 HD
ENDBRANCH  23  26
ENDBRANCH   1  23
BRANCH   3  28
ATOM     28  O3  UA3 d          39.850   2.596  12.538  0.00  0.00    -0.272 OA
BRANCH  28  29
ATOM     29  P   UA3 d          40.010   4.087  12.380  0.00  0.00     0.422 P 
ATOM     30  O3P UA3 d          41.189   4.279  11.310  0.00  0.00    -0.617 OA
ATOM     31  O1P UA3 d          40.320   4.690  13.719  0.00  0.00    -0.617 OA
ATOM     32  O2P UA3 d          38.742   4.663  11.810  0.00  0.00    -0.617 OA
ENDBRANCH  28  29
ENDBRANCH   3  28
TORSDOF 6
ENDMDL
MODEL 5
REMARK VINA RESULT:      -4.0      2.818      6.394
REMARK  6 active torsions:
REMARK  status: ('A' for Active; 'I' for Inactive)
REMARK    1  A    between atoms: C1_17  and  N1_1 
REMARK    2  A    between atoms: C5_10  and  O5_9 
REMARK    3  A    between atoms: C4_11  and  C5_10 
REMARK    4  A    between atoms: C3_13  and  O3_14 
REMARK    5  A    between atoms: O3_14  and  P_19 
REMARK    6  A    between atoms: C2_15  and  O2_16 
ROOT
ATOM      1  C4  UA3 d          36.571  -0.577  12.159  0.00  0.00     0.089 C 
ATOM      2  O4  UA3 d          36.751  -1.923  12.589  0.00  0.00    -0.353 OA
ATOM      3  C3  UA3 d          37.402   0.512  12.296  0.00  0.00     0.107 C 
ATOM      4  C2  UA3 d          38.765  -0.527  12.626  0.00  0.00     0.106 C 
ATOM      5  C1  UA3 d          37.929  -1.644  13.574  0.00  0.00     0.141 C 
ATOM      6  H7  UA3 d          35.982  -0.307  13.047  0.00  0.00     0.090 H 
ATOM      7  H8  UA3 d          37.474   0.974  11.301  0.00  0.00     0.092 H 
ATOM      8  H9  UA3 d          39.499  -0.026  13.274  0.00  0.00     0.093 H 
ATOM      9  H11 UA3 d          37.591  -1.279  14.555  0.00  0.00     0.123 H 
ENDROOT
BRANCH   5  10
ATOM     10  N1  UA3 d          38.861  -2.687  13.688  0.00  0.00    -0.280 N 
ATOM     11  C2  UA3 d          38.324  -3.999  13.844  0.00  0.00     0.331 A 
ATOM     12  O2  UA3 d          37.163  -4.205  13.856  0.00  0.00    -0.246 OA
ATOM     13  N3  UA3 d          39.309  -4.987  13.972  0.00  0.00    -0.275 N 
ATOM     14  C4  UA3 d          40.713  -4.822  13.969  0.00  0.00     0.250 A 
ATOM     15  H1  UA3 d          38.978  -5.925  14.078  0.00  0.00     0.173 HD
ATOM     16  O4  UA3 d          41.404  -5.809  14.095  0.00  0.00    -0.268 OA
ATOM     17  C5  UA3 d          41.167  -3.450  13.814  0.00  0.00    -0.002 A 
ATOM     18  C6  UA3 d          40.270  -2.456  13.682  0.00  0.00    -0.008 A 
ATOM     19  H2  UA3 d          42.232  -3.227  13.804  0.00  0.00     0.094 H 
ATOM     20  H3  UA3 d          40.633  -1.435  13.567  0.00  0.00     0.112 H 
ENDBRANCH   5  10
BRANCH   4  21
ATOM     21  O2  UA3 d          39.567  -0.842  11.227  0.00  0.00    -0.388 OA
ATOM     22  H10 UA3 d          39.752  -1.772  11.172  0.00  0.00     0.210 HD
ENDBRANCH   4  21
BRANCH   1  23
ATOM     23  C5  UA3 d          35.577  -0.433  11.280  0.00  0.00     0.043 C 
ATOM     24  H5  UA3 d          34.831   0.235  11.735  0.00  0.00     0.078 H 
ATOM     25  H6  UA3 d          35.998   0.044  10.383  0.00  0.00     0.078 H 
BRANCH  23  26
ATOM     26  O5  UA3 d          34.822  -1.729  10.811  0.00  0.00    -0.398 OA
ATOM     27  H4  UA3 d          34.406  -2.141  11.559  0.00  0.00     0.209 HD
ENDBRANCH  23  26
ENDBRANCH   1  23
BRANCH   3  28
ATOM     28  O3  UA3 d          37.420   1.721  13.248  0.00  0.00    -0.272 OA
BRANCH  28  29
ATOM     29  P   UA3 d          37.762   3.170  13.010  0.00  0.00     0.422 P 
ATOM     30  O3P UA3 d          37.989   3.801  14.466  0.00  0.00    -0.617 OA
ATOM     31  O1P UA3 d          36.643   3.818  12.250  0.00  0.00    -0.617 OA
ATOM     32  O2P UA3 d          39.054   3.252  12.242  0.00  0.00    -0.617 OA
ENDBRANCH  28  29
ENDBRANCH   3  28
TORSDOF 6
ENDMDL
MODEL 6
REMARK VINA RESULT:      -3.8      2.052      3.619
REMARK  6 active torsions:
REMARK  status: ('A' for Active; 'I' for Inactive)
REMARK    1  A    between atoms: C1_17  and  N1_1 
REMARK    2  A    between atoms: C5_10  and  O5_9 
REMARK    3  A    between atoms: C4_11  and  C5_10 
REMARK    4  A    between atoms: C3_13  and  O3_14 
REMARK    5  A    between atoms: O3_14  and  P_19 
REMARK    6  A    between atoms: C2_15  and  O2_16 
ROOT
ATOM      1  C4  UA3 d          36.240  -1.521  11.964  0.00  0.00     0.089 C 
ATOM      2  O4  UA3 d          36.867  -0.424  11.308  0.00  0.00    -0.353 OA
ATOM      3  C3  UA3 d          36.680  -2.284  13.022  0.00  0.00     0.107 C 
ATOM      4  C2  UA3 d          37.851  -1.066  13.458  0.00  0.00     0.106 C 
ATOM      5  C1  UA3 d          38.297  -0.659  11.884  0.00  0.00     0.141 C 
ATOM      6  H7  UA3 d          36.598  -2.249  11.222  0.00  0.00     0.090 H 
ATOM      7  H8  UA3 d          35.849  -2.324  13.741  0.00  0.00     0.092 H 
ATOM      8  H9  UA3 d          38.729  -1.514  13.946  0.00  0.00     0.093 H 
ATOM      9  H11 UA3 d          38.861  -1.427  11.333  0.00  0.00     0.123 H 
ENDROOT
BRANCH   5  10
ATOM     10  N1  UA3 d          39.051   0.509  12.085  0.00  0.00    -0.280 N 
ATOM     11  C2  UA3 d          40.465   0.376  11.962  0.00  0.00     0.331 A 
ATOM     12  O2  UA3 d          40.979  -0.648  11.689  0.00  0.00    -0.246 OA
ATOM     13  N3  UA3 d          41.154   1.575  12.195  0.00  0.00    -0.275 N 
ATOM     14  C4  UA3 d          40.614   2.838  12.528  0.00  0.00     0.250 A 
ATOM     15  H1  UA3 d          42.150   1.531  12.115  0.00  0.00     0.173 HD
ATOM     16  O4  UA3 d          41.381   3.761  12.692  0.00  0.00    -0.268 OA
ATOM     17  C5  UA3 d          39.165   2.874  12.638  0.00  0.00    -0.002 A 
ATOM     18  C6  UA3 d          38.446   1.758  12.423  0.00  0.00    -0.008 A 
ATOM     19  H2  UA3 d          38.661   3.804  12.895  0.00  0.00     0.094 H 
ATOM     20  H3  UA3 d          37.362   1.808  12.511  0.00  0.00     0.112 H 
ENDBRANCH   5  10
BRANCH   4  21
ATOM     21  O2  UA3 d          37.202  -0.055  14.580  0.00  0.00    -0.388 OA
ATOM     22  H10 UA3 d          36.414   0.342  14.228  0.00  0.00     0.210 HD
ENDBRANCH   4  21
BRANCH   1  23
ATOM     23  C5  UA3 d          34.943  -1.642  11.669  0.00  0.00     0.043 C 
ATOM     24  H5  UA3 d          34.767  -2.693  11.393  0.00  0.00     0.078 H 
ATOM     25  H6  UA3 d          34.376  -1.402  12.579  0.00  0.00     0.078 H 
BRANCH  23  26
ATOM     26  O5  UA3 d          34.371  -0.750  10.509  0.00  0.00    -0.398 OA
ATOM     27  H4  UA3 d          35.053  -0.168  10.193  0.00  0.00     0.209 HD
ENDBRANCH  23  26
ENDBRANCH   1  23
BRANCH   3  28
ATOM     28  O3  UA3 d          37.310  -3.684  13.134  0.00  0.00    -0.272 OA
BRANCH  28  29
ATOM     29  P   UA3 d          36.759  -5.051  12.819  0.00  0.00     0.422 P 
ATOM     30  O3P UA3 d          36.635  -5.798  14.232  0.00  0.00    -0.617 OA
ATOM     31  O1P UA3 d          37.684  -5.742  11.861  0.00  0.00    -0.617 OA
ATOM     32  O2P UA3 d          35.383  -4.905  12.229  0.00  0.00    -0.617 OA
ENDBRANCH  28  29
ENDBRANCH   3  28
TORSDOF 6
ENDMDL
MODEL 7
REMARK VINA RESULT:      -3.7      3.005      6.766
REMARK  6 active torsions:
REMARK  status: ('A' for Active; 'I' for Inactive)
REMARK    1  A    between atoms: C1_17  and  N1_1 
REMARK    2  A    between atoms: C5_10  and  O5_9 
REMARK    3  A    between atoms: C4_11  and  C5_10 
REMARK    4  A    between atoms: C3_13  and  O3_14 
REMARK    5  A    between atoms: O3_14  and  P_19 
REMARK    6  A    between atoms: C2_15  and  O2_16 
ROOT
ATOM      1  C4  UA3 d          37.535   1.349  13.240  0.00  0.00     0.089 C 
ATOM      2  O4  UA3 d          37.358   0.203  14.067  0.00  0.00    -0.353 OA
ATOM      3  C3  UA3 d          38.569   1.673  12.391  0.00  0.00     0.107 C 
ATOM      4  C2  UA3 d          39.117   0.017  12.371  0.00  0.00     0.106 C 
ATOM      5  C1  UA3 d          38.834  -0.298  14.003  0.00  0.00     0.141 C 
ATOM      6  H7  UA3 d          37.949   1.953  14.061  0.00  0.00     0.090 H 
ATOM      7  H8  UA3 d          38.107   1.961  11.436  0.00  0.00     0.092 H 
ATOM      8  H9  UA3 d          40.203  -0.042  12.205  0.00  0.00     0.093 H 
ATOM      9  H11 UA3 d          39.496   0.223  14.712  0.00  0.00     0.123 H 
ENDROOT
BRANCH   5  10
ATOM     10  N1  UA3 d          38.986  -1.692  14.064  0.00  0.00    -0.280 N 
ATOM     11  C2  UA3 d          37.829  -2.467  13.756  0.00  0.00     0.331 A 
ATOM     12  O2  UA3 d          36.805  -1.972  13.447  0.00  0.00    -0.246 OA
ATOM     13  N3  UA3 d          38.048  -3.848  13.857  0.00  0.00    -0.275 N 
ATOM     14  C4  UA3 d          39.238  -4.516  14.221  0.00  0.00     0.250 A 
ATOM     15  H1  UA3 d          37.264  -4.432  13.645  0.00  0.00     0.173 HD
ATOM     16  O4  UA3 d          39.226  -5.727  14.252  0.00  0.00    -0.268 OA
ATOM     17  C5  UA3 d          40.361  -3.644  14.525  0.00  0.00    -0.002 A 
ATOM     18  C6  UA3 d          40.217  -2.310  14.443  0.00  0.00    -0.008 A 
ATOM     19  H2  UA3 d          41.318  -4.071  14.818  0.00  0.00     0.094 H 
ATOM     20  H3  UA3 d          41.071  -1.675  14.675  0.00  0.00     0.112 H 
ENDBRANCH   5  10
BRANCH   4  21
ATOM     21  O2  UA3 d          38.442  -0.770  11.095  0.00  0.00    -0.388 OA
ATOM     22  H10 UA3 d          38.154  -0.135  10.450  0.00  0.00     0.210 HD
ENDBRANCH   4  21
BRANCH   1  23
ATOM     23  C5  UA3 d          36.419   2.066  13.085  0.00  0.00     0.043 C 
ATOM     24  H5  UA3 d          36.288   2.239  12.007  0.00  0.00     0.078 H 
ATOM     25  H6  UA3 d          35.584   1.458  13.464  0.00  0.00     0.078 H 
BRANCH  23  26
ATOM     26  O5  UA3 d          36.343   3.464  13.799  0.00  0.00    -0.398 OA
ATOM     27  H4  UA3 d          35.781   3.399  14.562  0.00  0.00     0.209 HD
ENDBRANCH  23  26
ENDBRANCH   1  23
BRANCH   3  28
ATOM     28  O3  UA3 d          39.775   2.625  12.499  0.00  0.00    -0.272 OA
BRANCH  28  29
ATOM     29  P   UA3 d          39.872   4.124  12.384  0.00  0.00     0.422 P 
ATOM     30  O3P UA3 d          40.925   4.396  11.206  0.00  0.00    -0.617 OA
ATOM     31  O1P UA3 d          40.301   4.689  13.706  0.00  0.00    -0.617 OA
ATOM     32  O2P UA3 d          38.534   4.676  11.972  0.00  0.00    -0.617 OA
ENDBRANCH  28  29
ENDBRANCH   3  28
TORSDOF 6
ENDMDL
MODEL 8
REMARK VINA RESULT:      -3.5      2.971      6.429
REMARK  6 active torsions:
REMARK  status: ('A' for Active; 'I' for Inactive)
REMARK    1  A    between atoms: C1_17  and  N1_1 
REMARK    2  A    between atoms: C5_10  and  O5_9 
REMARK    3  A    between atoms: C4_11  and  C5_10 
REMARK    4  A    between atoms: C3_13  and  O3_14 
REMARK    5  A    between atoms: O3_14  and  P_19 
REMARK    6  A    between atoms: C2_15  and  O2_16 
ROOT
ATOM      1  C4  UA3 d          39.387   0.314  11.754  0.00  0.00     0.089 C 
ATOM      2  O4  UA3 d          38.872  -0.927  11.281  0.00  0.00    -0.353 OA
ATOM      3  C3  UA3 d          38.980   1.091  12.814  0.00  0.00     0.107 C 
ATOM      4  C2  UA3 d          38.115  -0.254  13.512  0.00  0.00     0.106 C 
ATOM      5  C1  UA3 d          37.522  -0.874  12.061  0.00  0.00     0.141 C 
ATOM      6  H7  UA3 d          38.803   0.901  11.030  0.00  0.00     0.090 H 
ATOM      7  H8  UA3 d          39.887   1.333  13.387  0.00  0.00     0.092 H 
ATOM      8  H9  UA3 d          37.253   0.090  14.103  0.00  0.00     0.093 H 
ATOM      9  H11 UA3 d          36.759  -0.262  11.556  0.00  0.00     0.123 H 
ENDROOT
BRANCH   5  10
ATOM     10  N1  UA3 d          37.021  -2.124  12.457  0.00  0.00    -0.280 N 
ATOM     11  C2  UA3 d          37.974  -3.179  12.569  0.00  0.00     0.331 A 
ATOM     12  O2  UA3 d          39.122  -3.014  12.361  0.00  0.00    -0.246 OA
ATOM     13  N3  UA3 d          37.401  -4.401  12.949  0.00  0.00    -0.275 N 
ATOM     14  C4  UA3 d          36.041  -4.680  13.213  0.00  0.00     0.250 A 
ATOM     15  H1  UA3 d          38.034  -5.170  13.045  0.00  0.00     0.173 HD
ATOM     16  O4  UA3 d          35.742  -5.810  13.530  0.00  0.00    -0.268 OA
ATOM     17  C5  UA3 d          35.145  -3.546  13.066  0.00  0.00    -0.002 A 
ATOM     18  C6  UA3 d          35.632  -2.345  12.707  0.00  0.00    -0.008 A 
ATOM     19  H2  UA3 d          34.078  -3.668  13.246  0.00  0.00     0.094 H 
ATOM     20  H3  UA3 d          34.942  -1.509  12.603  0.00  0.00     0.112 H 
ENDBRANCH   5  10
BRANCH   4  21
ATOM     21  O2  UA3 d          39.087  -1.037  14.582  0.00  0.00    -0.388 OA
ATOM     22  H10 UA3 d          38.674  -1.042  15.437  0.00  0.00     0.210 HD
ENDBRANCH   4  21
BRANCH   1  23
ATOM     23  C5  UA3 d          40.585   0.615  11.247  0.00  0.00     0.043 C 
ATOM     24  H5  UA3 d          40.440   1.429  10.521  0.00  0.00     0.078 H 
ATOM     25  H6  UA3 d          41.211   0.972  12.078  0.00  0.00     0.078 H 
BRANCH  23  26
ATOM     26  O5  UA3 d          41.380  -0.528  10.519  0.00  0.00    -0.398 OA
ATOM     27  H4  UA3 d          42.280  -0.529  10.821  0.00  0.00     0.209 HD
ENDBRANCH  23  26
ENDBRANCH   1  23
BRANCH   3  28
ATOM     28  O3  UA3 d          38.138   2.375  12.930  0.00  0.00    -0.272 OA
BRANCH  28  29
ATOM     29  P   UA3 d          38.535   3.805  13.193  0.00  0.00     0.422 P 
ATOM     30  O3P UA3 d          40.063   3.743  13.674  0.00  0.00    -0.617 OA
ATOM     31  O1P UA3 d          37.611   4.386  14.223  0.00  0.00    -0.617 OA
ATOM     32  O2P UA3 d          38.465   4.582  11.906  0.00  0.00    -0.617 OA
ENDBRANCH  28  29
ENDBRANCH   3  28
TORSDOF 6
ENDMDL
MODEL 9
REMARK VINA RESULT:      -2.7      1.881      3.273
REMARK  6 active torsions:
REMARK  status: ('A' for Active; 'I' for Inactive)
REMARK    1  A    between atoms: C1_17  and  N1_1 
REMARK    2  A    between atoms: C5_10  and  O5_9 
REMARK    3  A    between atoms: C4_11  and  C5_10 
REMARK    4  A    between atoms: C3_13  and  O3_14 
REMARK    5  A    between atoms: O3_14  and  P_19 
REMARK    6  A    between atoms: C2_15  and  O2_16 
ROOT
ATOM      1  C4  UA3 d          36.588  -3.868  11.777  0.00  0.00     0.089 C 
ATOM      2  O4  UA3 d          36.471  -2.575  11.192  0.00  0.00    -0.353 OA
ATOM      3  C3  UA3 d          37.329  -4.283  12.861  0.00  0.00     0.107 C 
ATOM      4  C2  UA3 d          37.503  -2.637  13.413  0.00  0.00     0.106 C 
ATOM      5  C1  UA3 d          37.716  -1.945  11.890  0.00  0.00     0.141 C 
ATOM      6  H7  UA3 d          37.358  -4.190  11.061  0.00  0.00     0.090 H 
ATOM      7  H8  UA3 d          36.645  -4.856  13.503  0.00  0.00     0.092 H 
ATOM      8  H9  UA3 d          38.441  -2.502  13.972  0.00  0.00     0.093 H 
ATOM      9  H11 UA3 d          38.662  -2.189  11.383  0.00  0.00     0.123 H 
ENDROOT
BRANCH   5  10
ATOM     10  N1  UA3 d          37.603  -0.575  12.171  0.00  0.00    -0.280 N 
ATOM     11  C2  UA3 d          36.284  -0.034  12.158  0.00  0.00     0.331 A 
ATOM     12  O2  UA3 d          35.334  -0.699  11.943  0.00  0.00    -0.246 OA
ATOM     13  N3  UA3 d          36.248   1.341  12.426  0.00  0.00    -0.275 N 
ATOM     14  C4  UA3 d          37.335   2.205  12.689  0.00  0.00     0.250 A 
ATOM     15  H1  UA3 d          35.341   1.763  12.432  0.00  0.00     0.173 HD
ATOM     16  O4  UA3 d          37.098   3.374  12.898  0.00  0.00    -0.268 OA
ATOM     17  C5  UA3 d          38.641   1.566  12.674  0.00  0.00    -0.002 A 
ATOM     18  C6  UA3 d          38.742   0.248  12.426  0.00  0.00    -0.008 A 
ATOM     19  H2  UA3 d          39.537   2.154  12.863  0.00  0.00     0.094 H 
ATOM     20  H3  UA3 d          39.730  -0.210  12.420  0.00  0.00     0.112 H 
ENDBRANCH   5  10
BRANCH   4  21
ATOM     21  O2  UA3 d          36.308  -2.286  14.485  0.00  0.00    -0.388 OA
ATOM     22  H10 UA3 d          35.521  -2.042  14.011  0.00  0.00     0.210 HD
ENDBRANCH   4  21
BRANCH   1  23
ATOM     23  C5  UA3 d          35.646  -4.721  11.366  0.00  0.00     0.043 C 
ATOM     24  H5  UA3 d          34.770  -4.125  11.070  0.00  0.00     0.078 H 
ATOM     25  H6  UA3 d          36.044  -5.250  10.488  0.00  0.00     0.078 H 
BRANCH  23  26
ATOM     26  O5  UA3 d          35.150  -5.810  12.385  0.00  0.00    -0.398 OA
ATOM     27  H4  UA3 d          34.228  -5.983  12.237  0.00  0.00     0.209 HD
ENDBRANCH  23  26
ENDBRANCH   1  23
BRANCH   3  28
ATOM     28  O3  UA3 d          38.665  -5.033  13.011  0.00  0.00    -0.272 OA
BRANCH  28  29
ATOM     29  P   UA3 d          40.056  -4.691  12.542  0.00  0.00     0.422 P 
ATOM     30  O3P UA3 d          40.970  -4.714  13.858  0.00  0.00    -0.617 OA
ATOM     31  O1P UA3 d          40.027  -3.354  11.861  0.00  0.00    -0.617 OA
ATOM     32  O2P UA3 d          40.537  -5.763  11.602  0.00  0.00    -0.617 OA
ENDBRANCH  28  29
ENDBRANCH   3  28
TORSDOF 6
ENDMDL
