MODEL 1
REMARK VINA RESULT:      -9.2      0.000      0.000
REMARK  4 active torsions:
REMARK  status: ('A' for Active; 'I' for Inactive)
REMARK    1  A    between atoms: CAS_21  and  CAD_10 
REMARK    2  A    between atoms: NAQ_19  and  CAT_22 
REMARK    3  A    between atoms: CAV_24  and  NAQ_19 
REMARK    4  A    between atoms: CAR_20  and  CAU_23 
ROOT
ATOM      1  CAA E1B d          22.635 -33.744  12.367  0.00  0.00    -0.149 C 
ATOM      2  CAD E1B d          22.716 -32.575  12.097  0.00  0.00    -0.078 C 
ATOM      3  H3  E1B d          22.563 -34.770  12.605  0.00  0.00     0.166 H 
ENDROOT
BRANCH   2   4
ATOM      4  CAS E1B d          22.813 -31.133  11.765  0.00  0.00     0.019 A 
ATOM      5  CAG E1B d          22.821 -30.674  10.458  0.00  0.00    -0.065 A 
ATOM      6  CAE E1B d          22.911 -29.315  10.208  0.00  0.00    -0.079 A 
ATOM      7  H5  E1B d          22.756 -31.376   9.634  0.00  0.00     0.085 H 
ATOM      8  CAH E1B d          23.010 -28.408  11.253  0.00  0.00    -0.057 A 
ATOM      9  H4  E1B d          22.905 -28.956   9.186  0.00  0.00     0.083 H 
ATOM     10  CAT E1B d          23.011 -28.887  12.549  0.00  0.00     0.035 A 
ATOM     11  H6  E1B d          23.084 -27.344  11.056  0.00  0.00     0.086 H 
ATOM     12  CAL E1B d          22.914 -30.240  12.805  0.00  0.00    -0.039 A 
ATOM     13  H9  E1B d          22.918 -30.599  13.828  0.00  0.00     0.089 H 
BRANCH  10  14
ATOM     14  NAQ E1B d          23.113 -28.075  13.696  0.00  0.00    -0.339 N 
ATOM     15  H11 E1B d          23.509 -27.176  13.389  0.00  0.00     0.167 HD
BRANCH  14  16
ATOM     16  CAV E1B d          22.902 -27.973  15.088  0.00  0.00     0.158 A 
ATOM     17  C4  E1B d          22.802 -26.743  15.815  0.00  0.00     0.116 A 
ATOM     18  N3  E1B d          22.881 -25.507  15.196  0.00  0.00    -0.237 NA
ATOM     19  C5  E1B d          22.629 -26.810  17.185  0.00  0.00     0.027 A 
ATOM     20  C2  E1B d          22.789 -24.372  15.912  0.00  0.00     0.087 A 
ATOM     21  N1  E1B d          22.622 -24.401  17.257  0.00  0.00    -0.253 NA
ATOM     22  H1  E1B d          22.848 -23.416  15.404  0.00  0.00     0.146 H 
ATOM     23  C6  E1B d          22.535 -25.584  17.913  0.00  0.00     0.017 A 
ATOM     24  H2  E1B d          22.394 -25.600  18.988  0.00  0.00     0.116 H 
ATOM     25  CAY E1B d          22.555 -28.145  17.811  0.00  0.00     0.007 A 
ATOM     26  CAJ E1B d          22.366 -28.269  19.218  0.00  0.00    -0.069 A 
ATOM     27  CAW E1B d          22.639 -29.288  17.045  0.00  0.00     0.071 A 
ATOM     28  CAI E1B d          22.294 -29.549  19.780  0.00  0.00    -0.066 A 
ATOM     29  H8  E1B d          22.278 -27.387  19.841  0.00  0.00     0.085 H 
ATOM     30  CAU E1B d          22.382 -30.714  18.991  0.00  0.00     0.043 A 
ATOM     31  H7  E1B d          22.168 -29.647  20.852  0.00  0.00     0.085 H 
ATOM     32  CAM E1B d          22.565 -30.593  17.615  0.00  0.00    -0.038 A 
ATOM     33  H10 E1B d          22.648 -31.474  16.990  0.00  0.00     0.088 H 
ATOM     34  NAP E1B d          22.814 -29.163  15.688  0.00  0.00    -0.228 NA
BRANCH  30  35
ATOM     35  CAR E1B d          22.316 -32.069  19.624  0.00  0.00     0.209 C 
ATOM     36  OAB E1B d          21.511 -32.814  19.008  0.00  0.00    -0.644 OA
ATOM     37  OAC E1B d          23.157 -32.146  20.553  0.00  0.00    -0.644 OA
ENDBRANCH  30  35
ENDBRANCH  14  16
ENDBRANCH  10  14
ENDBRANCH   2   4
TORSDOF 4
ENDMDL
MODEL 2
REMARK VINA RESULT:      -9.1      2.323      3.748
REMARK  4 active torsions:
REMARK  status: ('A' for Active; 'I' for Inactive)
REMARK    1  A    between atoms: CAS_21  and  CAD_10 
REMARK    2  A    between atoms: NAQ_19  and  CAT_22 
REMARK    3  A    between atoms: CAV_24  and  NAQ_19 
REMARK    4  A    between atoms: CAR_20  and  CAU_23 
ROOT
ATOM      1  CAA E1B d          22.632 -33.776  17.087  0.00  0.00    -0.149 C 
ATOM      2  CAD E1B d          22.709 -33.326  15.975  0.00  0.00    -0.078 C 
ATOM      3  H3  E1B d          22.564 -34.171  18.064  0.00  0.00     0.166 H 
ENDROOT
BRANCH   2   4
ATOM      4  CAS E1B d          22.803 -32.775  14.602  0.00  0.00     0.019 A 
ATOM      5  CAG E1B d          22.802 -33.585  13.478  0.00  0.00    -0.065 A 
ATOM      6  CAE E1B d          22.890 -33.013  12.220  0.00  0.00    -0.079 A 
ATOM      7  H5  E1B d          22.734 -34.662  13.583  0.00  0.00     0.085 H 
ATOM      8  CAH E1B d          22.994 -31.637  12.072  0.00  0.00    -0.057 A 
ATOM      9  H4  E1B d          22.878 -33.647  11.340  0.00  0.00     0.083 H 
ATOM     10  CAT E1B d          23.002 -30.848  13.206  0.00  0.00     0.035 A 
ATOM     11  H6  E1B d          23.066 -31.191  11.087  0.00  0.00     0.086 H 
ATOM     12  CAL E1B d          22.908 -31.412  14.463  0.00  0.00    -0.039 A 
ATOM     13  H9  E1B d          22.918 -30.778  15.342  0.00  0.00     0.089 H 
BRANCH  10  14
ATOM     14  NAQ E1B d          23.110 -29.444  13.196  0.00  0.00    -0.339 N 
ATOM     15  H11 E1B d          23.422 -29.177  12.252  0.00  0.00     0.167 HD
BRANCH  14  16
ATOM     16  CAV E1B d          22.971 -28.247  13.932  0.00  0.00     0.158 A 
ATOM     17  C4  E1B d          23.083 -26.928  13.384  0.00  0.00     0.116 A 
ATOM     18  N3  E1B d          23.319 -26.702  12.038  0.00  0.00    -0.237 NA
ATOM     19  C5  E1B d          22.955 -25.854  14.244  0.00  0.00     0.027 A 
ATOM     20  C2  E1B d          23.423 -25.449  11.560  0.00  0.00     0.087 A 
ATOM     21  N1  E1B d          23.307 -24.373  12.376  0.00  0.00    -0.253 NA
ATOM     22  H1  E1B d          23.604 -25.297  10.502  0.00  0.00     0.146 H 
ATOM     23  C6  E1B d          23.072 -24.537  13.701  0.00  0.00     0.017 A 
ATOM     24  H2  E1B d          22.972 -23.672  14.347  0.00  0.00     0.116 H 
ATOM     25  CAY E1B d          22.709 -26.134  15.674  0.00  0.00     0.007 A 
ATOM     26  CAJ E1B d          22.559 -25.062  16.599  0.00  0.00    -0.069 A 
ATOM     27  CAW E1B d          22.594 -27.430  16.127  0.00  0.00     0.071 A 
ATOM     28  CAI E1B d          22.322 -25.360  17.946  0.00  0.00    -0.066 A 
ATOM     29  H8  E1B d          22.627 -24.032  16.266  0.00  0.00     0.085 H 
ATOM     30  CAU E1B d          22.205 -26.689  18.404  0.00  0.00     0.043 A 
ATOM     31  H7  E1B d          22.224 -24.548  18.657  0.00  0.00     0.085 H 
ATOM     32  CAM E1B d          22.350 -27.738  17.498  0.00  0.00    -0.038 A 
ATOM     33  H10 E1B d          22.277 -28.767  17.829  0.00  0.00     0.088 H 
ATOM     34  NAP E1B d          22.732 -28.460  15.228  0.00  0.00    -0.228 NA
BRANCH  30  35
ATOM     35  CAR E1B d          21.965 -26.976  19.853  0.00  0.00     0.209 C 
ATOM     36  OAB E1B d          22.258 -28.169  20.130  0.00  0.00    -0.644 OA
ATOM     37  OAC E1B d          21.622 -25.924  20.446  0.00  0.00    -0.644 OA
ENDBRANCH  30  35
ENDBRANCH  14  16
ENDBRANCH  10  14
ENDBRANCH   2   4
TORSDOF 4
ENDMDL
MODEL 3
REMARK VINA RESULT:      -9.1      3.466      5.403
REMARK  4 active torsions:
REMARK  status: ('A' for Active; 'I' for Inactive)
REMARK    1  A    between atoms: CAS_21  and  CAD_10 
REMARK    2  A    between atoms: NAQ_19  and  CAT_22 
REMARK    3  A    between atoms: CAV_24  and  NAQ_19 
REMARK    4  A    between atoms: CAR_20  and  CAU_23 
ROOT
ATOM      1  CAA E1B d          23.193 -32.098  10.814  0.00  0.00    -0.149 C 
ATOM      2  CAD E1B d          23.007 -32.490  11.936  0.00  0.00    -0.078 C 
ATOM      3  H3  E1B d          23.357 -31.754   9.830  0.00  0.00     0.166 H 
ENDROOT
BRANCH   2   4
ATOM      4  CAS E1B d          22.779 -32.976  13.318  0.00  0.00     0.019 A 
ATOM      5  CAG E1B d          22.623 -34.321  13.613  0.00  0.00    -0.065 A 
ATOM      6  CAE E1B d          22.415 -34.716  14.923  0.00  0.00    -0.079 A 
ATOM      7  H5  E1B d          22.663 -35.060  12.820  0.00  0.00     0.085 H 
ATOM      8  CAH E1B d          22.346 -33.779  15.944  0.00  0.00    -0.057 A 
ATOM      9  H4  E1B d          22.304 -35.769  15.154  0.00  0.00     0.083 H 
ATOM     10  CAT E1B d          22.495 -32.443  15.627  0.00  0.00     0.035 A 
ATOM     11  H6  E1B d          22.180 -34.090  16.969  0.00  0.00     0.086 H 
ATOM     12  CAL E1B d          22.709 -32.042  14.324  0.00  0.00    -0.039 A 
ATOM     13  H9  E1B d          22.822 -30.989  14.093  0.00  0.00     0.089 H 
BRANCH  10  14
ATOM     14  NAQ E1B d          22.439 -31.393  16.566  0.00  0.00    -0.339 N 
ATOM     15  H11 E1B d          22.297 -31.827  17.488  0.00  0.00     0.167 HD
BRANCH  14  16
ATOM     16  CAV E1B d          22.495 -29.998  16.777  0.00  0.00     0.158 A 
ATOM     17  C4  E1B d          22.391 -29.356  18.052  0.00  0.00     0.116 A 
ATOM     18  N3  E1B d          22.247 -30.068  19.232  0.00  0.00    -0.237 NA
ATOM     19  C5  E1B d          22.430 -27.975  18.090  0.00  0.00     0.027 A 
ATOM     20  C2  E1B d          22.146 -29.430  20.412  0.00  0.00     0.087 A 
ATOM     21  N1  E1B d          22.177 -28.077  20.485  0.00  0.00    -0.253 NA
ATOM     22  H1  E1B d          22.039 -30.009  21.322  0.00  0.00     0.146 H 
ATOM     23  C6  E1B d          22.321 -27.331  19.362  0.00  0.00     0.017 A 
ATOM     24  H2  E1B d          22.352 -26.249  19.427  0.00  0.00     0.116 H 
ATOM     25  CAY E1B d          22.579 -27.249  16.812  0.00  0.00     0.007 A 
ATOM     26  CAJ E1B d          22.636 -25.826  16.797  0.00  0.00    -0.069 A 
ATOM     27  CAW E1B d          22.693 -27.936  15.622  0.00  0.00     0.071 A 
ATOM     28  CAI E1B d          22.783 -25.168  15.570  0.00  0.00    -0.066 A 
ATOM     29  H8  E1B d          22.567 -25.262  17.720  0.00  0.00     0.085 H 
ATOM     30  CAU E1B d          22.899 -25.876  14.356  0.00  0.00     0.043 A 
ATOM     31  H7  E1B d          22.809 -24.085  15.553  0.00  0.00     0.085 H 
ATOM     32  CAM E1B d          22.846 -27.268  14.371  0.00  0.00    -0.038 A 
ATOM     33  H10 E1B d          22.919 -27.833  13.449  0.00  0.00     0.088 H 
ATOM     34  NAP E1B d          22.645 -29.309  15.643  0.00  0.00    -0.228 NA
BRANCH  30  35
ATOM     35  CAR E1B d          23.041 -25.144  13.059  0.00  0.00     0.209 C 
ATOM     36  OAB E1B d          24.034 -24.371  13.084  0.00  0.00    -0.644 OA
ATOM     37  OAC E1B d          22.186 -25.560  12.239  0.00  0.00    -0.644 OA
ENDBRANCH  30  35
ENDBRANCH  14  16
ENDBRANCH  10  14
ENDBRANCH   2   4
TORSDOF 4
ENDMDL
MODEL 4
REMARK VINA RESULT:      -9.1      2.057      5.652
REMARK  4 active torsions:
REMARK  status: ('A' for Active; 'I' for Inactive)
REMARK    1  A    between atoms: CAS_21  and  CAD_10 
REMARK    2  A    between atoms: NAQ_19  and  CAT_22 
REMARK    3  A    between atoms: CAV_24  and  NAQ_19 
REMARK    4  A    between atoms: CAR_20  and  CAU_23 
ROOT
ATOM      1  CAA E1B d          21.762 -24.941  18.218  0.00  0.00    -0.149 C 
ATOM      2  CAD E1B d          22.049 -25.152  17.070  0.00  0.00    -0.078 C 
ATOM      3  H3  E1B d          21.509 -24.756  19.227  0.00  0.00     0.166 H 
ENDROOT
BRANCH   2   4
ATOM      4  CAS E1B d          22.406 -25.413  15.655  0.00  0.00     0.019 A 
ATOM      5  CAG E1B d          22.706 -24.393  14.767  0.00  0.00    -0.065 A 
ATOM      6  CAE E1B d          23.036 -24.697  13.458  0.00  0.00    -0.079 A 
ATOM      7  H5  E1B d          22.683 -23.360  15.097  0.00  0.00     0.085 H 
ATOM      8  CAH E1B d          23.054 -26.014  13.019  0.00  0.00    -0.057 A 
ATOM      9  H4  E1B d          23.281 -23.899  12.767  0.00  0.00     0.083 H 
ATOM     10  CAT E1B d          22.742 -27.015  13.918  0.00  0.00     0.035 A 
ATOM     11  H6  E1B d          23.309 -26.250  11.992  0.00  0.00     0.086 H 
ATOM     12  CAL E1B d          22.420 -26.719  15.227  0.00  0.00    -0.039 A 
ATOM     13  H9  E1B d          22.176 -27.518  15.918  0.00  0.00     0.089 H 
BRANCH  10  14
ATOM     14  NAQ E1B d          22.717 -28.388  13.600  0.00  0.00    -0.339 N 
ATOM     15  H11 E1B d          22.762 -28.456  12.573  0.00  0.00     0.167 HD
BRANCH  14  16
ATOM     16  CAV E1B d          22.657 -29.709  14.093  0.00  0.00     0.158 A 
ATOM     17  C4  E1B d          22.745 -30.891  13.288  0.00  0.00     0.116 A 
ATOM     18  N3  E1B d          22.928 -30.841  11.916  0.00  0.00    -0.237 NA
ATOM     19  C5  E1B d          22.633 -32.116  13.918  0.00  0.00     0.027 A 
ATOM     20  C2  E1B d          23.000 -31.973  11.191  0.00  0.00     0.087 A 
ATOM     21  N1  E1B d          22.891 -33.190  11.775  0.00  0.00    -0.253 NA
ATOM     22  H1  E1B d          23.149 -31.909  10.120  0.00  0.00     0.146 H 
ATOM     23  C6  E1B d          22.715 -33.297  13.116  0.00  0.00     0.017 A 
ATOM     24  H2  E1B d          22.636 -34.274  13.578  0.00  0.00     0.116 H 
ATOM     25  CAY E1B d          22.433 -32.129  15.381  0.00  0.00     0.007 A 
ATOM     26  CAJ E1B d          22.323 -33.366  16.079  0.00  0.00    -0.069 A 
ATOM     27  CAW E1B d          22.377 -30.951  16.094  0.00  0.00     0.071 A 
ATOM     28  CAI E1B d          22.139 -33.345  17.467  0.00  0.00    -0.066 A 
ATOM     29  H8  E1B d          22.381 -34.308  15.545  0.00  0.00     0.085 H 
ATOM     30  CAU E1B d          22.082 -32.136  18.191  0.00  0.00     0.043 A 
ATOM     31  H7  E1B d          22.037 -34.283  17.999  0.00  0.00     0.085 H 
ATOM     32  CAM E1B d          22.192 -30.926  17.508  0.00  0.00    -0.038 A 
ATOM     33  H10 E1B d          22.138 -29.985  18.042  0.00  0.00     0.088 H 
ATOM     34  NAP E1B d          22.491 -29.761  15.416  0.00  0.00    -0.228 NA
BRANCH  30  35
ATOM     35  CAR E1B d          21.870 -32.146  19.673  0.00  0.00     0.209 C 
ATOM     36  OAB E1B d          22.174 -33.264  20.163  0.00  0.00    -0.644 OA
ATOM     37  OAC E1B d          21.533 -31.001  20.062  0.00  0.00    -0.644 OA
ENDBRANCH  30  35
ENDBRANCH  14  16
ENDBRANCH  10  14
ENDBRANCH   2   4
TORSDOF 4
ENDMDL
MODEL 5
REMARK VINA RESULT:      -8.7      3.245      5.910
REMARK  4 active torsions:
REMARK  status: ('A' for Active; 'I' for Inactive)
REMARK    1  A    between atoms: CAS_21  and  CAD_10 
REMARK    2  A    between atoms: NAQ_19  and  CAT_22 
REMARK    3  A    between atoms: CAV_24  and  NAQ_19 
REMARK    4  A    between atoms: CAR_20  and  CAU_23 
ROOT
ATOM      1  CAA E1B d          22.623 -34.488  14.534  0.00  0.00    -0.149 C 
ATOM      2  CAD E1B d          22.531 -33.879  15.567  0.00  0.00    -0.078 C 
ATOM      3  H3  E1B d          22.703 -35.023  13.627  0.00  0.00     0.166 H 
ENDROOT
BRANCH   2   4
ATOM      4  CAS E1B d          22.418 -33.125  16.838  0.00  0.00     0.019 A 
ATOM      5  CAG E1B d          22.479 -33.748  18.075  0.00  0.00    -0.065 A 
ATOM      6  CAE E1B d          22.370 -32.992  19.229  0.00  0.00    -0.079 A 
ATOM      7  H5  E1B d          22.611 -34.822  18.137  0.00  0.00     0.085 H 
ATOM      8  CAH E1B d          22.185 -31.618  19.163  0.00  0.00    -0.057 A 
ATOM      9  H4  E1B d          22.429 -33.478  20.197  0.00  0.00     0.083 H 
ATOM     10  CAT E1B d          22.117 -31.019  17.920  0.00  0.00     0.035 A 
ATOM     11  H6  E1B d          22.097 -31.028  20.068  0.00  0.00     0.086 H 
ATOM     12  CAL E1B d          22.232 -31.766  16.765  0.00  0.00    -0.039 A 
ATOM     13  H9  E1B d          22.175 -31.279  15.798  0.00  0.00     0.089 H 
BRANCH  10  14
ATOM     14  NAQ E1B d          21.926 -29.639  17.713  0.00  0.00    -0.339 N 
ATOM     15  H11 E1B d          21.510 -29.264  18.578  0.00  0.00     0.167 HD
BRANCH  14  16
ATOM     16  CAV E1B d          22.062 -28.551  16.823  0.00  0.00     0.158 A 
ATOM     17  C4  E1B d          22.006 -27.171  17.199  0.00  0.00     0.116 A 
ATOM     18  N3  E1B d          21.834 -26.766  18.512  0.00  0.00    -0.237 NA
ATOM     19  C5  E1B d          22.123 -26.221  16.202  0.00  0.00     0.027 A 
ATOM     20  C2  E1B d          21.781 -25.459  18.827  0.00  0.00     0.087 A 
ATOM     21  N1  E1B d          21.888 -24.501  17.874  0.00  0.00    -0.253 NA
ATOM     22  H1  E1B d          21.650 -25.166  19.862  0.00  0.00     0.146 H 
ATOM     23  C6  E1B d          22.062 -24.841  16.574  0.00  0.00     0.017 A 
ATOM     24  H2  E1B d          22.155 -24.070  15.817  0.00  0.00     0.116 H 
ATOM     25  CAY E1B d          22.301 -26.689  14.812  0.00  0.00     0.007 A 
ATOM     26  CAJ E1B d          22.437 -25.751  13.750  0.00  0.00    -0.069 A 
ATOM     27  CAW E1B d          22.364 -28.036  14.527  0.00  0.00     0.071 A 
ATOM     28  CAI E1B d          22.609 -26.227  12.445  0.00  0.00    -0.066 A 
ATOM     29  H8  E1B d          22.408 -24.685  13.949  0.00  0.00     0.085 H 
ATOM     30  CAU E1B d          22.673 -27.607  12.160  0.00  0.00     0.043 A 
ATOM     31  H7  E1B d          22.695 -25.516  11.631  0.00  0.00     0.085 H 
ATOM     32  CAM E1B d          22.542 -28.525  13.199  0.00  0.00    -0.038 A 
ATOM     33  H10 E1B d          22.575 -29.590  13.002  0.00  0.00     0.088 H 
ATOM     34  NAP E1B d          22.240 -28.937  15.557  0.00  0.00    -0.228 NA
BRANCH  30  35
ATOM     35  CAR E1B d          22.844 -28.086  10.752  0.00  0.00     0.209 C 
ATOM     36  OAB E1B d          21.948 -28.915  10.447  0.00  0.00    -0.644 OA
ATOM     37  OAC E1B d          23.784 -27.464  10.200  0.00  0.00    -0.644 OA
ENDBRANCH  30  35
ENDBRANCH  14  16
ENDBRANCH  10  14
ENDBRANCH   2   4
TORSDOF 4
ENDMDL
MODEL 6
REMARK VINA RESULT:      -6.7      3.448      7.201
REMARK  4 active torsions:
REMARK  status: ('A' for Active; 'I' for Inactive)
REMARK    1  A    between atoms: CAS_21  and  CAD_10 
REMARK    2  A    between atoms: NAQ_19  and  CAT_22 
REMARK    3  A    between atoms: CAV_24  and  NAQ_19 
REMARK    4  A    between atoms: CAR_20  and  CAU_23 
ROOT
ATOM      1  CAA E1B d          22.017 -24.372  20.558  0.00  0.00    -0.149 C 
ATOM      2  CAD E1B d          22.099 -24.989  19.529  0.00  0.00    -0.078 C 
ATOM      3  H3  E1B d          21.944 -23.831  21.462  0.00  0.00     0.166 H 
ENDROOT
BRANCH   2   4
ATOM      4  CAS E1B d          22.204 -25.751  18.261  0.00  0.00     0.019 A 
ATOM      5  CAG E1B d          22.578 -25.154  17.068  0.00  0.00    -0.065 A 
ATOM      6  CAE E1B d          22.661 -25.917  15.916  0.00  0.00    -0.079 A 
ATOM      7  H5  E1B d          22.805 -24.094  17.038  0.00  0.00     0.085 H 
ATOM      8  CAH E1B d          22.359 -27.271  15.939  0.00  0.00    -0.057 A 
ATOM      9  H4  E1B d          22.965 -25.451  14.985  0.00  0.00     0.083 H 
ATOM     10  CAT E1B d          21.977 -27.844  17.137  0.00  0.00     0.035 A 
ATOM     11  H6  E1B d          22.420 -27.866  15.035  0.00  0.00     0.086 H 
ATOM     12  CAL E1B d          21.900 -27.090  18.290  0.00  0.00    -0.039 A 
ATOM     13  H9  E1B d          21.597 -27.556  19.222  0.00  0.00     0.089 H 
BRANCH  10  14
ATOM     14  NAQ E1B d          21.638 -29.202  17.294  0.00  0.00    -0.339 N 
ATOM     15  H11 E1B d          20.790 -29.230  17.878  0.00  0.00     0.167 HD
BRANCH  14  16
ATOM     16  CAV E1B d          21.967 -30.541  16.991  0.00  0.00     0.158 A 
ATOM     17  C4  E1B d          22.286 -31.547  17.960  0.00  0.00     0.116 A 
ATOM     18  N3  E1B d          22.275 -31.296  19.321  0.00  0.00    -0.237 NA
ATOM     19  C5  E1B d          22.622 -32.807  17.501  0.00  0.00     0.027 A 
ATOM     20  C2  E1B d          22.586 -32.265  20.201  0.00  0.00     0.087 A 
ATOM     21  N1  E1B d          22.924 -33.510  19.786  0.00  0.00    -0.253 NA
ATOM     22  H1  E1B d          22.566 -32.046  21.262  0.00  0.00     0.146 H 
ATOM     23  C6  E1B d          22.947 -33.811  18.465  0.00  0.00     0.017 A 
ATOM     24  H2  E1B d          23.211 -34.811  18.139  0.00  0.00     0.116 H 
ATOM     25  CAY E1B d          22.629 -33.036  16.041  0.00  0.00     0.007 A 
ATOM     26  CAJ E1B d          22.957 -34.319  15.518  0.00  0.00    -0.069 A 
ATOM     27  CAW E1B d          22.291 -32.024  15.169  0.00  0.00     0.071 A 
ATOM     28  CAI E1B d          22.949 -34.506  14.130  0.00  0.00    -0.066 A 
ATOM     29  H8  E1B d          23.209 -35.138  16.183  0.00  0.00     0.085 H 
ATOM     30  CAU E1B d          22.603 -33.466  13.243  0.00  0.00     0.043 A 
ATOM     31  H7  E1B d          23.216 -35.476  13.728  0.00  0.00     0.085 H 
ATOM     32  CAM E1B d          22.280 -32.211  13.755  0.00  0.00    -0.038 A 
ATOM     33  H10 E1B d          22.024 -31.394  13.091  0.00  0.00     0.088 H 
ATOM     34  NAP E1B d          21.968 -30.790  15.680  0.00  0.00    -0.228 NA
BRANCH  30  35
ATOM     35  CAR E1B d          22.618 -33.692  11.763  0.00  0.00     0.209 C 
ATOM     36  OAB E1B d          22.144 -34.822  11.476  0.00  0.00    -0.644 OA
ATOM     37  OAC E1B d          23.011 -32.654  11.177  0.00  0.00    -0.644 OA
ENDBRANCH  30  35
ENDBRANCH  14  16
ENDBRANCH  10  14
ENDBRANCH   2   4
TORSDOF 4
ENDMDL
