MODEL 1
REMARK VINA RESULT:      -8.5      0.000      0.000
REMARK  7 active torsions:
REMARK  status: ('A' for Active; 'I' for Inactive)
REMARK    1  A    between atoms: C8_6  and  C7_7 
REMARK       I    between atoms: C7_7  and  N1_9 
REMARK    2  A    between atoms: N1_9  and  C1_10 
REMARK    3  A    between atoms: C5_12  and  C6_13 
REMARK    4  A    between atoms: C6_13  and  O6_14 
REMARK    5  A    between atoms: C4_15  and  O4_16 
REMARK    6  A    between atoms: C3_17  and  O3_18 
REMARK    7  A    between atoms: C2_19  and  O2_20 
ROOT
ATOM      1  C1  OAK d          33.104  23.270  28.676  0.00  0.00     0.134 C 
ATOM      2  O5  OAK d          33.578  22.651  27.430  0.00  0.00    -0.354 OA
ATOM      3  C5  OAK d          32.512  22.332  26.532  0.00  0.00     0.088 C 
ATOM      4  C4  OAK d          31.761  23.634  26.156  0.00  0.00     0.089 C 
ATOM      5  C3  OAK d          31.237  24.369  27.400  0.00  0.00     0.091 C 
ATOM      6  C2  OAK d          32.370  24.597  28.414  0.00  0.00     0.104 C 
ATOM      7  H7  OAK d          32.408  22.575  29.168  0.00  0.00     0.122 H 
ATOM      8  H8  OAK d          31.803  21.644  27.017  0.00  0.00     0.090 H 
ATOM      9  H12 OAK d          32.455  24.298  25.619  0.00  0.00     0.091 H 
ATOM     10  H14 OAK d          30.456  23.756  27.872  0.00  0.00     0.091 H 
ATOM     11  H16 OAK d          33.084  25.315  27.985  0.00  0.00     0.093 H 
ENDROOT
BRANCH   1  12
ATOM     12  N1  OAK d          34.260  23.522  29.576  0.00  0.00    -0.328 N 
ATOM     13  C7  OAK d          35.379  24.042  29.079  0.00  0.00     0.253 C 
ATOM     14  O7  OAK d          35.530  24.342  27.897  0.00  0.00    -0.268 OA
ATOM     15  H6  OAK d          34.196  23.301  30.549  0.00  0.00     0.165 HD
BRANCH  13  16
ATOM     16  C8  OAK d          36.511  24.269  30.088  0.00  0.00     0.032 A 
ATOM     17  C9  OAK d          36.640  25.495  30.733  0.00  0.00    -0.068 A 
ATOM     18  C10 OAK d          37.672  25.706  31.645  0.00  0.00    -0.082 A 
ATOM     19  H1  OAK d          35.934  26.291  30.524  0.00  0.00     0.085 H 
ATOM     20  C11 OAK d          38.582  24.689  31.919  0.00  0.00    -0.083 A 
ATOM     21  H2  OAK d          37.766  26.665  32.143  0.00  0.00     0.083 H 
ATOM     22  C12 OAK d          38.458  23.457  31.273  0.00  0.00    -0.082 A 
ATOM     23  H3  OAK d          39.384  24.853  32.630  0.00  0.00     0.083 H 
ATOM     24  C13 OAK d          37.421  23.246  30.357  0.00  0.00    -0.068 A 
ATOM     25  H4  OAK d          39.166  22.663  31.482  0.00  0.00     0.083 H 
ATOM     26  H5  OAK d          37.325  22.289  29.857  0.00  0.00     0.085 H 
ENDBRANCH  13  16
ENDBRANCH   1  12
BRANCH   6  27
ATOM     27  O2  OAK d          31.863  25.142  29.645  0.00  0.00    -0.389 OA
ATOM     28  H17 OAK d          31.048  25.598  29.475  0.00  0.00     0.210 HD
ENDBRANCH   6  27
BRANCH   3  29
ATOM     29  C6  OAK d          33.159  21.624  25.327  0.00  0.00     0.043 C 
ATOM     30  H9  OAK d          32.588  20.715  25.088  0.00  0.00     0.078 H 
ATOM     31  H10 OAK d          34.195  21.351  25.576  0.00  0.00     0.078 H 
BRANCH  29  32
ATOM     32  O6  OAK d          33.157  22.497  24.196  0.00  0.00    -0.398 OA
ATOM     33  H11 OAK d          33.896  22.290  23.635  0.00  0.00     0.209 HD
ENDBRANCH  29  32
ENDBRANCH   3  29
BRANCH   5  34
ATOM     34  O3  OAK d          30.675  25.625  27.017  0.00  0.00    -0.390 OA
ATOM     35  H15 OAK d          31.188  25.997  26.310  0.00  0.00     0.210 HD
ENDBRANCH   5  34
BRANCH   4  36
ATOM     36  O4  OAK d          30.670  23.315  25.305  0.00  0.00    -0.390 OA
ATOM     37  H13 OAK d          30.624  23.948  24.598  0.00  0.00     0.210 HD
ENDBRANCH   4  36
TORSDOF 7
ENDMDL
MODEL 2
REMARK VINA RESULT:      -7.7      2.495      6.587
REMARK  7 active torsions:
REMARK  status: ('A' for Active; 'I' for Inactive)
REMARK    1  A    between atoms: C8_6  and  C7_7 
REMARK       I    between atoms: C7_7  and  N1_9 
REMARK    2  A    between atoms: N1_9  and  C1_10 
REMARK    3  A    between atoms: C5_12  and  C6_13 
REMARK    4  A    between atoms: C6_13  and  O6_14 
REMARK    5  A    between atoms: C4_15  and  O4_16 
REMARK    6  A    between atoms: C3_17  and  O3_18 
REMARK    7  A    between atoms: C2_19  and  O2_20 
ROOT
ATOM      1  C1  OAK d          35.010  24.054  29.625  0.00  0.00     0.134 C 
ATOM      2  O5  OAK d          36.284  23.479  30.079  0.00  0.00    -0.354 OA
ATOM      3  C5  OAK d          37.229  24.476  30.475  0.00  0.00     0.088 C 
ATOM      4  C4  OAK d          36.637  25.297  31.649  0.00  0.00     0.089 C 
ATOM      5  C3  OAK d          35.286  25.929  31.277  0.00  0.00     0.091 C 
ATOM      6  C2  OAK d          34.318  24.864  30.735  0.00  0.00     0.104 C 
ATOM      7  H7  OAK d          35.211  24.722  28.776  0.00  0.00     0.122 H 
ATOM      8  H8  OAK d          37.432  25.159  29.637  0.00  0.00     0.090 H 
ATOM      9  H12 OAK d          36.488  24.626  32.508  0.00  0.00     0.091 H 
ATOM     10  H14 OAK d          35.451  26.688  30.498  0.00  0.00     0.091 H 
ATOM     11  H16 OAK d          34.054  24.182  31.556  0.00  0.00     0.093 H 
ENDROOT
BRANCH   1  12
ATOM     12  N1  OAK d          34.104  22.962  29.181  0.00  0.00    -0.328 N 
ATOM     13  C7  OAK d          33.594  22.990  27.953  0.00  0.00     0.253 C 
ATOM     14  O7  OAK d          33.826  23.876  27.133  0.00  0.00    -0.268 OA
ATOM     15  H6  OAK d          33.879  22.211  29.803  0.00  0.00     0.165 HD
BRANCH  13  16
ATOM     16  C8  OAK d          32.676  21.817  27.588  0.00  0.00     0.032 A 
ATOM     17  C9  OAK d          31.587  22.015  26.745  0.00  0.00    -0.068 A 
ATOM     18  C10 OAK d          30.748  20.952  26.418  0.00  0.00    -0.082 A 
ATOM     19  H1  OAK d          31.390  23.001  26.341  0.00  0.00     0.085 H 
ATOM     20  C11 OAK d          30.994  19.681  26.932  0.00  0.00    -0.083 A 
ATOM     21  H2  OAK d          29.901  21.114  25.761  0.00  0.00     0.083 H 
ATOM     22  C12 OAK d          32.086  19.478  27.780  0.00  0.00    -0.082 A 
ATOM     23  H3  OAK d          30.342  18.854  26.677  0.00  0.00     0.083 H 
ATOM     24  C13 OAK d          32.928  20.547  28.108  0.00  0.00    -0.068 A 
ATOM     25  H4  OAK d          32.280  18.492  28.184  0.00  0.00     0.083 H 
ATOM     26  H5  OAK d          33.775  20.388  28.766  0.00  0.00     0.085 H 
ENDBRANCH  13  16
ENDBRANCH   1  12
BRANCH   6  27
ATOM     27  O2  OAK d          33.109  25.465  30.240  0.00  0.00    -0.389 OA
ATOM     28  H17 OAK d          33.329  26.140  29.608  0.00  0.00     0.210 HD
ENDBRANCH   6  27
BRANCH   3  29
ATOM     29  C6  OAK d          38.523  23.726  30.840  0.00  0.00     0.043 C 
ATOM     30  H9  OAK d          39.393  24.334  30.551  0.00  0.00     0.078 H 
ATOM     31  H10 OAK d          38.553  22.765  30.304  0.00  0.00     0.078 H 
BRANCH  29  32
ATOM     32  O6  OAK d          38.560  23.483  32.248  0.00  0.00    -0.398 OA
ATOM     33  H11 OAK d          37.759  23.048  32.515  0.00  0.00     0.209 HD
ENDBRANCH  29  32
ENDBRANCH   3  29
BRANCH   5  34
ATOM     34  O3  OAK d          34.715  26.557  32.425  0.00  0.00    -0.390 OA
ATOM     35  H15 OAK d          33.878  26.941  32.192  0.00  0.00     0.210 HD
ENDBRANCH   5  34
BRANCH   4  36
ATOM     36  O4  OAK d          37.551  26.321  32.011  0.00  0.00    -0.390 OA
ATOM     37  H13 OAK d          37.122  26.935  32.596  0.00  0.00     0.210 HD
ENDBRANCH   4  36
TORSDOF 7
ENDMDL
MODEL 3
REMARK VINA RESULT:      -7.0      1.489      2.943
REMARK  7 active torsions:
REMARK  status: ('A' for Active; 'I' for Inactive)
REMARK    1  A    between atoms: C8_6  and  C7_7 
REMARK       I    between atoms: C7_7  and  N1_9 
REMARK    2  A    between atoms: N1_9  and  C1_10 
REMARK    3  A    between atoms: C5_12  and  C6_13 
REMARK    4  A    between atoms: C6_13  and  O6_14 
REMARK    5  A    between atoms: C4_15  and  O4_16 
REMARK    6  A    between atoms: C3_17  and  O3_18 
REMARK    7  A    between atoms: C2_19  and  O2_20 
ROOT
ATOM      1  C1  OAK d          34.196  23.428  27.448  0.00  0.00     0.134 C 
ATOM      2  O5  OAK d          33.154  24.444  27.654  0.00  0.00    -0.354 OA
ATOM      3  C5  OAK d          32.045  24.285  26.764  0.00  0.00     0.088 C 
ATOM      4  C4  OAK d          31.402  22.896  27.001  0.00  0.00     0.089 C 
ATOM      5  C3  OAK d          32.422  21.758  26.825  0.00  0.00     0.091 C 
ATOM      6  C2  OAK d          33.666  22.005  27.695  0.00  0.00     0.104 C 
ATOM      7  H7  OAK d          34.550  23.495  26.409  0.00  0.00     0.122 H 
ATOM      8  H8  OAK d          32.388  24.340  25.720  0.00  0.00     0.090 H 
ATOM      9  H12 OAK d          31.008  22.860  28.027  0.00  0.00     0.091 H 
ATOM     10  H14 OAK d          32.729  21.717  25.770  0.00  0.00     0.091 H 
ATOM     11  H16 OAK d          33.376  21.916  28.752  0.00  0.00     0.093 H 
ENDROOT
BRANCH   1  12
ATOM     12  N1  OAK d          35.333  23.691  28.368  0.00  0.00    -0.328 N 
ATOM     13  C7  OAK d          35.092  24.082  29.617  0.00  0.00     0.253 C 
ATOM     14  O7  OAK d          33.965  24.242  30.081  0.00  0.00    -0.268 OA
ATOM     15  H6  OAK d          36.274  23.575  28.050  0.00  0.00     0.165 HD
BRANCH  13  16
ATOM     16  C8  OAK d          36.330  24.322  30.489  0.00  0.00     0.032 A 
ATOM     17  C9  OAK d          37.341  23.369  30.548  0.00  0.00    -0.068 A 
ATOM     18  C10 OAK d          38.464  23.581  31.345  0.00  0.00    -0.082 A 
ATOM     19  H1  OAK d          37.255  22.455  29.972  0.00  0.00     0.085 H 
ATOM     20  C11 OAK d          38.583  24.753  32.088  0.00  0.00    -0.083 A 
ATOM     21  H2  OAK d          39.247  22.833  31.387  0.00  0.00     0.083 H 
ATOM     22  C12 OAK d          37.570  25.713  32.033  0.00  0.00    -0.082 A 
ATOM     23  H3  OAK d          39.457  24.919  32.707  0.00  0.00     0.083 H 
ATOM     24  C13 OAK d          36.442  25.498  31.232  0.00  0.00    -0.068 A 
ATOM     25  H4  OAK d          37.658  26.625  32.611  0.00  0.00     0.083 H 
ATOM     26  H5  OAK d          35.657  26.243  31.190  0.00  0.00     0.085 H 
ENDBRANCH  13  16
ENDBRANCH   1  12
BRANCH   6  27
ATOM     27  O2  OAK d          34.690  21.033  27.423  0.00  0.00    -0.389 OA
ATOM     28  H17 OAK d          34.759  20.902  26.485  0.00  0.00     0.210 HD
ENDBRANCH   6  27
BRANCH   3  29
ATOM     29  C6  OAK d          31.092  25.461  27.046  0.00  0.00     0.043 C 
ATOM     30  H9  OAK d          30.321  25.143  27.763  0.00  0.00     0.078 H 
ATOM     31  H10 OAK d          30.612  25.777  26.108  0.00  0.00     0.078 H 
BRANCH  29  32
ATOM     32  O6  OAK d          31.827  26.557  27.595  0.00  0.00    -0.398 OA
ATOM     33  H11 OAK d          31.516  27.370  27.211  0.00  0.00     0.209 HD
ENDBRANCH  29  32
ENDBRANCH   3  29
BRANCH   5  34
ATOM     34  O3  OAK d          31.823  20.514  27.185  0.00  0.00    -0.390 OA
ATOM     35  H15 OAK d          32.456  19.814  27.073  0.00  0.00     0.210 HD
ENDBRANCH   5  34
BRANCH   4  36
ATOM     36  O4  OAK d          30.333  22.713  26.084  0.00  0.00    -0.390 OA
ATOM     37  H13 OAK d          29.830  21.947  26.334  0.00  0.00     0.210 HD
ENDBRANCH   4  36
TORSDOF 7
ENDMDL
MODEL 4
REMARK VINA RESULT:      -5.8      2.306      6.590
REMARK  7 active torsions:
REMARK  status: ('A' for Active; 'I' for Inactive)
REMARK    1  A    between atoms: C8_6  and  C7_7 
REMARK       I    between atoms: C7_7  and  N1_9 
REMARK    2  A    between atoms: N1_9  and  C1_10 
REMARK    3  A    between atoms: C5_12  and  C6_13 
REMARK    4  A    between atoms: C6_13  and  O6_14 
REMARK    5  A    between atoms: C4_15  and  O4_16 
REMARK    6  A    between atoms: C3_17  and  O3_18 
REMARK    7  A    between atoms: C2_19  and  O2_20 
ROOT
ATOM      1  C1  OAK d          35.013  23.282  30.120  0.00  0.00     0.134 C 
ATOM      2  O5  OAK d          33.895  24.031  30.712  0.00  0.00    -0.354 OA
ATOM      3  C5  OAK d          34.301  24.846  31.814  0.00  0.00     0.088 C 
ATOM      4  C4  OAK d          35.351  25.874  31.323  0.00  0.00     0.089 C 
ATOM      5  C3  OAK d          36.560  25.186  30.668  0.00  0.00     0.091 C 
ATOM      6  C2  OAK d          36.102  24.216  29.566  0.00  0.00     0.104 C 
ATOM      7  H7  OAK d          35.458  22.646  30.898  0.00  0.00     0.122 H 
ATOM      8  H8  OAK d          34.759  24.223  32.597  0.00  0.00     0.090 H 
ATOM      9  H12 OAK d          34.878  26.536  30.582  0.00  0.00     0.091 H 
ATOM     10  H14 OAK d          37.104  24.618  31.436  0.00  0.00     0.091 H 
ATOM     11  H16 OAK d          35.674  24.804  28.740  0.00  0.00     0.093 H 
ENDROOT
BRANCH   1  12
ATOM     12  N1  OAK d          34.504  22.420  29.020  0.00  0.00    -0.328 N 
ATOM     13  C7  OAK d          33.305  22.662  28.497  0.00  0.00     0.253 C 
ATOM     14  O7  OAK d          32.566  23.574  28.864  0.00  0.00    -0.268 OA
ATOM     15  H6  OAK d          35.060  21.664  28.676  0.00  0.00     0.165 HD
BRANCH  13  16
ATOM     16  C8  OAK d          32.873  21.722  27.365  0.00  0.00     0.032 A 
ATOM     17  C9  OAK d          31.527  21.594  27.035  0.00  0.00    -0.068 A 
ATOM     18  C10 OAK d          31.132  20.735  26.011  0.00  0.00    -0.082 A 
ATOM     19  H1  OAK d          30.782  22.164  27.578  0.00  0.00     0.085 H 
ATOM     20  C11 OAK d          32.082  20.000  25.309  0.00  0.00    -0.083 A 
ATOM     21  H2  OAK d          30.081  20.640  25.761  0.00  0.00     0.083 H 
ATOM     22  C12 OAK d          33.434  20.124  25.636  0.00  0.00    -0.082 A 
ATOM     23  H3  OAK d          31.775  19.333  24.511  0.00  0.00     0.083 H 
ATOM     24  C13 OAK d          33.830  20.987  26.666  0.00  0.00    -0.068 A 
ATOM     25  H4  OAK d          34.177  19.552  25.093  0.00  0.00     0.083 H 
ATOM     26  H5  OAK d          34.880  21.083  26.919  0.00  0.00     0.085 H 
ENDBRANCH  13  16
ENDBRANCH   1  12
BRANCH   6  27
ATOM     27  O2  OAK d          37.207  23.453  29.053  0.00  0.00    -0.389 OA
ATOM     28  H17 OAK d          37.627  23.938  28.353  0.00  0.00     0.210 HD
ENDBRANCH   6  27
BRANCH   3  29
ATOM     29  C6  OAK d          33.019  25.493  32.369  0.00  0.00     0.043 C 
ATOM     30  H9  OAK d          32.990  26.554  32.081  0.00  0.00     0.078 H 
ATOM     31  H10 OAK d          33.013  25.411  33.466  0.00  0.00     0.078 H 
BRANCH  29  32
ATOM     32  O6  OAK d          31.872  24.826  31.837  0.00  0.00    -0.398 OA
ATOM     33  H11 OAK d          31.855  24.932  30.893  0.00  0.00     0.209 HD
ENDBRANCH  29  32
ENDBRANCH   3  29
BRANCH   5  34
ATOM     34  O3  OAK d          37.432  26.169  30.111  0.00  0.00    -0.390 OA
ATOM     35  H15 OAK d          38.152  25.737  29.667  0.00  0.00     0.210 HD
ENDBRANCH   5  34
BRANCH   4  36
ATOM     36  O4  OAK d          35.795  26.652  32.425  0.00  0.00    -0.390 OA
ATOM     37  H13 OAK d          35.745  26.133  33.220  0.00  0.00     0.210 HD
ENDBRANCH   4  36
TORSDOF 7
ENDMDL
