MODEL 1
REMARK VINA RESULT:     -11.0      0.000      0.000
REMARK  23 active torsions:
REMARK  status: ('A' for Active; 'I' for Inactive)
REMARK    1  A    between atoms: CBK_1  and  CBL_2 
REMARK    2  A    between atoms: CBL_2  and  CBM_3 
REMARK    3  A    between atoms: CBL_2  and  CBN_4 
REMARK    4  A    between atoms: CBN_4  and  NBO_5 
REMARK       I    between atoms: NBO_5  and  CBP_6 
REMARK    5  A    between atoms: CBP_6  and  CBG_8 
REMARK    6  A    between atoms: CBG_8  and  CBH_9 
REMARK    7  A    between atoms: CBG_8  and  NBF_12 
REMARK    8  A    between atoms: CBH_9  and  CBJ_10 
REMARK    9  A    between atoms: CBH_9  and  OBI_11 
REMARK   10  A    between atoms: NBF_12  and  CAX_13 
REMARK   11  A    between atoms: CAX_13  and  CAW_14 
REMARK   12  A    between atoms: CAW_14  and  CAY_15 
REMARK   13  A    between atoms: CAW_14  and  NAV_22 
REMARK   14  A    between atoms: CAY_15  and  CAZ_16 
REMARK       I    between atoms: NAV_22  and  CAT_23 
REMARK   15  A    between atoms: CAT_23  and  CAP_25 
REMARK   16  A    between atoms: CAN_28  and  NAE_29 
REMARK   17  A    between atoms: NAE_29  and  CBT_30 
REMARK   18  A    between atoms: NAE_29  and  SAB_31 
REMARK   19  A    between atoms: SAB_31  and  CAA_34 
REMARK   20  A    between atoms: CAR_36  and  CAL_37 
REMARK       I    between atoms: CAL_37  and  NBQ_39 
REMARK   21  A    between atoms: NBQ_39  and  CBR_40 
REMARK   22  A    between atoms: CBR_40  and  CBS_41 
REMARK   23  A    between atoms: CBR_40  and  CAI_42 
ROOT
ATOM      1  CAW MOL d          42.684  -4.299  10.274  0.00  0.00     0.039 C 
ATOM      2  H21 MOL d          43.344  -4.626  11.090  0.00  0.00     0.075 H 
ENDROOT
BRANCH   1   3
ATOM      3  CAX MOL d          43.327  -3.074   9.615  0.00  0.00     0.101 C 
ATOM      4  H19 MOL d          44.215  -3.404   9.055  0.00  0.00     0.079 H 
ATOM      5  H20 MOL d          42.601  -2.628   8.920  0.00  0.00     0.079 H 
BRANCH   3   6
ATOM      6  NBF MOL d          43.740  -2.046  10.584  0.00  0.00    -0.058 N 
ATOM      7  H17 MOL d          43.023  -1.340  10.645  0.00  0.00     0.278 HD
ATOM      8  H18 MOL d          43.868  -2.474  11.488  0.00  0.00     0.278 HD
BRANCH   6   9
ATOM      9  CBG MOL d          45.003  -1.421  10.160  0.00  0.00     0.201 C 
ATOM     10  H11 MOL d          44.975  -1.360   9.062  0.00  0.00     0.103 H 
BRANCH   9  11
ATOM     11  CBP MOL d          46.268  -2.212  10.540  0.00  0.00     0.251 C 
ATOM     12  NBO MOL d          47.387  -1.954   9.620  0.00  0.00    -0.359 N 
ATOM     13  H10 MOL d          47.338  -1.388   8.798  0.00  0.00     0.162 HD
ATOM     14  OBV MOL d          46.485  -2.551  11.706  0.00  0.00    -0.271 OA
BRANCH  12  15
ATOM     15  CBN MOL d          48.592  -2.657  10.095  0.00  0.00    -0.002 C 
ATOM     16  H8  MOL d          49.366  -1.916  10.344  0.00  0.00     0.064 H 
ATOM     17  H9  MOL d          48.339  -3.240  10.993  0.00  0.00     0.064 H 
BRANCH  15  18
ATOM     18  CBL MOL d          49.130  -3.602   9.019  0.00  0.00    -0.046 C 
ATOM     19  H4  MOL d          48.278  -4.121   8.555  0.00  0.00     0.041 H 
BRANCH  18  20
ATOM     20  CBK MOL d          49.861  -2.791   7.949  0.00  0.00    -0.072 C 
ATOM     21  H1  MOL d          49.579  -3.161   6.952  0.00  0.00     0.028 H 
ATOM     22  H2  MOL d          50.947  -2.900   8.086  0.00  0.00     0.028 H 
ATOM     23  H3  MOL d          49.584  -1.731   8.039  0.00  0.00     0.028 H 
ENDBRANCH  18  20
BRANCH  18  24
ATOM     24  CBM MOL d          50.083  -4.653   9.595  0.00  0.00    -0.072 C 
ATOM     25  H5  MOL d          51.122  -4.361   9.383  0.00  0.00     0.028 H 
ATOM     26  H6  MOL d          49.876  -5.629   9.132  0.00  0.00     0.028 H 
ATOM     27  H7  MOL d          49.937  -4.723  10.683  0.00  0.00     0.028 H 
ENDBRANCH  18  24
ENDBRANCH  15  18
ENDBRANCH  12  15
ENDBRANCH   9  11
BRANCH   9  28
ATOM     28  CBH MOL d          45.117   0.008  10.711  0.00  0.00     0.068 C 
ATOM     29  H12 MOL d          45.055   0.682   9.844  0.00  0.00     0.086 H 
BRANCH  28  30
ATOM     30  CBJ MOL d          43.945   0.370  11.625  0.00  0.00    -0.050 C 
ATOM     31  H13 MOL d          43.405   1.232  11.206  0.00  0.00     0.031 H 
ATOM     32  H14 MOL d          44.326   0.628  12.625  0.00  0.00     0.031 H 
ATOM     33  H15 MOL d          43.261  -0.488  11.703  0.00  0.00     0.031 H 
ENDBRANCH  28  30
BRANCH  28  34
ATOM     34  OBI MOL d          46.388   0.254  11.325  0.00  0.00    -0.393 OA
ATOM     35  H16 MOL d          46.567   1.187  11.317  0.00  0.00     0.210 HD
ENDBRANCH  28  34
ENDBRANCH   9  28
ENDBRANCH   6   9
ENDBRANCH   3   6
ENDBRANCH   1   3
BRANCH   1  36
ATOM     36  CAY MOL d          42.559  -5.443   9.262  0.00  0.00    -0.021 C 
ATOM     37  H22 MOL d          43.550  -5.892   9.110  0.00  0.00     0.043 H 
ATOM     38  H23 MOL d          42.191  -5.034   8.309  0.00  0.00     0.043 H 
BRANCH  36  39
ATOM     39  CAZ MOL d          41.678  -6.433   9.694  0.00  0.00    -0.056 A 
ATOM     40  CBA MOL d          41.921  -7.123  10.878  0.00  0.00    -0.077 A 
ATOM     41  CBB MOL d          41.080  -8.155  11.283  0.00  0.00    -0.082 A 
ATOM     42  H24 MOL d          42.773  -6.852  11.491  0.00  0.00     0.084 H 
ATOM     43  CBC MOL d          39.989  -8.515  10.500  0.00  0.00    -0.083 A 
ATOM     44  H25 MOL d          41.277  -8.681  12.211  0.00  0.00     0.083 H 
ATOM     45  CBD MOL d          39.748  -7.830   9.314  0.00  0.00    -0.082 A 
ATOM     46  H26 MOL d          39.333  -9.320  10.811  0.00  0.00     0.083 H 
ATOM     47  CBE MOL d          40.581  -6.790   8.916  0.00  0.00    -0.077 A 
ATOM     48  H27 MOL d          38.904  -8.110   8.693  0.00  0.00     0.083 H 
ATOM     49  H28 MOL d          40.375  -6.255   7.996  0.00  0.00     0.084 H 
ENDBRANCH  36  39
ENDBRANCH   1  36
BRANCH   1  50
ATOM     50  NAV MOL d          41.360  -4.016  10.847  0.00  0.00    -0.350 N 
ATOM     51  CAT MOL d          41.221  -3.773  12.158  0.00  0.00     0.252 C 
ATOM     52  OAU MOL d          42.182  -3.706  12.924  0.00  0.00    -0.268 OA
ATOM     53  H29 MOL d          40.556  -4.006  10.254  0.00  0.00     0.163 HD
BRANCH  51  54
ATOM     54  CAP MOL d          39.912  -3.588  12.595  0.00  0.00     0.034 A 
ATOM     55  CAQ MOL d          38.939  -4.457  12.113  0.00  0.00    -0.052 A 
ATOM     56  CAR MOL d          37.683  -4.509  12.705  0.00  0.00     0.034 A 
ATOM     57  H30 MOL d          39.162  -5.098  11.268  0.00  0.00     0.086 H 
ATOM     58  CAS MOL d          37.398  -3.668  13.777  0.00  0.00    -0.046 A 
ATOM     59  CAN MOL d          38.339  -2.760  14.250  0.00  0.00     0.026 A 
ATOM     60  H38 MOL d          36.424  -3.723  14.252  0.00  0.00     0.087 H 
ATOM     61  CAO MOL d          39.608  -2.758  13.672  0.00  0.00    -0.046 A 
ATOM     62  H31 MOL d          40.372  -2.099  14.068  0.00  0.00     0.087 H 
BRANCH  56  63
ATOM     63  CAL MOL d          36.673  -5.280  12.141  0.00  0.00     0.252 C 
ATOM     64  OAM MOL d          36.022  -6.060  12.833  0.00  0.00    -0.268 OA
ATOM     65  NBQ MOL d          36.576  -5.245  10.804  0.00  0.00    -0.349 N 
ATOM     66  H39 MOL d          37.210  -4.680  10.276  0.00  0.00     0.163 HD
BRANCH  65  67
ATOM     67  CBR MOL d          35.545  -6.027  10.106  0.00  0.00     0.034 C 
ATOM     68  H40 MOL d          34.838  -6.408  10.859  0.00  0.00     0.079 H 
BRANCH  67  69
ATOM     69  CBS MOL d          36.185  -7.224   9.399  0.00  0.00    -0.053 C 
ATOM     70  H41 MOL d          35.455  -8.043   9.329  0.00  0.00     0.030 H 
ATOM     71  H42 MOL d          37.061  -7.562   9.972  0.00  0.00     0.030 H 
ATOM     72  H43 MOL d          36.500  -6.927   8.388  0.00  0.00     0.030 H 
ENDBRANCH  67  69
BRANCH  67  73
ATOM     73  CAI MOL d          34.826  -5.251   9.199  0.00  0.00    -0.036 A 
ATOM     74  CAH MOL d          35.434  -4.840   8.019  0.00  0.00    -0.075 A 
ATOM     75  CAG MOL d          34.696  -4.195   7.028  0.00  0.00    -0.082 A 
ATOM     76  H44 MOL d          36.492  -5.024   7.867  0.00  0.00     0.084 H 
ATOM     77  CAF MOL d          33.339  -3.958   7.216  0.00  0.00    -0.083 A 
ATOM     78  H45 MOL d          35.181  -3.878   6.111  0.00  0.00     0.083 H 
ATOM     79  CAK MOL d          32.728  -4.361   8.400  0.00  0.00    -0.082 A 
ATOM     80  H46 MOL d          32.761  -3.462   6.444  0.00  0.00     0.083 H 
ATOM     81  CAJ MOL d          33.471  -4.996   9.390  0.00  0.00    -0.075 A 
ATOM     82  H47 MOL d          31.669  -4.180   8.550  0.00  0.00     0.083 H 
ATOM     83  H48 MOL d          32.992  -5.294  10.316  0.00  0.00     0.084 H 
ENDBRANCH  67  73
ENDBRANCH  65  67
ENDBRANCH  56  63
BRANCH  59  84
ATOM     84  NAE MOL d          38.093  -2.120  15.396  0.00  0.00    -0.181 NA
BRANCH  84  85
ATOM     85  CBT MOL d          39.235  -1.332  15.883  0.00  0.00    -0.015 C 
ATOM     86  H32 MOL d          39.174  -1.234  16.977  0.00  0.00     0.050 H 
ATOM     87  H33 MOL d          39.213  -0.332  15.424  0.00  0.00     0.050 H 
ATOM     88  H34 MOL d          40.173  -1.839  15.612  0.00  0.00     0.050 H 
ENDBRANCH  84  85
BRANCH  84  89
ATOM     89  SAB MOL d          36.709  -1.236  15.465  0.00  0.00     0.211 S 
ATOM     90  OAC MOL d          36.943   0.054  16.251  0.00  0.00    -0.211 OA
ATOM     91  OAD MOL d          36.210  -0.886  14.061  0.00  0.00    -0.211 OA
BRANCH  89  92
ATOM     92  CAA MOL d          35.457  -2.201  16.287  0.00  0.00     0.029 C 
ATOM     93  H35 MOL d          35.882  -3.169  16.591  0.00  0.00     0.050 H 
ATOM     94  H36 MOL d          34.615  -2.370  15.600  0.00  0.00     0.050 H 
ATOM     95  H37 MOL d          35.102  -1.660  17.176  0.00  0.00     0.050 H 
ENDBRANCH  89  92
ENDBRANCH  84  89
ENDBRANCH  59  84
ENDBRANCH  51  54
ENDBRANCH   1  50
TORSDOF 23
ENDMDL
MODEL 2
REMARK VINA RESULT:      -9.4      1.585      2.112
REMARK  23 active torsions:
REMARK  status: ('A' for Active; 'I' for Inactive)
REMARK    1  A    between atoms: CBK_1  and  CBL_2 
REMARK    2  A    between atoms: CBL_2  and  CBM_3 
REMARK    3  A    between atoms: CBL_2  and  CBN_4 
REMARK    4  A    between atoms: CBN_4  and  NBO_5 
REMARK       I    between atoms: NBO_5  and  CBP_6 
REMARK    5  A    between atoms: CBP_6  and  CBG_8 
REMARK    6  A    between atoms: CBG_8  and  CBH_9 
REMARK    7  A    between atoms: CBG_8  and  NBF_12 
REMARK    8  A    between atoms: CBH_9  and  CBJ_10 
REMARK    9  A    between atoms: CBH_9  and  OBI_11 
REMARK   10  A    between atoms: NBF_12  and  CAX_13 
REMARK   11  A    between atoms: CAX_13  and  CAW_14 
REMARK   12  A    between atoms: CAW_14  and  CAY_15 
REMARK   13  A    between atoms: CAW_14  and  NAV_22 
REMARK   14  A    between atoms: CAY_15  and  CAZ_16 
REMARK       I    between atoms: NAV_22  and  CAT_23 
REMARK   15  A    between atoms: CAT_23  and  CAP_25 
REMARK   16  A    between atoms: CAN_28  and  NAE_29 
REMARK   17  A    between atoms: NAE_29  and  CBT_30 
REMARK   18  A    between atoms: NAE_29  and  SAB_31 
REMARK   19  A    between atoms: SAB_31  and  CAA_34 
REMARK   20  A    between atoms: CAR_36  and  CAL_37 
REMARK       I    between atoms: CAL_37  and  NBQ_39 
REMARK   21  A    between atoms: NBQ_39  and  CBR_40 
REMARK   22  A    between atoms: CBR_40  and  CBS_41 
REMARK   23  A    between atoms: CBR_40  and  CAI_42 
ROOT
ATOM      1  CAW MOL d          42.758  -4.025  10.484  0.00  0.00     0.039 C 
ATOM      2  H21 MOL d          43.368  -4.503  11.265  0.00  0.00     0.075 H 
ENDROOT
BRANCH   1   3
ATOM      3  CAX MOL d          43.454  -2.721  10.081  0.00  0.00     0.101 C 
ATOM      4  H19 MOL d          43.400  -2.619   8.987  0.00  0.00     0.079 H 
ATOM      5  H20 MOL d          42.924  -1.881  10.553  0.00  0.00     0.079 H 
BRANCH   3   6
ATOM      6  NBF MOL d          44.868  -2.670  10.486  0.00  0.00    -0.058 N 
ATOM      7  H17 MOL d          44.974  -3.130  11.377  0.00  0.00     0.278 HD
ATOM      8  H18 MOL d          45.429  -3.142   9.795  0.00  0.00     0.278 HD
BRANCH   6   9
ATOM      9  CBG MOL d          45.316  -1.273  10.605  0.00  0.00     0.201 C 
ATOM     10  H11 MOL d          45.252  -0.832   9.600  0.00  0.00     0.103 H 
BRANCH   9  11
ATOM     11  CBP MOL d          46.769  -1.107  11.085  0.00  0.00     0.251 C 
ATOM     12  NBO MOL d          46.924  -1.405  12.517  0.00  0.00    -0.359 N 
ATOM     13  H10 MOL d          46.176  -1.628  13.143  0.00  0.00     0.162 HD
ATOM     14  OBV MOL d          47.719  -1.252  10.312  0.00  0.00    -0.271 OA
BRANCH  12  15
ATOM     15  CBN MOL d          48.347  -1.328  12.890  0.00  0.00    -0.002 C 
ATOM     16  H8  MOL d          48.756  -2.346  12.965  0.00  0.00     0.064 H 
ATOM     17  H9  MOL d          48.893  -0.769  12.115  0.00  0.00     0.064 H 
BRANCH  15  18
ATOM     18  CBL MOL d          48.519  -0.618  14.234  0.00  0.00    -0.046 C 
ATOM     19  H4  MOL d          47.583  -0.719  14.802  0.00  0.00     0.041 H 
BRANCH  18  20
ATOM     20  CBK MOL d          49.653  -1.279  15.017  0.00  0.00    -0.072 C 
ATOM     21  H1  MOL d          50.265  -0.504  15.501  0.00  0.00     0.028 H 
ATOM     22  H2  MOL d          50.279  -1.867  14.330  0.00  0.00     0.028 H 
ATOM     23  H3  MOL d          49.229  -1.943  15.785  0.00  0.00     0.028 H 
ENDBRANCH  18  20
BRANCH  18  24
ATOM     24  CBM MOL d          48.826   0.873  14.067  0.00  0.00    -0.072 C 
ATOM     25  H5  MOL d          49.240   1.270  15.005  0.00  0.00     0.028 H 
ATOM     26  H6  MOL d          47.900   1.413  13.818  0.00  0.00     0.028 H 
ATOM     27  H7  MOL d          49.558   1.008  13.257  0.00  0.00     0.028 H 
ENDBRANCH  18  24
ENDBRANCH  15  18
ENDBRANCH  12  15
ENDBRANCH   9  11
BRANCH   9  28
ATOM     28  CBH MOL d          44.384  -0.478  11.532  0.00  0.00     0.068 C 
ATOM     29  H12 MOL d          44.666  -0.746  12.561  0.00  0.00     0.086 H 
BRANCH  28  30
ATOM     30  CBJ MOL d          44.594   1.032  11.406  0.00  0.00    -0.050 C 
ATOM     31  H13 MOL d          45.518   1.319  11.928  0.00  0.00     0.031 H 
ATOM     32  H14 MOL d          43.740   1.559  11.856  0.00  0.00     0.031 H 
ATOM     33  H15 MOL d          44.673   1.304  10.343  0.00  0.00     0.031 H 
ENDBRANCH  28  30
BRANCH  28  34
ATOM     34  OBI MOL d          43.011  -0.856  11.376  0.00  0.00    -0.393 OA
ATOM     35  H16 MOL d          42.871  -1.708  11.773  0.00  0.00     0.210 HD
ENDBRANCH  28  34
ENDBRANCH   9  28
ENDBRANCH   6   9
ENDBRANCH   3   6
ENDBRANCH   1   3
BRANCH   1  36
ATOM     36  CAY MOL d          42.671  -4.975   9.285  0.00  0.00    -0.021 C 
ATOM     37  H22 MOL d          43.687  -5.294   9.011  0.00  0.00     0.043 H 
ATOM     38  H23 MOL d          42.215  -4.438   8.440  0.00  0.00     0.043 H 
BRANCH  36  39
ATOM     39  CAZ MOL d          41.906  -6.106   9.564  0.00  0.00    -0.056 A 
ATOM     40  CBA MOL d          40.887  -6.497   8.702  0.00  0.00    -0.077 A 
ATOM     41  CBB MOL d          40.078  -7.588   9.006  0.00  0.00    -0.082 A 
ATOM     42  H24 MOL d          40.721  -5.946   7.783  0.00  0.00     0.084 H 
ATOM     43  CBC MOL d          40.278  -8.297  10.185  0.00  0.00    -0.083 A 
ATOM     44  H25 MOL d          39.291  -7.886   8.322  0.00  0.00     0.083 H 
ATOM     45  CBD MOL d          41.294  -7.905  11.051  0.00  0.00    -0.082 A 
ATOM     46  H26 MOL d          39.649  -9.146  10.427  0.00  0.00     0.083 H 
ATOM     47  CBE MOL d          42.109  -6.822  10.740  0.00  0.00    -0.077 A 
ATOM     48  H27 MOL d          41.450  -8.447  11.977  0.00  0.00     0.083 H 
ATOM     49  H28 MOL d          42.906  -6.534  11.416  0.00  0.00     0.084 H 
ENDBRANCH  36  39
ENDBRANCH   1  36
BRANCH   1  50
ATOM     50  NAV MOL d          41.410  -3.814  11.030  0.00  0.00    -0.350 N 
ATOM     51  CAT MOL d          41.231  -3.567  12.336  0.00  0.00     0.252 C 
ATOM     52  OAU MOL d          42.171  -3.440  13.118  0.00  0.00    -0.268 OA
ATOM     53  H29 MOL d          40.618  -3.855  10.421  0.00  0.00     0.163 HD
BRANCH  51  54
ATOM     54  CAP MOL d          39.905  -3.454  12.745  0.00  0.00     0.034 A 
ATOM     55  CAQ MOL d          38.986  -4.358  12.223  0.00  0.00    -0.052 A 
ATOM     56  CAR MOL d          37.721  -4.482  12.785  0.00  0.00     0.034 A 
ATOM     57  H30 MOL d          39.258  -4.970  11.371  0.00  0.00     0.086 H 
ATOM     58  CAS MOL d          37.372  -3.679  13.867  0.00  0.00    -0.046 A 
ATOM     59  CAN MOL d          38.258  -2.738  14.380  0.00  0.00     0.026 A 
ATOM     60  H38 MOL d          36.392  -3.790  14.318  0.00  0.00     0.087 H 
ATOM     61  CAO MOL d          39.538  -2.663  13.832  0.00  0.00    -0.046 A 
ATOM     62  H31 MOL d          40.261  -1.977  14.258  0.00  0.00     0.087 H 
BRANCH  56  63
ATOM     63  CAL MOL d          36.762  -5.288  12.182  0.00  0.00     0.252 C 
ATOM     64  OAM MOL d          36.075  -6.053  12.857  0.00  0.00    -0.268 OA
ATOM     65  NBQ MOL d          36.756  -5.302  10.841  0.00  0.00    -0.349 N 
ATOM     66  H39 MOL d          37.418  -4.747  10.338  0.00  0.00     0.163 HD
BRANCH  65  67
ATOM     67  CBR MOL d          35.785  -6.124  10.104  0.00  0.00     0.034 C 
ATOM     68  H40 MOL d          35.165  -6.661  10.838  0.00  0.00     0.079 H 
BRANCH  67  69
ATOM     69  CBS MOL d          36.519  -7.159   9.248  0.00  0.00    -0.053 C 
ATOM     70  H41 MOL d          36.966  -6.662   8.374  0.00  0.00     0.030 H 
ATOM     71  H42 MOL d          35.808  -7.926   8.910  0.00  0.00     0.030 H 
ATOM     72  H43 MOL d          37.313  -7.632   9.845  0.00  0.00     0.030 H 
ENDBRANCH  67  69
BRANCH  67  73
ATOM     73  CAI MOL d          34.938  -5.349   9.315  0.00  0.00    -0.036 A 
ATOM     74  CAH MOL d          35.401  -4.848   8.104  0.00  0.00    -0.075 A 
ATOM     75  CAG MOL d          34.533  -4.201   7.226  0.00  0.00    -0.082 A 
ATOM     76  H44 MOL d          36.446  -4.963   7.839  0.00  0.00     0.084 H 
ATOM     77  CAF MOL d          33.192  -4.052   7.559  0.00  0.00    -0.083 A 
ATOM     78  H45 MOL d          34.904  -3.813   6.284  0.00  0.00     0.083 H 
ATOM     79  CAK MOL d          32.725  -4.545   8.774  0.00  0.00    -0.082 A 
ATOM     80  H46 MOL d          32.513  -3.555   6.875  0.00  0.00     0.083 H 
ATOM     81  CAJ MOL d          33.598  -5.182   9.652  0.00  0.00    -0.075 A 
ATOM     82  H47 MOL d          31.680  -4.433   9.038  0.00  0.00     0.083 H 
ATOM     83  H48 MOL d          33.231  -5.551  10.603  0.00  0.00     0.084 H 
ENDBRANCH  67  73
ENDBRANCH  65  67
ENDBRANCH  56  63
BRANCH  59  84
ATOM     84  NAE MOL d          37.957  -2.134  15.533  0.00  0.00    -0.181 NA
BRANCH  84  85
ATOM     85  CBT MOL d          39.089  -1.407  16.126  0.00  0.00    -0.015 C 
ATOM     86  H32 MOL d          39.377  -1.888  17.073  0.00  0.00     0.050 H 
ATOM     87  H33 MOL d          38.794  -0.365  16.320  0.00  0.00     0.050 H 
ATOM     88  H34 MOL d          39.941  -1.425  15.431  0.00  0.00     0.050 H 
ENDBRANCH  84  85
BRANCH  84  89
ATOM     89  SAB MOL d          36.601  -1.204  15.545  0.00  0.00     0.211 S 
ATOM     90  OAC MOL d          36.812   0.028  16.425  0.00  0.00    -0.211 OA
ATOM     91  OAD MOL d          36.229  -0.754  14.130  0.00  0.00    -0.211 OA
BRANCH  89  92
ATOM     92  CAA MOL d          35.256  -2.168  16.206  0.00  0.00     0.029 C 
ATOM     93  H35 MOL d          35.511  -3.236  16.156  0.00  0.00     0.050 H 
ATOM     94  H36 MOL d          34.346  -1.980  15.616  0.00  0.00     0.050 H 
ATOM     95  H37 MOL d          35.079  -1.881  17.253  0.00  0.00     0.050 H 
ENDBRANCH  89  92
ENDBRANCH  84  89
ENDBRANCH  59  84
ENDBRANCH  51  54
ENDBRANCH   1  50
TORSDOF 23
ENDMDL
