MODEL 1
REMARK VINA RESULT:      -5.7      0.000      0.000
REMARK  3 active torsions:
REMARK  status: ('A' for Active; 'I' for Inactive)
REMARK    1  A    between atoms: C1_3  and  C_1 
REMARK    2  A    between atoms: C7_10  and  N1_4 
REMARK    3  A    between atoms: C4_7  and  C7_10 
ROOT
ATOM      1  C1  MOL d         -28.326  87.236 -10.870  0.00  0.00     0.040 A 
ATOM      2  C2  MOL d         -29.226  87.318  -9.749  0.00  0.00    -0.066 A 
ATOM      3  C3  MOL d         -30.441  88.015  -9.866  0.00  0.00    -0.074 A 
ATOM      4  C4  MOL d         -30.782  88.637 -11.085  0.00  0.00    -0.033 A 
ATOM      5  C5  MOL d         -29.904  88.559 -12.186  0.00  0.00    -0.074 A 
ATOM      6  C6  MOL d         -28.689  87.865 -12.083  0.00  0.00    -0.066 A 
ATOM      7  H4  MOL d         -28.966  86.840  -8.812  0.00  0.00     0.085 H 
ATOM      8  H5  MOL d         -31.115  88.075  -9.019  0.00  0.00     0.084 H 
ATOM      9  H6  MOL d         -30.171  89.038 -13.121  0.00  0.00     0.084 H 
ATOM     10  H7  MOL d         -28.024  87.812 -12.938  0.00  0.00     0.085 H 
ENDROOT
BRANCH   4  11
ATOM     11  C7  MOL d         -32.090  89.384 -11.211  0.00  0.00     0.103 C 
ATOM     12  H8  MOL d         -32.871  88.690 -11.556  0.00  0.00     0.082 H 
ATOM     13  H9  MOL d         -32.370  89.791 -10.228  0.00  0.00     0.082 H 
BRANCH  11  14
ATOM     14  N1  MOL d         -31.965  90.492 -12.178  0.00  0.00    -0.075 N 
ATOM     15  H1  MOL d         -31.284  90.250 -12.880  0.00  0.00     0.274 HD
ATOM     16  H2  MOL d         -31.670  91.327 -11.696  0.00  0.00     0.274 HD
ATOM     17  H3  MOL d         -32.857  90.656 -12.618  0.00  0.00     0.274 HD
ENDBRANCH  11  14
ENDBRANCH   4  11
BRANCH   1  18
ATOM     18  C   MOL d         -27.186  86.569 -10.725  0.00  0.00     0.209 C 
ATOM     19  O   MOL d         -26.857  85.618 -11.362  0.00  0.00    -0.644 OA
ATOM     20  OXT MOL d         -26.206  86.703  -9.929  0.00  0.00    -0.644 OA
ENDBRANCH   1  18
TORSDOF 3
ENDMDL
MODEL 2
REMARK VINA RESULT:      -5.7      0.197      1.487
REMARK  3 active torsions:
REMARK  status: ('A' for Active; 'I' for Inactive)
REMARK    1  A    between atoms: C1_3  and  C_1 
REMARK    2  A    between atoms: C7_10  and  N1_4 
REMARK    3  A    between atoms: C4_7  and  C7_10 
ROOT
ATOM      1  C1  MOL d         -28.269  87.283 -10.926  0.00  0.00     0.040 A 
ATOM      2  C2  MOL d         -28.683  87.837 -12.188  0.00  0.00    -0.066 A 
ATOM      3  C3  MOL d         -29.893  88.546 -12.288  0.00  0.00    -0.074 A 
ATOM      4  C4  MOL d         -30.706  88.718 -11.148  0.00  0.00    -0.033 A 
ATOM      5  C5  MOL d         -30.303  88.179  -9.908  0.00  0.00    -0.074 A 
ATOM      6  C6  MOL d         -29.098  87.469  -9.795  0.00  0.00    -0.066 A 
ATOM      7  H4  MOL d         -28.060  87.707 -13.066  0.00  0.00     0.085 H 
ATOM      8  H5  MOL d         -30.202  88.960 -13.241  0.00  0.00     0.084 H 
ATOM      9  H6  MOL d         -30.931  88.313  -9.035  0.00  0.00     0.084 H 
ATOM     10  H7  MOL d         -28.801  87.061  -8.836  0.00  0.00     0.085 H 
ENDROOT
BRANCH   4  11
ATOM     11  C7  MOL d         -32.004  89.484 -11.254  0.00  0.00     0.103 C 
ATOM     12  H8  MOL d         -32.823  88.779 -11.463  0.00  0.00     0.082 H 
ATOM     13  H9  MOL d         -32.198  90.000 -10.303  0.00  0.00     0.082 H 
BRANCH  11  14
ATOM     14  N1  MOL d         -31.933  90.480 -12.341  0.00  0.00    -0.075 N 
ATOM     15  H1  MOL d         -31.982  91.408 -11.950  0.00  0.00     0.274 HD
ATOM     16  H2  MOL d         -32.703  90.340 -12.976  0.00  0.00     0.274 HD
ATOM     17  H3  MOL d         -31.063  90.371 -12.839  0.00  0.00     0.274 HD
ENDBRANCH  11  14
ENDBRANCH   4  11
BRANCH   1  18
ATOM     18  C   MOL d         -27.120  86.620 -10.867  0.00  0.00     0.209 C 
ATOM     19  O   MOL d         -26.713  85.867 -11.695  0.00  0.00    -0.644 OA
ATOM     20  OXT MOL d         -26.204  86.563  -9.989  0.00  0.00    -0.644 OA
ENDBRANCH   1  18
TORSDOF 3
ENDMDL
MODEL 3
REMARK VINA RESULT:      -5.1      3.715      4.687
REMARK  3 active torsions:
REMARK  status: ('A' for Active; 'I' for Inactive)
REMARK    1  A    between atoms: C1_3  and  C_1 
REMARK    2  A    between atoms: C7_10  and  N1_4 
REMARK    3  A    between atoms: C4_7  and  C7_10 
ROOT
ATOM      1  C1  MOL d         -30.389  88.364 -11.201  0.00  0.00     0.040 A 
ATOM      2  C2  MOL d         -29.911  87.528 -10.130  0.00  0.00    -0.066 A 
ATOM      3  C3  MOL d         -28.756  86.745 -10.303  0.00  0.00    -0.074 A 
ATOM      4  C4  MOL d         -28.060  86.779 -11.530  0.00  0.00    -0.033 A 
ATOM      5  C5  MOL d         -28.523  87.598 -12.581  0.00  0.00    -0.074 A 
ATOM      6  C6  MOL d         -29.674  88.383 -12.420  0.00  0.00    -0.066 A 
ATOM      7  H4  MOL d         -30.444  87.501  -9.187  0.00  0.00     0.085 H 
ATOM      8  H5  MOL d         -28.401  86.116  -9.495  0.00  0.00     0.084 H 
ATOM      9  H6  MOL d         -27.984  87.620 -13.522  0.00  0.00     0.084 H 
ATOM     10  H7  MOL d         -30.018  89.009 -13.237  0.00  0.00     0.085 H 
ENDROOT
BRANCH   4  11
ATOM     11  C7  MOL d         -26.816  85.941 -11.715  0.00  0.00     0.103 C 
ATOM     12  H8  MOL d         -27.083  85.004 -12.226  0.00  0.00     0.082 H 
ATOM     13  H9  MOL d         -26.092  86.499 -12.327  0.00  0.00     0.082 H 
BRANCH  11  14
ATOM     14  N1  MOL d         -26.204  85.624 -10.410  0.00  0.00    -0.075 N 
ATOM     15  H1  MOL d         -25.931  86.479  -9.950  0.00  0.00     0.274 HD
ATOM     16  H2  MOL d         -25.392  85.044 -10.551  0.00  0.00     0.274 HD
ATOM     17  H3  MOL d         -26.872  85.133  -9.836  0.00  0.00     0.274 HD
ENDBRANCH  11  14
ENDBRANCH   4  11
BRANCH   1  18
ATOM     18  C   MOL d         -31.483  89.090 -11.003  0.00  0.00     0.209 C 
ATOM     19  O   MOL d         -32.119  89.122  -9.996  0.00  0.00    -0.644 OA
ATOM     20  OXT MOL d         -32.142  89.874 -11.754  0.00  0.00    -0.644 OA
ENDBRANCH   1  18
TORSDOF 3
ENDMDL
MODEL 4
REMARK VINA RESULT:      -4.8      3.616      4.833
REMARK  3 active torsions:
REMARK  status: ('A' for Active; 'I' for Inactive)
REMARK    1  A    between atoms: C1_3  and  C_1 
REMARK    2  A    between atoms: C7_10  and  N1_4 
REMARK    3  A    between atoms: C4_7  and  C7_10 
ROOT
ATOM      1  C1  MOL d         -30.261  88.315 -11.223  0.00  0.00     0.040 A 
ATOM      2  C2  MOL d         -29.905  87.911 -12.558  0.00  0.00    -0.066 A 
ATOM      3  C3  MOL d         -28.737  87.162 -12.784  0.00  0.00    -0.074 A 
ATOM      4  C4  MOL d         -27.909  86.803 -11.700  0.00  0.00    -0.033 A 
ATOM      5  C5  MOL d         -28.255  87.195 -10.390  0.00  0.00    -0.074 A 
ATOM      6  C6  MOL d         -29.418  87.942 -10.151  0.00  0.00    -0.066 A 
ATOM      7  H4  MOL d         -30.540  88.186 -13.393  0.00  0.00     0.085 H 
ATOM      8  H5  MOL d         -28.472  86.861 -13.791  0.00  0.00     0.084 H 
ATOM      9  H6  MOL d         -27.615  86.916  -9.560  0.00  0.00     0.084 H 
ATOM     10  H7  MOL d         -29.671  88.236  -9.138  0.00  0.00     0.085 H 
ENDROOT
BRANCH   4  11
ATOM     11  C7  MOL d         -26.656  85.994 -11.942  0.00  0.00     0.103 C 
ATOM     12  H8  MOL d         -25.789  86.542 -11.544  0.00  0.00     0.082 H 
ATOM     13  H9  MOL d         -26.745  85.025 -11.428  0.00  0.00     0.082 H 
BRANCH  11  14
ATOM     14  N1  MOL d         -26.459  85.761 -13.387  0.00  0.00    -0.075 N 
ATOM     15  H1  MOL d         -26.228  84.792 -13.542  0.00  0.00     0.274 HD
ATOM     16  H2  MOL d         -25.709  86.344 -13.722  0.00  0.00     0.274 HD
ATOM     17  H3  MOL d         -27.308  85.987 -13.882  0.00  0.00     0.274 HD
ENDBRANCH  11  14
ENDBRANCH   4  11
BRANCH   1  18
ATOM     18  C   MOL d         -31.371  89.022 -11.045  0.00  0.00     0.209 C 
ATOM     19  O   MOL d         -31.946  89.158 -10.011  0.00  0.00    -0.644 OA
ATOM     20  OXT MOL d         -32.108  89.681 -11.842  0.00  0.00    -0.644 OA
ENDBRANCH   1  18
TORSDOF 3
ENDMDL
MODEL 5
REMARK VINA RESULT:      -4.2      2.034      2.742
REMARK  3 active torsions:
REMARK  status: ('A' for Active; 'I' for Inactive)
REMARK    1  A    between atoms: C1_3  and  C_1 
REMARK    2  A    between atoms: C7_10  and  N1_4 
REMARK    3  A    between atoms: C4_7  and  C7_10 
ROOT
ATOM      1  C1  MOL d         -28.828  87.465 -11.951  0.00  0.00     0.040 A 
ATOM      2  C2  MOL d         -29.934  88.387 -11.941  0.00  0.00    -0.066 A 
ATOM      3  C3  MOL d         -30.746  88.505 -10.799  0.00  0.00    -0.074 A 
ATOM      4  C4  MOL d         -30.477  87.720  -9.658  0.00  0.00    -0.033 A 
ATOM      5  C5  MOL d         -29.393  86.817  -9.664  0.00  0.00    -0.074 A 
ATOM      6  C6  MOL d         -28.575  86.690 -10.796  0.00  0.00    -0.066 A 
ATOM      7  H4  MOL d         -30.141  88.992 -12.816  0.00  0.00     0.085 H 
ATOM      8  H5  MOL d         -31.579  89.199 -10.796  0.00  0.00     0.084 H 
ATOM      9  H6  MOL d         -29.191  86.216  -8.785  0.00  0.00     0.084 H 
ATOM     10  H7  MOL d         -27.745  85.993 -10.786  0.00  0.00     0.085 H 
ENDROOT
BRANCH   4  11
ATOM     11  C7  MOL d         -31.348  87.851  -8.430  0.00  0.00     0.103 C 
ATOM     12  H8  MOL d         -31.664  86.849  -8.102  0.00  0.00     0.082 H 
ATOM     13  H9  MOL d         -30.770  88.334  -7.627  0.00  0.00     0.082 H 
BRANCH  11  14
ATOM     14  N1  MOL d         -32.543  88.664  -8.724  0.00  0.00    -0.075 N 
ATOM     15  H1  MOL d         -32.456  89.564  -8.278  0.00  0.00     0.274 HD
ATOM     16  H2  MOL d         -33.364  88.194  -8.376  0.00  0.00     0.274 HD
ATOM     17  H3  MOL d         -32.626  88.790  -9.721  0.00  0.00     0.274 HD
ENDBRANCH  11  14
ENDBRANCH   4  11
BRANCH   1  18
ATOM     18  C   MOL d         -28.080  87.379 -13.046  0.00  0.00     0.209 C 
ATOM     19  O   MOL d         -27.894  86.387 -13.680  0.00  0.00    -0.644 OA
ATOM     20  OXT MOL d         -27.381  88.229 -13.679  0.00  0.00    -0.644 OA
ENDBRANCH   1  18
TORSDOF 3
ENDMDL
