MODEL 1
REMARK VINA RESULT:      -4.8      0.000      0.000
REMARK  5 active torsions:
REMARK  status: ('A' for Active; 'I' for Inactive)
REMARK    1  A    between atoms: C11_2  and  O1_3 
REMARK    2  A    between atoms: C11_2  and  C13_14 
REMARK    3  A    between atoms: O1_3  and  C2_4 
REMARK    4  A    between atoms: C7_5  and  C1_6 
REMARK    5  A    between atoms: C3_10  and  C8_11 
ROOT
ATOM      1  C2  M3S d          35.715  40.288  -2.855  0.00  0.00     0.102 A 
ATOM      2  C7  M3S d          35.899  40.690  -1.519  0.00  0.00    -0.027 A 
ATOM      3  C6  M3S d          36.357  39.755  -0.588  0.00  0.00    -0.074 A 
ATOM      4  C5  M3S d          36.635  38.441  -0.982  0.00  0.00    -0.081 A 
ATOM      5  C4  M3S d          36.452  38.042  -2.318  0.00  0.00    -0.064 A 
ATOM      6  C3  M3S d          35.988  38.982  -3.245  0.00  0.00     0.075 A 
ATOM      7  H4  M3S d          36.499  40.049   0.445  0.00  0.00     0.084 H 
ATOM      8  H5  M3S d          36.994  37.725  -0.252  0.00  0.00     0.083 H 
ATOM      9  H6  M3S d          36.666  37.025  -2.624  0.00  0.00     0.085 H 
ENDROOT
BRANCH   1  10
ATOM     10  O1  M3S d          35.258  41.259  -3.722  0.00  0.00    -0.278 OA
BRANCH  10  11
ATOM     11  C11 M3S d          36.112  41.756  -4.636  0.00  0.00     0.260 C 
ATOM     12  O12 M3S d          35.664  41.955  -5.762  0.00  0.00    -0.265 OA
BRANCH  11  13
ATOM     13  C13 M3S d          37.500  42.072  -4.166  0.00  0.00     0.004 C 
ATOM     14  H7  M3S d          37.811  41.329  -3.416  0.00  0.00     0.041 H 
ATOM     15  H8  M3S d          37.516  43.075  -3.717  0.00  0.00     0.041 H 
ATOM     16  H9  M3S d          38.193  42.042  -5.020  0.00  0.00     0.041 H 
ENDBRANCH  11  13
ENDBRANCH  10  11
ENDBRANCH   1  10
BRANCH   2  17
ATOM     17  C1  M3S d          35.590  42.135  -1.131  0.00  0.00    -0.049 C 
ATOM     18  H1  M3S d          34.520  42.230  -0.892  0.00  0.00     0.033 H 
ATOM     19  H2  M3S d          35.838  42.802  -1.970  0.00  0.00     0.033 H 
ATOM     20  H3  M3S d          36.188  42.415  -0.251  0.00  0.00     0.033 H 
ENDBRANCH   2  17
BRANCH   6  21
ATOM     21  C8  M3S d          35.796  38.499  -4.738  0.00  0.00     0.212 C 
ATOM     22  O10 M3S d          34.557  38.438  -5.159  0.00  0.00    -0.644 OA
ATOM     23  O9  M3S d          36.902  38.273  -5.369  0.00  0.00    -0.644 OA
ENDBRANCH   6  21
TORSDOF 5
ENDMDL
MODEL 2
REMARK VINA RESULT:      -4.7      2.002      4.636
REMARK  5 active torsions:
REMARK  status: ('A' for Active; 'I' for Inactive)
REMARK    1  A    between atoms: C11_2  and  O1_3 
REMARK    2  A    between atoms: C11_2  and  C13_14 
REMARK    3  A    between atoms: O1_3  and  C2_4 
REMARK    4  A    between atoms: C7_5  and  C1_6 
REMARK    5  A    between atoms: C3_10  and  C8_11 
ROOT
ATOM      1  C2  M3S d          36.414  40.076  -4.054  0.00  0.00     0.102 A 
ATOM      2  C7  M3S d          36.031  39.252  -5.129  0.00  0.00    -0.027 A 
ATOM      3  C6  M3S d          35.285  39.804  -6.173  0.00  0.00    -0.074 A 
ATOM      4  C5  M3S d          34.930  41.158  -6.150  0.00  0.00    -0.081 A 
ATOM      5  C4  M3S d          35.315  41.980  -5.076  0.00  0.00    -0.064 A 
ATOM      6  C3  M3S d          36.058  41.420  -4.031  0.00  0.00     0.075 A 
ATOM      7  H4  M3S d          34.979  39.181  -7.004  0.00  0.00     0.084 H 
ATOM      8  H5  M3S d          34.355  41.577  -6.968  0.00  0.00     0.083 H 
ATOM      9  H6  M3S d          35.041  43.028  -5.057  0.00  0.00     0.085 H 
ENDROOT
BRANCH   1  10
ATOM     10  O1  M3S d          37.146  39.468  -3.056  0.00  0.00    -0.278 OA
BRANCH  10  11
ATOM     11  C11 M3S d          36.483  38.816  -2.081  0.00  0.00     0.260 C 
ATOM     12  O12 M3S d          35.323  39.161  -1.876  0.00  0.00    -0.265 OA
BRANCH  11  13
ATOM     13  C13 M3S d          37.212  37.699  -1.396  0.00  0.00     0.004 C 
ATOM     14  H7  M3S d          37.134  37.825  -0.306  0.00  0.00     0.041 H 
ATOM     15  H8  M3S d          38.270  37.715  -1.692  0.00  0.00     0.041 H 
ATOM     16  H9  M3S d          36.764  36.737  -1.686  0.00  0.00     0.041 H 
ENDBRANCH  11  13
ENDBRANCH  10  11
ENDBRANCH   1  10
BRANCH   2  17
ATOM     17  C1  M3S d          36.443  37.780  -5.118  0.00  0.00    -0.049 C 
ATOM     18  H1  M3S d          35.682  37.190  -4.584  0.00  0.00     0.033 H 
ATOM     19  H2  M3S d          37.413  37.674  -4.609  0.00  0.00     0.033 H 
ATOM     20  H3  M3S d          36.530  37.416  -6.152  0.00  0.00     0.033 H 
ENDBRANCH   2  17
BRANCH   6  21
ATOM     21  C8  M3S d          36.476  42.373  -2.841  0.00  0.00     0.212 C 
ATOM     22  O10 M3S d          35.711  42.322  -1.779  0.00  0.00    -0.644 OA
ATOM     23  O9  M3S d          37.557  43.049  -3.057  0.00  0.00    -0.644 OA
ENDBRANCH   6  21
TORSDOF 5
ENDMDL
MODEL 3
REMARK VINA RESULT:      -4.5      1.844      3.444
REMARK  5 active torsions:
REMARK  status: ('A' for Active; 'I' for Inactive)
REMARK    1  A    between atoms: C11_2  and  O1_3 
REMARK    2  A    between atoms: C11_2  and  C13_14 
REMARK    3  A    between atoms: O1_3  and  C2_4 
REMARK    4  A    between atoms: C7_5  and  C1_6 
REMARK    5  A    between atoms: C3_10  and  C8_11 
ROOT
ATOM      1  C2  M3S d          36.512  40.136  -2.936  0.00  0.00     0.102 A 
ATOM      2  C7  M3S d          36.407  38.801  -2.504  0.00  0.00    -0.027 A 
ATOM      3  C6  M3S d          36.081  37.811  -3.434  0.00  0.00    -0.074 A 
ATOM      4  C5  M3S d          35.868  38.144  -4.776  0.00  0.00    -0.081 A 
ATOM      5  C4  M3S d          35.974  39.479  -5.207  0.00  0.00    -0.064 A 
ATOM      6  C3  M3S d          36.297  40.466  -4.270  0.00  0.00     0.075 A 
ATOM      7  H4  M3S d          35.992  36.780  -3.114  0.00  0.00     0.084 H 
ATOM      8  H5  M3S d          35.619  37.367  -5.490  0.00  0.00     0.083 H 
ATOM      9  H6  M3S d          35.809  39.737  -6.246  0.00  0.00     0.085 H 
ENDROOT
BRANCH   1  10
ATOM     10  O1  M3S d          36.834  41.063  -1.968  0.00  0.00    -0.278 OA
BRANCH  10  11
ATOM     11  C11 M3S d          35.874  41.907  -1.544  0.00  0.00     0.260 C 
ATOM     12  O12 M3S d          34.776  41.417  -1.298  0.00  0.00    -0.265 OA
BRANCH  11  13
ATOM     13  C13 M3S d          36.267  43.342  -1.358  0.00  0.00     0.004 C 
ATOM     14  H7  M3S d          35.744  43.754  -0.482  0.00  0.00     0.041 H 
ATOM     15  H8  M3S d          35.992  43.917  -2.253  0.00  0.00     0.041 H 
ATOM     16  H9  M3S d          37.354  43.407  -1.200  0.00  0.00     0.041 H 
ENDBRANCH  11  13
ENDBRANCH  10  11
ENDBRANCH   1  10
BRANCH   2  17
ATOM     17  C1  M3S d          36.653  38.478  -1.030  0.00  0.00    -0.049 C 
ATOM     18  H1  M3S d          36.032  39.135  -0.402  0.00  0.00     0.033 H 
ATOM     19  H2  M3S d          37.715  38.639  -0.791  0.00  0.00     0.033 H 
ATOM     20  H3  M3S d          36.389  37.428  -0.835  0.00  0.00     0.033 H 
ENDBRANCH   2  17
BRANCH   6  21
ATOM     21  C8  M3S d          36.410  41.955  -4.790  0.00  0.00     0.212 C 
ATOM     22  O10 M3S d          37.557  42.547  -4.565  0.00  0.00    -0.644 OA
ATOM     23  O9  M3S d          35.363  42.379  -5.418  0.00  0.00    -0.644 OA
ENDBRANCH   6  21
TORSDOF 5
ENDMDL
MODEL 4
REMARK VINA RESULT:      -4.5      1.428      2.196
REMARK  5 active torsions:
REMARK  status: ('A' for Active; 'I' for Inactive)
REMARK    1  A    between atoms: C11_2  and  O1_3 
REMARK    2  A    between atoms: C11_2  and  C13_14 
REMARK    3  A    between atoms: O1_3  and  C2_4 
REMARK    4  A    between atoms: C7_5  and  C1_6 
REMARK    5  A    between atoms: C3_10  and  C8_11 
ROOT
ATOM      1  C2  M3S d          35.854  40.872  -2.453  0.00  0.00     0.102 A 
ATOM      2  C7  M3S d          36.114  40.333  -1.180  0.00  0.00    -0.027 A 
ATOM      3  C6  M3S d          36.404  38.971  -1.067  0.00  0.00    -0.074 A 
ATOM      4  C5  M3S d          36.441  38.159  -2.206  0.00  0.00    -0.081 A 
ATOM      5  C4  M3S d          36.182  38.700  -3.479  0.00  0.00    -0.064 A 
ATOM      6  C3  M3S d          35.888  40.064  -3.584  0.00  0.00     0.075 A 
ATOM      7  H4  M3S d          36.602  38.541  -0.093  0.00  0.00     0.084 H 
ATOM      8  H5  M3S d          36.671  37.104  -2.108  0.00  0.00     0.083 H 
ATOM      9  H6  M3S d          36.210  38.072  -4.361  0.00  0.00     0.085 H 
ENDROOT
BRANCH   1  10
ATOM     10  O1  M3S d          35.572  42.221  -2.493  0.00  0.00    -0.278 OA
BRANCH  10  11
ATOM     11  C11 M3S d          36.593  43.093  -2.396  0.00  0.00     0.260 C 
ATOM     12  O12 M3S d          37.557  42.900  -3.132  0.00  0.00    -0.265 OA
BRANCH  11  13
ATOM     13  C13 M3S d          36.418  44.240  -1.446  0.00  0.00     0.004 C 
ATOM     14  H7  M3S d          36.916  45.132  -1.853  0.00  0.00     0.041 H 
ATOM     15  H8  M3S d          36.863  43.983  -0.474  0.00  0.00     0.041 H 
ATOM     16  H9  M3S d          35.345  44.446  -1.315  0.00  0.00     0.041 H 
ENDBRANCH  11  13
ENDBRANCH  10  11
ENDBRANCH   1  10
BRANCH   2  17
ATOM     17  C1  M3S d          36.069  41.254   0.039  0.00  0.00    -0.049 C 
ATOM     18  H1  M3S d          36.465  42.244  -0.235  0.00  0.00     0.033 H 
ATOM     19  H2  M3S d          36.682  40.825   0.846  0.00  0.00     0.033 H 
ATOM     20  H3  M3S d          35.030  41.356   0.384  0.00  0.00     0.033 H 
ENDBRANCH   2  17
BRANCH   6  21
ATOM     21  C8  M3S d          35.605  40.639  -5.029  0.00  0.00     0.212 C 
ATOM     22  O10 M3S d          35.997  41.871  -5.236  0.00  0.00    -0.644 OA
ATOM     23  O9  M3S d          35.061  39.791  -5.840  0.00  0.00    -0.644 OA
ENDBRANCH   6  21
TORSDOF 5
ENDMDL
MODEL 5
REMARK VINA RESULT:      -4.4      1.330      3.394
REMARK  5 active torsions:
REMARK  status: ('A' for Active; 'I' for Inactive)
REMARK    1  A    between atoms: C11_2  and  O1_3 
REMARK    2  A    between atoms: C11_2  and  C13_14 
REMARK    3  A    between atoms: O1_3  and  C2_4 
REMARK    4  A    between atoms: C7_5  and  C1_6 
REMARK    5  A    between atoms: C3_10  and  C8_11 
ROOT
ATOM      1  C2  M3S d          35.844  40.510  -2.709  0.00  0.00     0.102 A 
ATOM      2  C7  M3S d          36.018  40.333  -1.324  0.00  0.00    -0.027 A 
ATOM      3  C6  M3S d          36.371  41.434  -0.540  0.00  0.00    -0.074 A 
ATOM      4  C5  M3S d          36.543  42.694  -1.126  0.00  0.00    -0.081 A 
ATOM      5  C4  M3S d          36.368  42.868  -2.510  0.00  0.00    -0.064 A 
ATOM      6  C3  M3S d          36.018  41.761  -3.290  0.00  0.00     0.075 A 
ATOM      7  H4  M3S d          36.513  41.312   0.527  0.00  0.00     0.084 H 
ATOM      8  H5  M3S d          36.814  43.542  -0.508  0.00  0.00     0.083 H 
ATOM      9  H6  M3S d          36.501  43.843  -2.965  0.00  0.00     0.085 H 
ENDROOT
BRANCH   1  10
ATOM     10  O1  M3S d          35.498  39.383  -3.425  0.00  0.00    -0.278 OA
BRANCH  10  11
ATOM     11  C11 M3S d          36.406  38.855  -4.268  0.00  0.00     0.260 C 
ATOM     12  O12 M3S d          37.556  38.758  -3.851  0.00  0.00    -0.265 OA
BRANCH  11  13
ATOM     13  C13 M3S d          35.902  38.385  -5.599  0.00  0.00     0.004 C 
ATOM     14  H7  M3S d          36.479  37.505  -5.920  0.00  0.00     0.041 H 
ATOM     15  H8  M3S d          36.018  39.189  -6.340  0.00  0.00     0.041 H 
ATOM     16  H9  M3S d          34.839  38.115  -5.514  0.00  0.00     0.041 H 
ENDBRANCH  11  13
ENDBRANCH  10  11
ENDBRANCH   1  10
BRANCH   2  17
ATOM     17  C1  M3S d          35.815  38.943  -0.723  0.00  0.00    -0.049 C 
ATOM     18  H1  M3S d          35.673  38.211  -1.532  0.00  0.00     0.033 H 
ATOM     19  H2  M3S d          34.926  38.950  -0.074  0.00  0.00     0.033 H 
ATOM     20  H3  M3S d          36.699  38.667  -0.129  0.00  0.00     0.033 H 
ENDBRANCH   2  17
BRANCH   6  21
ATOM     21  C8  M3S d          35.826  41.994  -4.842  0.00  0.00     0.212 C 
ATOM     22  O10 M3S d          36.928  42.176  -5.528  0.00  0.00    -0.644 OA
ATOM     23  O9  M3S d          34.599  41.926  -5.242  0.00  0.00    -0.644 OA
ENDBRANCH   6  21
TORSDOF 5
ENDMDL
MODEL 6
REMARK VINA RESULT:      -4.3      1.584      3.434
REMARK  5 active torsions:
REMARK  status: ('A' for Active; 'I' for Inactive)
REMARK    1  A    between atoms: C11_2  and  O1_3 
REMARK    2  A    between atoms: C11_2  and  C13_14 
REMARK    3  A    between atoms: O1_3  and  C2_4 
REMARK    4  A    between atoms: C7_5  and  C1_6 
REMARK    5  A    between atoms: C3_10  and  C8_11 
ROOT
ATOM      1  C2  M3S d          36.616  40.271  -3.331  0.00  0.00     0.102 A 
ATOM      2  C7  M3S d          36.548  38.867  -3.270  0.00  0.00    -0.027 A 
ATOM      3  C6  M3S d          36.366  38.251  -2.030  0.00  0.00    -0.074 A 
ATOM      4  C5  M3S d          36.246  39.021  -0.868  0.00  0.00    -0.081 A 
ATOM      5  C4  M3S d          36.313  40.425  -0.931  0.00  0.00    -0.064 A 
ATOM      6  C3  M3S d          36.500  41.035  -2.176  0.00  0.00     0.075 A 
ATOM      7  H4  M3S d          36.317  37.170  -1.967  0.00  0.00     0.084 H 
ATOM      8  H5  M3S d          36.101  38.533   0.089  0.00  0.00     0.083 H 
ATOM      9  H6  M3S d          36.221  41.022  -0.032  0.00  0.00     0.085 H 
ENDROOT
BRANCH   1  10
ATOM     10  O1  M3S d          36.800  40.815  -4.585  0.00  0.00    -0.278 OA
BRANCH  10  11
ATOM     11  C11 M3S d          35.714  41.196  -5.284  0.00  0.00     0.260 C 
ATOM     12  O12 M3S d          35.389  42.377  -5.200  0.00  0.00    -0.265 OA
BRANCH  11  13
ATOM     13  C13 M3S d          35.057  40.154  -6.138  0.00  0.00     0.004 C 
ATOM     14  H7  M3S d          35.635  39.220  -6.086  0.00  0.00     0.041 H 
ATOM     15  H8  M3S d          35.019  40.504  -7.180  0.00  0.00     0.041 H 
ATOM     16  H9  M3S d          34.035  39.973  -5.775  0.00  0.00     0.041 H 
ENDBRANCH  11  13
ENDBRANCH  10  11
ENDBRANCH   1  10
BRANCH   2  17
ATOM     17  C1  M3S d          36.678  38.062  -4.563  0.00  0.00    -0.049 C 
ATOM     18  H1  M3S d          37.385  38.566  -5.240  0.00  0.00     0.033 H 
ATOM     19  H2  M3S d          35.694  37.988  -5.049  0.00  0.00     0.033 H 
ATOM     20  H3  M3S d          37.049  37.052  -4.331  0.00  0.00     0.033 H 
ENDBRANCH   2  17
BRANCH   6  21
ATOM     21  C8  M3S d          36.567  42.615  -2.209  0.00  0.00     0.212 C 
ATOM     22  O10 M3S d          35.652  43.236  -1.507  0.00  0.00    -0.644 OA
ATOM     23  O9  M3S d          37.556  43.089  -2.894  0.00  0.00    -0.644 OA
ENDBRANCH   6  21
TORSDOF 5
ENDMDL
MODEL 7
REMARK VINA RESULT:      -4.2      1.905      3.477
REMARK  5 active torsions:
REMARK  status: ('A' for Active; 'I' for Inactive)
REMARK    1  A    between atoms: C11_2  and  O1_3 
REMARK    2  A    between atoms: C11_2  and  C13_14 
REMARK    3  A    between atoms: O1_3  and  C2_4 
REMARK    4  A    between atoms: C7_5  and  C1_6 
REMARK    5  A    between atoms: C3_10  and  C8_11 
ROOT
ATOM      1  C2  M3S d          35.639  40.476  -4.130  0.00  0.00     0.102 A 
ATOM      2  C7  M3S d          35.284  40.617  -5.484  0.00  0.00    -0.027 A 
ATOM      3  C6  M3S d          35.322  39.494  -6.315  0.00  0.00    -0.074 A 
ATOM      4  C5  M3S d          35.702  38.248  -5.803  0.00  0.00    -0.081 A 
ATOM      5  C4  M3S d          36.055  38.110  -4.449  0.00  0.00    -0.064 A 
ATOM      6  C3  M3S d          36.019  39.238  -3.624  0.00  0.00     0.075 A 
ATOM      7  H4  M3S d          35.057  39.589  -7.361  0.00  0.00     0.084 H 
ATOM      8  H5  M3S d          35.724  37.383  -6.456  0.00  0.00     0.083 H 
ATOM      9  H6  M3S d          36.350  37.145  -4.052  0.00  0.00     0.085 H 
ENDROOT
BRANCH   1  10
ATOM     10  O1  M3S d          35.583  41.624  -3.367  0.00  0.00    -0.278 OA
BRANCH  10  11
ATOM     11  C11 M3S d          36.726  42.296  -3.135  0.00  0.00     0.260 C 
ATOM     12  O12 M3S d          37.546  42.323  -4.048  0.00  0.00    -0.265 OA
BRANCH  11  13
ATOM     13  C13 M3S d          36.848  42.991  -1.812  0.00  0.00     0.004 C 
ATOM     14  H7  M3S d          35.983  43.654  -1.666  0.00  0.00     0.041 H 
ATOM     15  H8  M3S d          37.773  43.585  -1.794  0.00  0.00     0.041 H 
ATOM     16  H9  M3S d          36.876  42.243  -1.006  0.00  0.00     0.041 H 
ENDBRANCH  11  13
ENDBRANCH  10  11
ENDBRANCH   1  10
BRANCH   2  17
ATOM     17  C1  M3S d          34.870  41.994  -6.003  0.00  0.00    -0.049 C 
ATOM     18  H1  M3S d          34.518  41.904  -7.041  0.00  0.00     0.033 H 
ATOM     19  H2  M3S d          35.734  42.675  -5.967  0.00  0.00     0.033 H 
ATOM     20  H3  M3S d          34.062  42.395  -5.374  0.00  0.00     0.033 H 
ENDBRANCH   2  17
BRANCH   6  21
ATOM     21  C8  M3S d          36.420  39.045  -2.106  0.00  0.00     0.212 C 
ATOM     22  O10 M3S d          37.545  38.408  -1.894  0.00  0.00    -0.644 OA
ATOM     23  O9  M3S d          35.599  39.589  -1.267  0.00  0.00    -0.644 OA
ENDBRANCH   6  21
TORSDOF 5
ENDMDL
MODEL 8
REMARK VINA RESULT:      -4.2      1.762      3.688
REMARK  5 active torsions:
REMARK  status: ('A' for Active; 'I' for Inactive)
REMARK    1  A    between atoms: C11_2  and  O1_3 
REMARK    2  A    between atoms: C11_2  and  C13_14 
REMARK    3  A    between atoms: O1_3  and  C2_4 
REMARK    4  A    between atoms: C7_5  and  C1_6 
REMARK    5  A    between atoms: C3_10  and  C8_11 
ROOT
ATOM      1  C2  M3S d          36.292  40.129  -4.320  0.00  0.00     0.102 A 
ATOM      2  C7  M3S d          36.121  41.524  -4.239  0.00  0.00    -0.027 A 
ATOM      3  C6  M3S d          35.353  42.169  -5.211  0.00  0.00    -0.074 A 
ATOM      4  C5  M3S d          34.759  41.437  -6.245  0.00  0.00    -0.081 A 
ATOM      5  C4  M3S d          34.931  40.043  -6.323  0.00  0.00    -0.064 A 
ATOM      6  C3  M3S d          35.704  39.403  -5.350  0.00  0.00     0.075 A 
ATOM      7  H4  M3S d          35.216  43.243  -5.164  0.00  0.00     0.084 H 
ATOM      8  H5  M3S d          34.161  41.947  -6.991  0.00  0.00     0.083 H 
ATOM      9  H6  M3S d          34.471  39.475  -7.124  0.00  0.00     0.085 H 
ENDROOT
BRANCH   1  10
ATOM     10  O1  M3S d          37.064  39.556  -3.331  0.00  0.00    -0.278 OA
BRANCH  10  11
ATOM     11  C11 M3S d          36.442  38.983  -2.284  0.00  0.00     0.260 C 
ATOM     12  O12 M3S d          35.301  39.366  -2.041  0.00  0.00    -0.265 OA
BRANCH  11  13
ATOM     13  C13 M3S d          37.183  37.895  -1.567  0.00  0.00     0.004 C 
ATOM     14  H7  M3S d          37.860  37.387  -2.270  0.00  0.00     0.041 H 
ATOM     15  H8  M3S d          36.466  37.168  -1.160  0.00  0.00     0.041 H 
ATOM     16  H9  M3S d          37.770  38.331  -0.744  0.00  0.00     0.041 H 
ENDBRANCH  11  13
ENDBRANCH  10  11
ENDBRANCH   1  10
BRANCH   2  17
ATOM     17  C1  M3S d          36.782  42.286  -3.091  0.00  0.00    -0.049 C 
ATOM     18  H1  M3S d          37.850  42.028  -3.046  0.00  0.00     0.033 H 
ATOM     19  H2  M3S d          36.298  42.012  -2.142  0.00  0.00     0.033 H 
ATOM     20  H3  M3S d          36.672  43.368  -3.258  0.00  0.00     0.033 H 
ENDBRANCH   2  17
BRANCH   6  21
ATOM     21  C8  M3S d          35.874  37.836  -5.468  0.00  0.00     0.212 C 
ATOM     22  O10 M3S d          37.105  37.392  -5.395  0.00  0.00    -0.644 OA
ATOM     23  O9  M3S d          34.760  37.188  -5.573  0.00  0.00    -0.644 OA
ENDBRANCH   6  21
TORSDOF 5
ENDMDL
MODEL 9
REMARK VINA RESULT:      -3.9      1.589      3.488
REMARK  5 active torsions:
REMARK  status: ('A' for Active; 'I' for Inactive)
REMARK    1  A    between atoms: C11_2  and  O1_3 
REMARK    2  A    between atoms: C11_2  and  C13_14 
REMARK    3  A    between atoms: O1_3  and  C2_4 
REMARK    4  A    between atoms: C7_5  and  C1_6 
REMARK    5  A    between atoms: C3_10  and  C8_11 
ROOT
ATOM      1  C2  M3S d          36.906  39.841  -3.347  0.00  0.00     0.102 A 
ATOM      2  C7  M3S d          37.162  38.463  -3.464  0.00  0.00    -0.027 A 
ATOM      3  C6  M3S d          37.105  37.663  -2.320  0.00  0.00    -0.074 A 
ATOM      4  C5  M3S d          36.793  38.226  -1.078  0.00  0.00    -0.081 A 
ATOM      5  C4  M3S d          36.537  39.605  -0.963  0.00  0.00    -0.064 A 
ATOM      6  C3  M3S d          36.599  40.400  -2.111  0.00  0.00     0.075 A 
ATOM      7  H4  M3S d          37.305  36.601  -2.395  0.00  0.00     0.084 H 
ATOM      8  H5  M3S d          36.748  37.596  -0.198  0.00  0.00     0.083 H 
ATOM      9  H6  M3S d          36.296  40.042  -0.001  0.00  0.00     0.085 H 
ENDROOT
BRANCH   1  10
ATOM     10  O1  M3S d          36.981  40.573  -4.513  0.00  0.00    -0.278 OA
BRANCH  10  11
ATOM     11  C11 M3S d          35.834  40.927  -5.123  0.00  0.00     0.260 C 
ATOM     12  O12 M3S d          35.557  42.123  -5.131  0.00  0.00    -0.265 OA
BRANCH  11  13
ATOM     13  C13 M3S d          35.050  39.830  -5.780  0.00  0.00     0.004 C 
ATOM     14  H7  M3S d          34.209  40.266  -6.341  0.00  0.00     0.041 H 
ATOM     15  H8  M3S d          34.662  39.146  -5.012  0.00  0.00     0.041 H 
ATOM     16  H9  M3S d          35.703  39.276  -6.470  0.00  0.00     0.041 H 
ENDBRANCH  11  13
ENDBRANCH  10  11
ENDBRANCH   1  10
BRANCH   2  17
ATOM     17  C1  M3S d          37.494  37.886  -4.840  0.00  0.00    -0.049 C 
ATOM     18  H1  M3S d          38.158  38.578  -5.378  0.00  0.00     0.033 H 
ATOM     19  H2  M3S d          36.565  37.748  -5.414  0.00  0.00     0.033 H 
ATOM     20  H3  M3S d          37.996  36.914  -4.719  0.00  0.00     0.033 H 
ENDBRANCH   2  17
BRANCH   6  21
ATOM     21  C8  M3S d          36.303  41.945  -1.944  0.00  0.00     0.212 C 
ATOM     22  O10 M3S d          37.253  42.751  -2.349  0.00  0.00    -0.644 OA
ATOM     23  O9  M3S d          35.130  42.212  -1.471  0.00  0.00    -0.644 OA
ENDBRANCH   6  21
TORSDOF 5
ENDMDL
MODEL 10
REMARK VINA RESULT:      -3.3      1.905      3.813
REMARK  5 active torsions:
REMARK  status: ('A' for Active; 'I' for Inactive)
REMARK    1  A    between atoms: C11_2  and  O1_3 
REMARK    2  A    between atoms: C11_2  and  C13_14 
REMARK    3  A    between atoms: O1_3  and  C2_4 
REMARK    4  A    between atoms: C7_5  and  C1_6 
REMARK    5  A    between atoms: C3_10  and  C8_11 
ROOT
ATOM      1  C2  M3S d          35.814  39.865  -3.614  0.00  0.00     0.102 A 
ATOM      2  C7  M3S d          35.812  40.966  -4.489  0.00  0.00    -0.027 A 
ATOM      3  C6  M3S d          36.334  42.184  -4.046  0.00  0.00    -0.074 A 
ATOM      4  C5  M3S d          36.857  42.302  -2.753  0.00  0.00    -0.081 A 
ATOM      5  C4  M3S d          36.859  41.199  -1.880  0.00  0.00    -0.064 A 
ATOM      6  C3  M3S d          36.331  39.984  -2.328  0.00  0.00     0.075 A 
ATOM      7  H4  M3S d          36.335  43.042  -4.707  0.00  0.00     0.084 H 
ATOM      8  H5  M3S d          37.263  43.250  -2.421  0.00  0.00     0.083 H 
ATOM      9  H6  M3S d          37.263  41.289  -0.879  0.00  0.00     0.085 H 
ENDROOT
BRANCH   1  10
ATOM     10  O1  M3S d          35.282  38.694  -4.112  0.00  0.00    -0.278 OA
BRANCH  10  11
ATOM     11  C11 M3S d          36.054  37.924  -4.902  0.00  0.00     0.260 C 
ATOM     12  O12 M3S d          35.474  37.215  -5.720  0.00  0.00    -0.265 OA
BRANCH  11  13
ATOM     13  C13 M3S d          37.538  38.062  -4.741  0.00  0.00     0.004 C 
ATOM     14  H7  M3S d          37.910  37.265  -4.080  0.00  0.00     0.041 H 
ATOM     15  H8  M3S d          37.770  39.042  -4.301  0.00  0.00     0.041 H 
ATOM     16  H9  M3S d          38.023  37.978  -5.725  0.00  0.00     0.041 H 
ENDBRANCH  11  13
ENDBRANCH  10  11
ENDBRANCH   1  10
BRANCH   2  17
ATOM     17  C1  M3S d          35.237  40.795  -5.895  0.00  0.00    -0.049 C 
ATOM     18  H1  M3S d          34.750  39.812  -5.974  0.00  0.00     0.033 H 
ATOM     19  H2  M3S d          36.050  40.863  -6.634  0.00  0.00     0.033 H 
ATOM     20  H3  M3S d          34.499  41.588  -6.088  0.00  0.00     0.033 H 
ENDBRANCH   2  17
BRANCH   6  21
ATOM     21  C8  M3S d          36.352  38.764  -1.321  0.00  0.00     0.212 C 
ATOM     22  O10 M3S d          37.382  37.962  -1.425  0.00  0.00    -0.644 OA
ATOM     23  O9  M3S d          35.364  38.748  -0.487  0.00  0.00    -0.644 OA
ENDBRANCH   6  21
TORSDOF 5
ENDMDL
