MODEL 1
REMARK VINA RESULT:      -7.9      0.000      0.000
REMARK  5 active torsions:
REMARK  status: ('A' for Active; 'I' for Inactive)
REMARK    1  A    between atoms: C4_1  and  O4_2 
REMARK    2  A    between atoms: C3_3  and  O3_4 
REMARK    3  A    between atoms: C2_5  and  O2_6 
REMARK    4  A    between atoms: C5_14  and  C6_15 
REMARK    5  A    between atoms: C6_15  and  O6_16 
ROOT
ATOM      1  C4  KIF d          31.421  66.694   6.964  0.00  0.00     0.084 C 
ATOM      2  C3  KIF d          32.450  66.788   8.155  0.00  0.00     0.090 C 
ATOM      3  C2  KIF d          32.126  65.998   9.468  0.00  0.00     0.099 C 
ATOM      4  C1  KIF d          30.637  65.226   9.283  0.00  0.00     0.111 A 
ATOM      5  N9  KIF d          30.104  64.990  10.624  0.00  0.00    -0.329 N 
ATOM      6  C8  KIF d          29.009  65.681  10.847  0.00  0.00     0.311 A 
ATOM      7  O8  KIF d          28.386  65.636  11.909  0.00  0.00    -0.262 OA
ATOM      8  C7  KIF d          28.709  66.485   9.599  0.00  0.00     0.313 A 
ATOM      9  O7  KIF d          27.751  67.261   9.429  0.00  0.00    -0.262 OA
ATOM     10  N   KIF d          29.690  66.195   8.718  0.00  0.00    -0.311 N 
ATOM     11  C5  KIF d          29.917  66.917   7.403  0.00  0.00     0.064 C 
ATOM     12  H1  KIF d          31.510  65.701   6.501  0.00  0.00     0.090 H 
ATOM     13  H3  KIF d          32.457  67.846   8.456  0.00  0.00     0.091 H 
ATOM     14  H5  KIF d          32.001  66.780  10.230  0.00  0.00     0.093 H 
ATOM     15  H7  KIF d          30.719  64.308   8.683  0.00  0.00     0.111 H 
ATOM     16  H8  KIF d          30.524  64.376  11.292  0.00  0.00     0.165 HD
ATOM     17  H9  KIF d          29.731  67.991   7.546  0.00  0.00     0.080 H 
ENDROOT
BRANCH  11  18
ATOM     18  C6  KIF d          28.970  66.385   6.292  0.00  0.00     0.038 C 
ATOM     19  H10 KIF d          28.851  65.299   6.417  0.00  0.00     0.077 H 
ATOM     20  H11 KIF d          29.421  66.594   5.311  0.00  0.00     0.077 H 
BRANCH  18  21
ATOM     21  O6  KIF d          27.675  67.004   6.350  0.00  0.00    -0.399 OA
ATOM     22  H12 KIF d          27.612  67.530   7.139  0.00  0.00     0.209 HD
ENDBRANCH  18  21
ENDBRANCH  11  18
BRANCH   1  23
ATOM     23  O4  KIF d          31.749  67.706   6.008  0.00  0.00    -0.391 OA
ATOM     24  H2  KIF d          31.225  67.584   5.226  0.00  0.00     0.210 HD
ENDBRANCH   1  23
BRANCH   2  25
ATOM     25  O3  KIF d          33.750  66.495   7.660  0.00  0.00    -0.390 OA
ATOM     26  H4  KIF d          33.724  66.454   6.712  0.00  0.00     0.210 HD
ENDBRANCH   2  25
BRANCH   3  27
ATOM     27  O2  KIF d          32.880  65.207   9.969  0.00  0.00    -0.389 OA
ATOM     28  H6  KIF d          33.775  65.452   9.768  0.00  0.00     0.210 HD
ENDBRANCH   3  27
TORSDOF 5
ENDMDL
