MODEL 1
REMARK VINA RESULT:      -8.3      0.000      0.000
REMARK  13 active torsions:
REMARK  status: ('A' for Active; 'I' for Inactive)
REMARK    1  A    between atoms: C6_6  and  O25_25 
REMARK    2  A    between atoms: C8_8  and  C27_27 
REMARK    3  A    between atoms: C10_10  and  O28_28 
REMARK    4  A    between atoms: C11_11  and  O30_30 
REMARK    5  A    between atoms: C12_12  and  C31_31 
REMARK    6  A    between atoms: C14_14  and  C32_32 
REMARK    7  A    between atoms: C15_15  and  O33_33 
REMARK    8  A    between atoms: C16_16  and  O37_37 
REMARK    9  A    between atoms: C20_20  and  C39_39 
REMARK   10  A    between atoms: O25_25  and  C26_26 
REMARK   11  A    between atoms: O28_28  and  C29_29 
REMARK   12  A    between atoms: O33_33  and  C34_34 
REMARK       I    between atoms: C34_34  and  N36_36 
REMARK   13  A    between atoms: O37_37  and  C38_38 
ROOT
ATOM      1  C1  GMY d          26.007 -34.401  -5.314  0.00  0.00     0.032 A 
ATOM      2  C2  GMY d          26.074 -34.091  -3.820  0.00  0.00     0.207 A 
ATOM      3  C3  GMY d          25.655 -32.708  -3.300  0.00  0.00     0.090 A 
ATOM      4  C4  GMY d          25.178 -31.688  -4.234  0.00  0.00    -0.002 A 
ATOM      5  C5  GMY d          25.124 -31.991  -5.736  0.00  0.00     0.208 A 
ATOM      6  C6  GMY d          25.533 -33.374  -6.246  0.00  0.00     0.128 A 
ATOM      7  C7  GMY d          25.859 -35.881  -5.704  0.00  0.00    -0.031 C 
ATOM      8  C8  GMY d          24.345 -36.103  -5.557  0.00  0.00    -0.051 C 
ATOM      9  C9  GMY d          23.734 -36.304  -6.951  0.00  0.00    -0.035 C 
ATOM     10  C10 GMY d          22.369 -36.998  -6.846  0.00  0.00     0.063 C 
ATOM     11  C11 GMY d          21.387 -36.384  -7.864  0.00  0.00     0.067 C 
ATOM     12  C12 GMY d          21.223 -34.873  -7.583  0.00  0.00    -0.014 C 
ATOM     13  C13 GMY d          20.333 -34.686  -6.349  0.00  0.00    -0.092 C 
ATOM     14  C14 GMY d          20.525 -33.549  -5.450  0.00  0.00    -0.055 C 
ATOM     15  C15 GMY d          19.591 -33.404  -4.254  0.00  0.00     0.099 C 
ATOM     16  C16 GMY d          20.417 -33.569  -2.970  0.00  0.00     0.083 C 
ATOM     17  C17 GMY d          20.827 -35.047  -2.833  0.00  0.00    -0.073 C 
ATOM     18  C18 GMY d          22.098 -35.346  -2.158  0.00  0.00    -0.083 C 
ATOM     19  C19 GMY d          23.151 -34.238  -2.030  0.00  0.00    -0.072 C 
ATOM     20  C20 GMY d          24.391 -34.537  -1.301  0.00  0.00     0.006 C 
ATOM     21  C21 GMY d          25.242 -33.344  -0.872  0.00  0.00     0.251 C 
ATOM     22  N22 GMY d          25.720 -32.408  -1.872  0.00  0.00    -0.320 N 
ATOM     23  O23 GMY d          26.455 -34.947  -3.067  0.00  0.00    -0.285 OA
ATOM     24  O24 GMY d          24.744 -31.169  -6.516  0.00  0.00    -0.285 OA
ATOM     25  O40 GMY d          25.511 -33.192   0.283  0.00  0.00    -0.268 OA
ATOM     26  H1  GMY d          24.863 -30.713  -3.862  0.00  0.00     0.093 H 
ATOM     27  H2  GMY d          26.425 -36.533  -5.022  0.00  0.00     0.041 H 
ATOM     28  H3  GMY d          26.190 -36.057  -6.738  0.00  0.00     0.041 H 
ATOM     29  H4  GMY d          23.900 -35.194  -5.127  0.00  0.00     0.040 H 
ATOM     30  H5  GMY d          24.411 -36.926  -7.556  0.00  0.00     0.037 H 
ATOM     31  H6  GMY d          23.605 -35.324  -7.435  0.00  0.00     0.037 H 
ATOM     32  H7  GMY d          21.966 -36.871  -5.830  0.00  0.00     0.087 H 
ATOM     33  H8  GMY d          20.410 -36.881  -7.775  0.00  0.00     0.087 H 
ATOM     34  H9  GMY d          22.207 -34.406  -7.429  0.00  0.00     0.049 H 
ATOM     35  H10 GMY d          19.546 -35.410  -6.139  0.00  0.00     0.078 H 
ATOM     36  H11 GMY d          18.771 -34.135  -4.292  0.00  0.00     0.096 H 
ATOM     37  H12 GMY d          21.318 -32.940  -3.027  0.00  0.00     0.094 H 
ATOM     38  H13 GMY d          20.196 -35.844  -3.224  0.00  0.00     0.081 H 
ATOM     39  H14 GMY d          22.289 -36.340  -1.755  0.00  0.00     0.083 H 
ATOM     40  H15 GMY d          22.983 -33.254  -2.468  0.00  0.00     0.084 H 
ATOM     41  H16 GMY d          26.105 -31.534  -1.576  0.00  0.00     0.169 HD
ENDROOT
BRANCH  15  42
ATOM     42  O33 GMY d          19.106 -32.073  -4.299  0.00  0.00    -0.291 OA
BRANCH  42  43
ATOM     43  C34 GMY d          17.679 -31.970  -4.361  0.00  0.00     0.359 C 
ATOM     44  O35 GMY d          17.071 -31.048  -3.881  0.00  0.00    -0.239 OA
ATOM     45  N36 GMY d          16.969 -33.068  -5.012  0.00  0.00    -0.346 N 
ATOM     46  H33 GMY d          15.971 -33.046  -5.082  0.00  0.00     0.161 HD
ATOM     47  H34 GMY d          17.480 -33.841  -5.387  0.00  0.00     0.161 HD
ENDBRANCH  42  43
ENDBRANCH  15  42
BRANCH  14  48
ATOM     48  C32 GMY d          21.627 -32.503  -5.695  0.00  0.00    -0.052 C 
ATOM     49  H30 GMY d          21.360 -31.887  -6.567  0.00  0.00     0.033 H 
ATOM     50  H31 GMY d          22.582 -33.013  -5.884  0.00  0.00     0.033 H 
ATOM     51  H32 GMY d          21.724 -31.859  -4.809  0.00  0.00     0.033 H 
ENDBRANCH  14  48
BRANCH  16  52
ATOM     52  O37 GMY d          19.634 -33.175  -1.838  0.00  0.00    -0.384 OA
BRANCH  52  53
ATOM     53  C38 GMY d          18.643 -34.160  -1.537  0.00  0.00     0.005 C 
ATOM     54  H35 GMY d          19.105 -34.986  -0.977  0.00  0.00     0.066 H 
ATOM     55  H36 GMY d          18.214 -34.546  -2.473  0.00  0.00     0.066 H 
ATOM     56  H37 GMY d          17.848 -33.705  -0.928  0.00  0.00     0.066 H 
ENDBRANCH  52  53
ENDBRANCH  16  52
BRANCH  12  57
ATOM     57  C31 GMY d          20.483 -34.213  -8.758  0.00  0.00    -0.067 C 
ATOM     58  H27 GMY d          19.399 -34.346  -8.630  0.00  0.00     0.028 H 
ATOM     59  H28 GMY d          20.802 -34.681  -9.702  0.00  0.00     0.028 H 
ATOM     60  H29 GMY d          20.720 -33.139  -8.783  0.00  0.00     0.028 H 
ENDBRANCH  12  57
BRANCH  11  61
ATOM     61  O30 GMY d          21.892 -36.561  -9.188  0.00  0.00    -0.392 OA
ATOM     62  H26 GMY d          22.839 -36.630  -9.158  0.00  0.00     0.210 HD
ENDBRANCH  11  61
BRANCH  10  63
ATOM     63  O28 GMY d          22.557 -38.390  -7.117  0.00  0.00    -0.388 OA
BRANCH  63  64
ATOM     64  C29 GMY d          21.487 -39.163  -6.550  0.00  0.00     0.005 C 
ATOM     65  H23 GMY d          20.693 -39.297  -7.300  0.00  0.00     0.066 H 
ATOM     66  H24 GMY d          21.079 -38.637  -5.674  0.00  0.00     0.066 H 
ATOM     67  H25 GMY d          21.869 -40.148  -6.242  0.00  0.00     0.066 H 
ENDBRANCH  63  64
ENDBRANCH  10  63
BRANCH  20  68
ATOM     68  C39 GMY d          24.489 -35.811  -0.447  0.00  0.00    -0.046 C 
ATOM     69  H38 GMY d          24.595 -35.534   0.613  0.00  0.00     0.033 H 
ATOM     70  H39 GMY d          25.364 -36.397  -0.762  0.00  0.00     0.033 H 
ATOM     71  H40 GMY d          23.578 -36.412  -0.579  0.00  0.00     0.033 H 
ENDBRANCH  20  68
BRANCH   8  72
ATOM     72  C27 GMY d          24.078 -37.254  -4.572  0.00  0.00    -0.073 C 
ATOM     73  H20 GMY d          23.477 -36.882  -3.728  0.00  0.00     0.028 H 
ATOM     74  H21 GMY d          25.034 -37.645  -4.196  0.00  0.00     0.028 H 
ATOM     75  H22 GMY d          23.529 -38.057  -5.086  0.00  0.00     0.028 H 
ENDBRANCH   8  72
BRANCH   6  76
ATOM     76  O25 GMY d          25.470 -33.636  -7.646  0.00  0.00    -0.351 OA
BRANCH  76  77
ATOM     77  C26 GMY d          26.762 -33.383  -8.214  0.00  0.00     0.011 C 
ATOM     78  H17 GMY d          27.535 -33.853  -7.589  0.00  0.00     0.067 H 
ATOM     79  H18 GMY d          26.937 -32.298  -8.260  0.00  0.00     0.067 H 
ATOM     80  H19 GMY d          26.805 -33.806  -9.230  0.00  0.00     0.067 H 
ENDBRANCH  76  77
ENDBRANCH   6  76
TORSDOF 13
ENDMDL
MODEL 2
REMARK VINA RESULT:      -5.8      2.280      6.122
REMARK  13 active torsions:
REMARK  status: ('A' for Active; 'I' for Inactive)
REMARK    1  A    between atoms: C6_6  and  O25_25 
REMARK    2  A    between atoms: C8_8  and  C27_27 
REMARK    3  A    between atoms: C10_10  and  O28_28 
REMARK    4  A    between atoms: C11_11  and  O30_30 
REMARK    5  A    between atoms: C12_12  and  C31_31 
REMARK    6  A    between atoms: C14_14  and  C32_32 
REMARK    7  A    between atoms: C15_15  and  O33_33 
REMARK    8  A    between atoms: C16_16  and  O37_37 
REMARK    9  A    between atoms: C20_20  and  C39_39 
REMARK   10  A    between atoms: O25_25  and  C26_26 
REMARK   11  A    between atoms: O28_28  and  C29_29 
REMARK   12  A    between atoms: O33_33  and  C34_34 
REMARK       I    between atoms: C34_34  and  N36_36 
REMARK   13  A    between atoms: O37_37  and  C38_38 
ROOT
ATOM      1  C1  GMY d          24.687 -37.105  -6.532  0.00  0.00     0.032 A 
ATOM      2  C2  GMY d          23.507 -37.623  -7.352  0.00  0.00     0.207 A 
ATOM      3  C3  GMY d          22.278 -38.214  -6.647  0.00  0.00     0.090 A 
ATOM      4  C4  GMY d          22.228 -38.271  -5.186  0.00  0.00    -0.002 A 
ATOM      5  C5  GMY d          23.416 -37.766  -4.360  0.00  0.00     0.208 A 
ATOM      6  C6  GMY d          24.634 -37.168  -5.069  0.00  0.00     0.128 A 
ATOM      7  C7  GMY d          25.571 -36.037  -7.197  0.00  0.00    -0.031 C 
ATOM      8  C8  GMY d          24.776 -34.749  -6.928  0.00  0.00    -0.051 C 
ATOM      9  C9  GMY d          25.550 -33.889  -5.919  0.00  0.00    -0.035 C 
ATOM     10  C10 GMY d          25.081 -32.429  -5.984  0.00  0.00     0.063 C 
ATOM     11  C11 GMY d          25.014 -31.833  -4.563  0.00  0.00     0.067 C 
ATOM     12  C12 GMY d          24.031 -32.655  -3.700  0.00  0.00    -0.014 C 
ATOM     13  C13 GMY d          22.595 -32.302  -4.103  0.00  0.00    -0.092 C 
ATOM     14  C14 GMY d          21.526 -33.297  -4.021  0.00  0.00    -0.055 C 
ATOM     15  C15 GMY d          20.113 -32.878  -4.411  0.00  0.00     0.099 C 
ATOM     16  C16 GMY d          19.700 -33.668  -5.661  0.00  0.00     0.083 C 
ATOM     17  C17 GMY d          20.497 -33.137  -6.866  0.00  0.00    -0.073 C 
ATOM     18  C18 GMY d          20.815 -34.081  -7.948  0.00  0.00    -0.083 C 
ATOM     19  C19 GMY d          20.763 -35.587  -7.659  0.00  0.00    -0.072 C 
ATOM     20  C20 GMY d          21.026 -36.517  -8.766  0.00  0.00     0.006 C 
ATOM     21  C21 GMY d          20.613 -37.972  -8.555  0.00  0.00     0.251 C 
ATOM     22  N22 GMY d          21.149 -38.713  -7.429  0.00  0.00    -0.320 N 
ATOM     23  O23 GMY d          23.561 -37.555  -8.551  0.00  0.00    -0.285 OA
ATOM     24  O24 GMY d          23.398 -37.809  -3.166  0.00  0.00    -0.285 OA
ATOM     25  O40 GMY d          19.855 -38.489  -9.321  0.00  0.00    -0.268 OA
ATOM     26  H1  GMY d          21.348 -38.673  -4.686  0.00  0.00     0.093 H 
ATOM     27  H2  GMY d          25.678 -36.222  -8.276  0.00  0.00     0.041 H 
ATOM     28  H3  GMY d          26.566 -35.996  -6.731  0.00  0.00     0.041 H 
ATOM     29  H4  GMY d          23.816 -35.021  -6.466  0.00  0.00     0.040 H 
ATOM     30  H5  GMY d          26.624 -33.935  -6.152  0.00  0.00     0.037 H 
ATOM     31  H6  GMY d          25.378 -34.278  -4.904  0.00  0.00     0.037 H 
ATOM     32  H7  GMY d          24.083 -32.381  -6.445  0.00  0.00     0.087 H 
ATOM     33  H8  GMY d          24.669 -30.790  -4.620  0.00  0.00     0.087 H 
ATOM     34  H9  GMY d          24.220 -33.731  -3.828  0.00  0.00     0.049 H 
ATOM     35  H10 GMY d          22.367 -31.297  -4.454  0.00  0.00     0.078 H 
ATOM     36  H11 GMY d          20.048 -31.795  -4.589  0.00  0.00     0.096 H 
ATOM     37  H12 GMY d          19.922 -34.735  -5.513  0.00  0.00     0.094 H 
ATOM     38  H13 GMY d          20.815 -32.096  -6.916  0.00  0.00     0.081 H 
ATOM     39  H14 GMY d          21.084 -33.717  -8.938  0.00  0.00     0.083 H 
ATOM     40  H15 GMY d          20.536 -35.957  -6.660  0.00  0.00     0.084 H 
ATOM     41  H16 GMY d          20.734 -39.589  -7.182  0.00  0.00     0.169 HD
ENDROOT
BRANCH  15  42
ATOM     42  O33 GMY d          19.279 -33.280  -3.338  0.00  0.00    -0.291 OA
BRANCH  42  43
ATOM     43  C34 GMY d          18.534 -32.213  -2.742  0.00  0.00     0.359 C 
ATOM     44  O35 GMY d          18.743 -31.816  -1.624  0.00  0.00    -0.239 OA
ATOM     45  N36 GMY d          17.460 -31.632  -3.545  0.00  0.00    -0.346 N 
ATOM     46  H33 GMY d          16.908 -30.884  -3.177  0.00  0.00     0.161 HD
ATOM     47  H34 GMY d          17.278 -31.984  -4.464  0.00  0.00     0.161 HD
ENDBRANCH  42  43
ENDBRANCH  15  42
BRANCH  14  48
ATOM     48  C32 GMY d          21.795 -34.734  -3.539  0.00  0.00    -0.052 C 
ATOM     49  H30 GMY d          21.101 -35.425  -4.040  0.00  0.00     0.033 H 
ATOM     50  H31 GMY d          21.647 -34.790  -2.451  0.00  0.00     0.033 H 
ATOM     51  H32 GMY d          22.830 -35.015  -3.783  0.00  0.00     0.033 H 
ENDBRANCH  14  48
BRANCH  16  52
ATOM     52  O37 GMY d          18.298 -33.503  -5.895  0.00  0.00    -0.384 OA
BRANCH  52  53
ATOM     53  C38 GMY d          17.650 -34.770  -6.027  0.00  0.00     0.005 C 
ATOM     54  H35 GMY d          16.565 -34.619  -6.121  0.00  0.00     0.066 H 
ATOM     55  H36 GMY d          17.859 -35.383  -5.138  0.00  0.00     0.066 H 
ATOM     56  H37 GMY d          18.027 -35.283  -6.923  0.00  0.00     0.066 H 
ENDBRANCH  52  53
ENDBRANCH  16  52
BRANCH  12  57
ATOM     57  C31 GMY d          24.183 -32.247  -2.225  0.00  0.00    -0.067 C 
ATOM     58  H27 GMY d          23.965 -33.112  -1.581  0.00  0.00     0.028 H 
ATOM     59  H28 GMY d          23.480 -31.432  -1.995  0.00  0.00     0.028 H 
ATOM     60  H29 GMY d          25.213 -31.905  -2.043  0.00  0.00     0.028 H 
ENDBRANCH  12  57
BRANCH  11  61
ATOM     61  O30 GMY d          26.310 -31.873  -3.963  0.00  0.00    -0.392 OA
ATOM     62  H26 GMY d          26.951 -32.137  -4.614  0.00  0.00     0.210 HD
ENDBRANCH  11  61
BRANCH  10  63
ATOM     63  O28 GMY d          26.015 -31.698  -6.785  0.00  0.00    -0.388 OA
BRANCH  63  64
ATOM     64  C29 GMY d          25.636 -30.314  -6.864  0.00  0.00     0.005 C 
ATOM     65  H23 GMY d          25.375 -30.065  -7.904  0.00  0.00     0.066 H 
ATOM     66  H24 GMY d          26.476 -29.685  -6.537  0.00  0.00     0.066 H 
ATOM     67  H25 GMY d          24.767 -30.134  -6.215  0.00  0.00     0.066 H 
ENDBRANCH  63  64
ENDBRANCH  10  63
BRANCH  20  68
ATOM     68  C39 GMY d          21.051 -35.998 -10.212  0.00  0.00    -0.046 C 
ATOM     69  H38 GMY d          21.784 -35.181 -10.296  0.00  0.00     0.033 H 
ATOM     70  H39 GMY d          20.054 -35.624 -10.485  0.00  0.00     0.033 H 
ATOM     71  H40 GMY d          21.335 -36.816 -10.890  0.00  0.00     0.033 H 
ENDBRANCH  20  68
BRANCH   8  72
ATOM     72  C27 GMY d          24.460 -34.042  -8.258  0.00  0.00    -0.073 C 
ATOM     73  H20 GMY d          24.116 -34.783  -8.995  0.00  0.00     0.028 H 
ATOM     74  H21 GMY d          25.366 -33.544  -8.633  0.00  0.00     0.028 H 
ATOM     75  H22 GMY d          23.671 -33.293  -8.096  0.00  0.00     0.028 H 
ENDBRANCH   8  72
BRANCH   6  76
ATOM     76  O25 GMY d          25.726 -36.699  -4.281  0.00  0.00    -0.351 OA
BRANCH  76  77
ATOM     77  C26 GMY d          26.755 -37.698  -4.291  0.00  0.00     0.011 C 
ATOM     78  H17 GMY d          26.889 -38.075  -5.315  0.00  0.00     0.067 H 
ATOM     79  H18 GMY d          26.466 -38.529  -3.629  0.00  0.00     0.067 H 
ATOM     80  H19 GMY d          27.698 -37.257  -3.935  0.00  0.00     0.067 H 
ENDBRANCH  76  77
ENDBRANCH   6  76
TORSDOF 13
ENDMDL
MODEL 3
REMARK VINA RESULT:      -5.7      2.100      7.489
REMARK  13 active torsions:
REMARK  status: ('A' for Active; 'I' for Inactive)
REMARK    1  A    between atoms: C6_6  and  O25_25 
REMARK    2  A    between atoms: C8_8  and  C27_27 
REMARK    3  A    between atoms: C10_10  and  O28_28 
REMARK    4  A    between atoms: C11_11  and  O30_30 
REMARK    5  A    between atoms: C12_12  and  C31_31 
REMARK    6  A    between atoms: C14_14  and  C32_32 
REMARK    7  A    between atoms: C15_15  and  O33_33 
REMARK    8  A    between atoms: C16_16  and  O37_37 
REMARK    9  A    between atoms: C20_20  and  C39_39 
REMARK   10  A    between atoms: O25_25  and  C26_26 
REMARK   11  A    between atoms: O28_28  and  C29_29 
REMARK   12  A    between atoms: O33_33  and  C34_34 
REMARK       I    between atoms: C34_34  and  N36_36 
REMARK   13  A    between atoms: O37_37  and  C38_38 
ROOT
ATOM      1  C1  GMY d          21.395 -35.446  -4.108  0.00  0.00     0.032 A 
ATOM      2  C2  GMY d          21.480 -36.192  -5.438  0.00  0.00     0.207 A 
ATOM      3  C3  GMY d          21.295 -35.433  -6.760  0.00  0.00     0.090 A 
ATOM      4  C4  GMY d          21.049 -33.991  -6.750  0.00  0.00    -0.002 A 
ATOM      5  C5  GMY d          20.948 -33.242  -5.416  0.00  0.00     0.208 A 
ATOM      6  C6  GMY d          21.145 -34.003  -4.102  0.00  0.00     0.128 A 
ATOM      7  C7  GMY d          22.140 -36.074  -2.918  0.00  0.00    -0.031 C 
ATOM      8  C8  GMY d          23.578 -35.579  -3.141  0.00  0.00    -0.051 C 
ATOM      9  C9  GMY d          23.931 -34.565  -2.044  0.00  0.00    -0.035 C 
ATOM     10  C10 GMY d          25.453 -34.415  -1.918  0.00  0.00     0.063 C 
ATOM     11  C11 GMY d          25.818 -32.935  -1.675  0.00  0.00     0.067 C 
ATOM     12  C12 GMY d          25.306 -32.073  -2.851  0.00  0.00    -0.014 C 
ATOM     13  C13 GMY d          26.224 -32.280  -4.061  0.00  0.00    -0.092 C 
ATOM     14  C14 GMY d          25.699 -32.200  -5.423  0.00  0.00    -0.055 C 
ATOM     15  C15 GMY d          26.667 -32.390  -6.586  0.00  0.00     0.099 C 
ATOM     16  C16 GMY d          26.279 -33.671  -7.338  0.00  0.00     0.083 C 
ATOM     17  C17 GMY d          26.644 -34.886  -6.463  0.00  0.00    -0.073 C 
ATOM     18  C18 GMY d          25.817 -36.095  -6.591  0.00  0.00    -0.083 C 
ATOM     19  C19 GMY d          24.415 -35.975  -7.202  0.00  0.00    -0.072 C 
ATOM     20  C20 GMY d          23.625 -37.202  -7.376  0.00  0.00     0.006 C 
ATOM     21  C21 GMY d          22.415 -37.117  -8.303  0.00  0.00     0.251 C 
ATOM     22  N22 GMY d          21.373 -36.145  -8.034  0.00  0.00    -0.320 N 
ATOM     23  O23 GMY d          21.696 -37.374  -5.427  0.00  0.00    -0.285 OA
ATOM     24  O24 GMY d          20.742 -32.066  -5.385  0.00  0.00    -0.285 OA
ATOM     25  O40 GMY d          22.335 -37.852  -9.242  0.00  0.00    -0.268 OA
ATOM     26  H1  GMY d          20.937 -33.450  -7.688  0.00  0.00     0.093 H 
ATOM     27  H2  GMY d          22.088 -37.172  -2.948  0.00  0.00     0.041 H 
ATOM     28  H3  GMY d          21.738 -35.714  -1.960  0.00  0.00     0.041 H 
ATOM     29  H4  GMY d          23.620 -35.052  -4.106  0.00  0.00     0.040 H 
ATOM     30  H5  GMY d          23.522 -34.913  -1.084  0.00  0.00     0.037 H 
ATOM     31  H6  GMY d          23.491 -33.589  -2.298  0.00  0.00     0.037 H 
ATOM     32  H7  GMY d          25.937 -34.759  -2.845  0.00  0.00     0.087 H 
ATOM     33  H8  GMY d          26.910 -32.837  -1.596  0.00  0.00     0.087 H 
ATOM     34  H9  GMY d          24.269 -32.342  -3.097  0.00  0.00     0.049 H 
ATOM     35  H10 GMY d          27.282 -32.489  -3.904  0.00  0.00     0.078 H 
ATOM     36  H11 GMY d          27.710 -32.436  -6.239  0.00  0.00     0.096 H 
ATOM     37  H12 GMY d          25.197 -33.670  -7.534  0.00  0.00     0.094 H 
ATOM     38  H13 GMY d          27.485 -34.850  -5.773  0.00  0.00     0.081 H 
ATOM     39  H14 GMY d          26.194 -37.060  -6.256  0.00  0.00     0.083 H 
ATOM     40  H15 GMY d          24.015 -35.006  -7.499  0.00  0.00     0.084 H 
ATOM     41  H16 GMY d          20.689 -35.956  -8.739  0.00  0.00     0.169 HD
ENDROOT
BRANCH  15  42
ATOM     42  O33 GMY d          26.455 -31.288  -7.452  0.00  0.00    -0.291 OA
BRANCH  42  43
ATOM     43  C34 GMY d          27.637 -30.537  -7.748  0.00  0.00     0.359 C 
ATOM     44  O35 GMY d          27.934 -30.201  -8.866  0.00  0.00    -0.239 OA
ATOM     45  N36 GMY d          28.509 -30.214  -6.621  0.00  0.00    -0.346 N 
ATOM     46  H33 GMY d          29.349 -29.691  -6.772  0.00  0.00     0.161 HD
ATOM     47  H34 GMY d          28.268 -30.516  -5.699  0.00  0.00     0.161 HD
ENDBRANCH  42  43
ENDBRANCH  15  42
BRANCH  14  48
ATOM     48  C32 GMY d          24.213 -31.916  -5.701  0.00  0.00    -0.052 C 
ATOM     49  H30 GMY d          23.630 -32.840  -5.563  0.00  0.00     0.033 H 
ATOM     50  H31 GMY d          24.094 -31.560  -6.735  0.00  0.00     0.033 H 
ATOM     51  H32 GMY d          23.850 -31.147  -5.004  0.00  0.00     0.033 H 
ENDBRANCH  14  48
BRANCH  16  52
ATOM     52  O37 GMY d          26.988 -33.737  -8.579  0.00  0.00    -0.384 OA
BRANCH  52  53
ATOM     53  C38 GMY d          28.344 -34.139  -8.371  0.00  0.00     0.005 C 
ATOM     54  H35 GMY d          28.445 -34.586  -7.371  0.00  0.00     0.066 H 
ATOM     55  H36 GMY d          29.002 -33.262  -8.449  0.00  0.00     0.066 H 
ATOM     56  H37 GMY d          28.627 -34.880  -9.133  0.00  0.00     0.066 H 
ENDBRANCH  52  53
ENDBRANCH  16  52
BRANCH  12  57
ATOM     57  C31 GMY d          25.409 -30.586  -2.475  0.00  0.00    -0.067 C 
ATOM     58  H27 GMY d          25.826 -30.492  -1.461  0.00  0.00     0.028 H 
ATOM     59  H28 GMY d          24.408 -30.130  -2.504  0.00  0.00     0.028 H 
ATOM     60  H29 GMY d          26.067 -30.071  -3.191  0.00  0.00     0.028 H 
ENDBRANCH  12  57
BRANCH  11  61
ATOM     61  O30 GMY d          25.210 -32.483  -0.464  0.00  0.00    -0.392 OA
ATOM     62  H26 GMY d          24.579 -31.801  -0.663  0.00  0.00     0.210 HD
ENDBRANCH  11  61
BRANCH  10  63
ATOM     63  O28 GMY d          25.891 -35.220  -0.820  0.00  0.00    -0.388 OA
BRANCH  63  64
ATOM     64  C29 GMY d          24.791 -35.524   0.052  0.00  0.00     0.005 C 
ATOM     65  H23 GMY d          23.865 -35.598  -0.537  0.00  0.00     0.066 H 
ATOM     66  H24 GMY d          24.686 -34.726   0.801  0.00  0.00     0.066 H 
ATOM     67  H25 GMY d          24.979 -36.482   0.560  0.00  0.00     0.066 H 
ENDBRANCH  63  64
ENDBRANCH  10  63
BRANCH  20  68
ATOM     68  C39 GMY d          24.301 -38.575  -7.231  0.00  0.00    -0.046 C 
ATOM     69  H38 GMY d          24.493 -38.779  -6.167  0.00  0.00     0.033 H 
ATOM     70  H39 GMY d          25.253 -38.574  -7.781  0.00  0.00     0.033 H 
ATOM     71  H40 GMY d          23.641 -39.354  -7.640  0.00  0.00     0.033 H 
ENDBRANCH  20  68
BRANCH   8  72
ATOM     72  C27 GMY d          24.537 -36.779  -3.233  0.00  0.00    -0.073 C 
ATOM     73  H20 GMY d          24.675 -37.059  -4.287  0.00  0.00     0.028 H 
ATOM     74  H21 GMY d          24.114 -37.630  -2.680  0.00  0.00     0.028 H 
ATOM     75  H22 GMY d          25.509 -36.505  -2.796  0.00  0.00     0.028 H 
ENDBRANCH   8  72
BRANCH   6  76
ATOM     76  O25 GMY d          21.052 -33.285  -2.873  0.00  0.00    -0.351 OA
BRANCH  76  77
ATOM     77  C26 GMY d          19.705 -33.383  -2.390  0.00  0.00     0.011 C 
ATOM     78  H17 GMY d          19.492 -32.535  -1.723  0.00  0.00     0.067 H 
ATOM     79  H18 GMY d          19.581 -34.325  -1.836  0.00  0.00     0.067 H 
ATOM     80  H19 GMY d          19.008 -33.363  -3.242  0.00  0.00     0.067 H 
ENDBRANCH  76  77
ENDBRANCH   6  76
TORSDOF 13
ENDMDL
