MODEL 1
REMARK VINA RESULT:      -8.4      0.000      0.000
REMARK  3 active torsions:
REMARK  status: ('A' for Active; 'I' for Inactive)
REMARK    1  A    between atoms: C13_2  and  C15_3 
REMARK       I    between atoms: C13_2  and  N12_12 
REMARK    2  A    between atoms: N12_12  and  C8_13 
REMARK    3  A    between atoms: C6_18  and  C2_19 
ROOT
ATOM      1  O14 MOL d          -8.857  55.242  13.376  0.00  0.00    -0.267 OA
ATOM      2  C13 MOL d          -8.910  55.398  12.146  0.00  0.00     0.256 C 
ATOM      3  N12 MOL d          -8.229  54.599  11.314  0.00  0.00    -0.323 N 
ATOM      4  H6  MOL d          -8.314  54.769  10.332  0.00  0.00     0.169 HD
ENDROOT
BRANCH   3   5
ATOM      5  C8  MOL d          -7.407  53.543  11.724  0.00  0.00     0.035 A 
ATOM      6  C7  MOL d          -6.055  53.815  11.910  0.00  0.00    -0.043 A 
ATOM      7  C6  MOL d          -5.214  52.788  12.347  0.00  0.00     0.014 A 
ATOM      8  H7  MOL d          -5.662  54.808  11.721  0.00  0.00     0.088 H 
ATOM      9  C11 MOL d          -5.672  51.508  12.605  0.00  0.00    -0.069 A 
ATOM     10  C10 MOL d          -7.025  51.258  12.382  0.00  0.00    -0.080 A 
ATOM     11  H10 MOL d          -5.006  50.732  12.965  0.00  0.00     0.085 H 
ATOM     12  C9  MOL d          -7.896  52.240  11.916  0.00  0.00    -0.057 A 
ATOM     13  H9  MOL d          -7.412  50.265  12.578  0.00  0.00     0.083 H 
ATOM     14  H8  MOL d          -8.933  52.003  11.706  0.00  0.00     0.086 H 
BRANCH   7  15
ATOM     15  C2  MOL d          -3.791  53.076  12.565  0.00  0.00     0.168 A 
ATOM     16  N3  MOL d          -2.823  52.950  11.641  0.00  0.00    -0.268 N 
ATOM     17  N4  MOL d          -1.638  53.259  12.275  0.00  0.00    -0.005 NA
ATOM     18  H11 MOL d          -2.943  52.678  10.655  0.00  0.00     0.185 HD
ATOM     19  N5  MOL d          -1.911  53.560  13.569  0.00  0.00     0.018 NA
ATOM     20  N1  MOL d          -3.248  53.464  13.734  0.00  0.00    -0.142 NA
ENDBRANCH   7  15
ENDBRANCH   3   5
BRANCH   2  21
ATOM     21  C15 MOL d          -9.715  56.525  11.572  0.00  0.00     0.033 A 
ATOM     22  C20 MOL d         -10.856  56.930  12.275  0.00  0.00    -0.054 A 
ATOM     23  C19 MOL d         -11.577  58.017  11.811  0.00  0.00     0.012 A 
ATOM     24  H1  MOL d         -11.170  56.401  13.167  0.00  0.00     0.086 H 
ATOM     25  C23 MOL d         -12.778  58.624  12.321  0.00  0.00     0.008 A 
ATOM     26  C18 MOL d         -11.174  58.681  10.662  0.00  0.00     0.088 A 
ATOM     27  N22 MOL d         -13.047  59.640  11.475  0.00  0.00    -0.288 N 
ATOM     28  H2  MOL d         -13.347  58.326  13.201  0.00  0.00     0.115 H 
ATOM     29  N21 MOL d         -12.080  59.677  10.468  0.00  0.00    -0.175 NA
ATOM     30  H3  MOL d         -13.844  60.289  11.558  0.00  0.00     0.188 HD
ATOM     31  C17 MOL d         -10.044  58.296   9.951  0.00  0.00    -0.052 A 
ATOM     32  C16 MOL d          -9.294  57.225  10.418  0.00  0.00    -0.065 A 
ATOM     33  H4  MOL d          -9.753  58.822   9.048  0.00  0.00     0.087 H 
ATOM     34  H5  MOL d          -8.390  56.927   9.900  0.00  0.00     0.085 H 
ENDBRANCH   2  21
TORSDOF 3
ENDMDL
MODEL 2
REMARK VINA RESULT:      -7.3      1.511      1.850
REMARK  3 active torsions:
REMARK  status: ('A' for Active; 'I' for Inactive)
REMARK    1  A    between atoms: C13_2  and  C15_3 
REMARK       I    between atoms: C13_2  and  N12_12 
REMARK    2  A    between atoms: N12_12  and  C8_13 
REMARK    3  A    between atoms: C6_18  and  C2_19 
ROOT
ATOM      1  O14 MOL d          -7.791  56.068  12.641  0.00  0.00    -0.267 OA
ATOM      2  C13 MOL d          -8.494  55.264  12.008  0.00  0.00     0.256 C 
ATOM      3  N12 MOL d          -8.172  53.965  11.940  0.00  0.00    -0.323 N 
ATOM      4  H6  MOL d          -8.778  53.362  11.420  0.00  0.00     0.169 HD
ENDROOT
BRANCH   3   5
ATOM      5  C8  MOL d          -7.047  53.393  12.546  0.00  0.00     0.035 A 
ATOM      6  C7  MOL d          -5.868  53.356  11.808  0.00  0.00    -0.043 A 
ATOM      7  C6  MOL d          -4.721  52.817  12.396  0.00  0.00     0.014 A 
ATOM      8  H7  MOL d          -5.840  53.738  10.794  0.00  0.00     0.088 H 
ATOM      9  C11 MOL d          -4.708  52.320  13.688  0.00  0.00    -0.069 A 
ATOM     10  C10 MOL d          -5.910  52.345  14.392  0.00  0.00    -0.080 A 
ATOM     11  H10 MOL d          -3.801  51.927  14.133  0.00  0.00     0.085 H 
ATOM     12  C9  MOL d          -7.088  52.842  13.838  0.00  0.00    -0.057 A 
ATOM     13  H9  MOL d          -5.929  51.965  15.407  0.00  0.00     0.083 H 
ATOM     14  H8  MOL d          -8.018  52.804  14.393  0.00  0.00     0.086 H 
BRANCH   7  15
ATOM     15  C2  MOL d          -3.469  52.794  11.629  0.00  0.00     0.168 A 
ATOM     16  N3  MOL d          -3.206  51.973  10.598  0.00  0.00    -0.268 N 
ATOM     17  N4  MOL d          -1.909  52.239  10.211  0.00  0.00    -0.005 NA
ATOM     18  H11 MOL d          -3.845  51.281  10.181  0.00  0.00     0.185 HD
ATOM     19  N5  MOL d          -1.414  53.211  11.016  0.00  0.00     0.018 NA
ATOM     20  N1  MOL d          -2.393  53.563  11.876  0.00  0.00    -0.142 NA
ENDBRANCH   7  15
ENDBRANCH   3   5
BRANCH   2  21
ATOM     21  C15 MOL d          -9.703  55.751  11.267  0.00  0.00     0.033 A 
ATOM     22  C20 MOL d         -10.037  57.105  11.394  0.00  0.00    -0.054 A 
ATOM     23  C19 MOL d         -11.103  57.601  10.662  0.00  0.00     0.012 A 
ATOM     24  H1  MOL d          -9.472  57.753  12.053  0.00  0.00     0.086 H 
ATOM     25  C23 MOL d         -11.664  58.925  10.617  0.00  0.00     0.008 A 
ATOM     26  C18 MOL d         -11.827  56.762   9.829  0.00  0.00     0.088 A 
ATOM     27  N22 MOL d         -12.693  58.843   9.747  0.00  0.00    -0.288 N 
ATOM     28  H2  MOL d         -11.330  59.804  11.166  0.00  0.00     0.115 H 
ATOM     29  N21 MOL d         -12.797  57.535   9.270  0.00  0.00    -0.175 NA
ATOM     30  H3  MOL d         -13.308  59.625   9.478  0.00  0.00     0.188 HD
ATOM     31  C17 MOL d         -11.510  55.416   9.689  0.00  0.00    -0.052 A 
ATOM     32  C16 MOL d         -10.428  54.908  10.394  0.00  0.00    -0.065 A 
ATOM     33  H4  MOL d         -12.097  54.774   9.041  0.00  0.00     0.087 H 
ATOM     34  H5  MOL d         -10.140  53.870  10.276  0.00  0.00     0.085 H 
ENDBRANCH   2  21
TORSDOF 3
ENDMDL
MODEL 3
REMARK VINA RESULT:      -7.1      1.611      8.300
REMARK  3 active torsions:
REMARK  status: ('A' for Active; 'I' for Inactive)
REMARK    1  A    between atoms: C13_2  and  C15_3 
REMARK       I    between atoms: C13_2  and  N12_12 
REMARK    2  A    between atoms: N12_12  and  C8_13 
REMARK    3  A    between atoms: C6_18  and  C2_19 
ROOT
ATOM      1  O14 MOL d          -8.631  53.893  13.390  0.00  0.00    -0.267 OA
ATOM      2  C13 MOL d          -7.931  53.661  12.391  0.00  0.00     0.256 C 
ATOM      3  N12 MOL d          -8.387  53.893  11.153  0.00  0.00    -0.323 N 
ATOM      4  H6  MOL d          -7.778  53.692  10.387  0.00  0.00     0.169 HD
ENDROOT
BRANCH   3   5
ATOM      5  C8  MOL d          -9.660  54.398  10.859  0.00  0.00     0.035 A 
ATOM      6  C7  MOL d          -9.868  55.762  11.037  0.00  0.00    -0.043 A 
ATOM      7  C6  MOL d         -11.119  56.300  10.725  0.00  0.00     0.014 A 
ATOM      8  H7  MOL d          -9.072  56.397  11.410  0.00  0.00     0.088 H 
ATOM      9  C11 MOL d         -12.163  55.530  10.242  0.00  0.00    -0.069 A 
ATOM     10  C10 MOL d         -11.934  54.162  10.102  0.00  0.00    -0.080 A 
ATOM     11  H10 MOL d         -13.119  55.972   9.984  0.00  0.00     0.085 H 
ATOM     12  C9  MOL d         -10.715  53.574  10.430  0.00  0.00    -0.057 A 
ATOM     13  H9  MOL d         -12.733  53.535   9.723  0.00  0.00     0.083 H 
ATOM     14  H8  MOL d         -10.582  52.501  10.356  0.00  0.00     0.086 H 
BRANCH   7  15
ATOM     15  C2  MOL d         -11.337  57.742  10.890  0.00  0.00     0.168 A 
ATOM     16  N3  MOL d         -11.157  58.428  12.032  0.00  0.00    -0.268 N 
ATOM     17  N4  MOL d         -11.530  59.729  11.767  0.00  0.00    -0.005 NA
ATOM     18  H11 MOL d         -10.809  58.056  12.927  0.00  0.00     0.185 HD
ATOM     19  N5  MOL d         -11.932  59.803  10.474  0.00  0.00     0.018 NA
ATOM     20  N1  MOL d         -11.790  58.574   9.934  0.00  0.00    -0.142 NA
ENDBRANCH   7  15
ENDBRANCH   3   5
BRANCH   2  21
ATOM     21  C15 MOL d          -6.563  53.070  12.560  0.00  0.00     0.033 A 
ATOM     22  C20 MOL d          -5.484  53.956  12.669  0.00  0.00    -0.054 A 
ATOM     23  C19 MOL d          -4.219  53.444  12.901  0.00  0.00     0.012 A 
ATOM     24  H1  MOL d          -5.637  55.025  12.572  0.00  0.00     0.086 H 
ATOM     25  C23 MOL d          -2.954  54.115  13.035  0.00  0.00     0.008 A 
ATOM     26  C18 MOL d          -4.032  52.075  13.013  0.00  0.00     0.088 A 
ATOM     27  N22 MOL d          -2.052  53.131  13.240  0.00  0.00    -0.288 N 
ATOM     28  H2  MOL d          -2.764  55.186  12.984  0.00  0.00     0.115 H 
ATOM     29  N21 MOL d          -2.700  51.894  13.225  0.00  0.00    -0.175 NA
ATOM     30  H3  MOL d          -1.042  53.271  13.384  0.00  0.00     0.188 HD
ATOM     31  C17 MOL d          -5.090  51.179  12.909  0.00  0.00    -0.052 A 
ATOM     32  C16 MOL d          -6.369  51.677  12.703  0.00  0.00    -0.065 A 
ATOM     33  H4  MOL d          -4.919  50.111  12.987  0.00  0.00     0.087 H 
ATOM     34  H5  MOL d          -7.215  51.002  12.653  0.00  0.00     0.085 H 
ENDBRANCH   2  21
TORSDOF 3
ENDMDL
MODEL 4
REMARK VINA RESULT:      -5.5      2.808      8.521
REMARK  3 active torsions:
REMARK  status: ('A' for Active; 'I' for Inactive)
REMARK    1  A    between atoms: C13_2  and  C15_3 
REMARK       I    between atoms: C13_2  and  N12_12 
REMARK    2  A    between atoms: N12_12  and  C8_13 
REMARK    3  A    between atoms: C6_18  and  C2_19 
ROOT
ATOM      1  O14 MOL d          -8.752  53.381  13.537  0.00  0.00    -0.267 OA
ATOM      2  C13 MOL d          -7.822  53.797  12.828  0.00  0.00     0.256 C 
ATOM      3  N12 MOL d          -8.024  54.746  11.904  0.00  0.00    -0.323 N 
ATOM      4  H6  MOL d          -7.237  55.047  11.366  0.00  0.00     0.169 HD
ENDROOT
BRANCH   3   5
ATOM      5  C8  MOL d          -9.262  55.345  11.640  0.00  0.00     0.035 A 
ATOM      6  C7  MOL d         -10.224  54.575  10.994  0.00  0.00    -0.043 A 
ATOM      7  C6  MOL d         -11.479  55.137  10.742  0.00  0.00     0.014 A 
ATOM      8  H7  MOL d         -10.004  53.558  10.692  0.00  0.00     0.088 H 
ATOM      9  C11 MOL d         -11.805  56.430  11.112  0.00  0.00    -0.069 A 
ATOM     10  C10 MOL d         -10.812  57.186  11.731  0.00  0.00    -0.080 A 
ATOM     11  H10 MOL d         -12.793  56.838  10.927  0.00  0.00     0.085 H 
ATOM     12  C9  MOL d          -9.536  56.682  11.975  0.00  0.00    -0.057 A 
ATOM     13  H9  MOL d         -11.040  58.201  12.035  0.00  0.00     0.083 H 
ATOM     14  H8  MOL d          -8.769  57.310  12.415  0.00  0.00     0.086 H 
BRANCH   7  15
ATOM     15  C2  MOL d         -12.505  54.322  10.080  0.00  0.00     0.168 A 
ATOM     16  N3  MOL d         -12.920  54.478   8.811  0.00  0.00    -0.268 N 
ATOM     17  N4  MOL d         -13.927  53.557   8.616  0.00  0.00    -0.005 NA
ATOM     18  H11 MOL d         -12.558  55.153   8.122  0.00  0.00     0.185 HD
ATOM     19  N5  MOL d         -14.104  52.866   9.768  0.00  0.00     0.018 NA
ATOM     20  N1  MOL d         -13.205  53.332  10.662  0.00  0.00    -0.142 NA
ENDBRANCH   7  15
ENDBRANCH   3   5
BRANCH   2  21
ATOM     21  C15 MOL d          -6.452  53.205  12.971  0.00  0.00     0.033 A 
ATOM     22  C20 MOL d          -5.369  54.090  13.042  0.00  0.00    -0.054 A 
ATOM     23  C19 MOL d          -4.099  53.578  13.250  0.00  0.00     0.012 A 
ATOM     24  H1  MOL d          -5.522  55.158  12.935  0.00  0.00     0.086 H 
ATOM     25  C23 MOL d          -2.830  54.247  13.345  0.00  0.00     0.008 A 
ATOM     26  C18 MOL d          -3.912  52.210  13.375  0.00  0.00     0.088 A 
ATOM     27  N22 MOL d          -1.925  53.264  13.540  0.00  0.00    -0.288 N 
ATOM     28  H2  MOL d          -2.639  55.317  13.274  0.00  0.00     0.115 H 
ATOM     29  N21 MOL d          -2.576  52.029  13.557  0.00  0.00    -0.175 NA
ATOM     30  H3  MOL d          -0.911  53.404  13.658  0.00  0.00     0.188 HD
ATOM     31  C17 MOL d          -4.974  51.315  13.309  0.00  0.00    -0.052 A 
ATOM     32  C16 MOL d          -6.257  51.814  13.128  0.00  0.00    -0.065 A 
ATOM     33  H4  MOL d          -4.804  50.248  13.397  0.00  0.00     0.087 H 
ATOM     34  H5  MOL d          -7.105  51.140  13.107  0.00  0.00     0.085 H 
ENDBRANCH   2  21
TORSDOF 3
ENDMDL
