MODEL 1
REMARK VINA RESULT:      -5.8      0.000      0.000
REMARK  17 active torsions:
REMARK  status: ('A' for Active; 'I' for Inactive)
REMARK    1  A    between atoms: CAJ_10  and  OAA_1 
REMARK    2  A    between atoms: CAK_11  and  OAB_2 
REMARK    3  A    between atoms: CAN_14  and  OAC_3 
REMARK    4  A    between atoms: CAO_15  and  OAD_4 
REMARK    5  A    between atoms: CAP_16  and  OAE_5 
REMARK    6  A    between atoms: CAQ_17  and  OAF_6 
REMARK    7  A    between atoms: CAR_18  and  OAG_7 
REMARK    8  A    between atoms: CAS_19  and  OAH_8 
REMARK    9  A    between atoms: CAT_20  and  OAI_9 
REMARK   10  A    between atoms: CAN_14  and  CAJ_10 
REMARK   11  A    between atoms: CAU_21  and  CAK_11 
REMARK   12  A    between atoms: CAL_12  and  CAO_15 
REMARK   13  A    between atoms: SAV_22  and  CAL_12 
REMARK   14  A    between atoms: CAQ_17  and  CAN_14 
REMARK   15  A    between atoms: CAO_15  and  CAR_18 
REMARK   16  A    between atoms: CAS_19  and  CAQ_17 
REMARK   17  A    between atoms: CAR_18  and  CAS_19 
ROOT
ATOM      1  CAO DSK d          -2.551 -20.309 -22.076  0.00  0.00     0.070 C 
ATOM      2  H19 DSK d          -1.588 -20.826 -22.203  0.00  0.00     0.088 H 
ENDROOT
BRANCH   1   3
ATOM      3  OAD DSK d          -2.799 -19.541 -23.245  0.00  0.00    -0.392 OA
ATOM      4  H4  DSK d          -2.347 -19.933 -23.982  0.00  0.00     0.210 HD
ENDBRANCH   1   3
BRANCH   1   5
ATOM      5  CAL DSK d          -3.646 -21.403 -21.878  0.00  0.00    -0.005 C 
ATOM      6  H14 DSK d          -4.383 -21.322 -22.690  0.00  0.00     0.051 H 
ATOM      7  H15 DSK d          -4.146 -21.238 -20.912  0.00  0.00     0.051 H 
BRANCH   5   8
ATOM      8  SAV DSK d          -2.934 -23.068 -21.894  0.00  0.00    -0.206 SA
ATOM      9  CAM DSK d          -2.489 -23.624 -20.198  0.00  0.00    -0.005 C 
ATOM     10  CAP DSK d          -1.105 -22.964 -20.025  0.00  0.00     0.069 C 
ATOM     11  H16 DSK d          -3.208 -23.258 -19.451  0.00  0.00     0.051 H 
ATOM     12  H17 DSK d          -2.424 -24.721 -20.137  0.00  0.00     0.051 H 
ATOM     13  CAT DSK d          -0.355 -23.353 -21.328  0.00  0.00     0.074 C 
ATOM     14  H20 DSK d          -1.205 -21.873 -19.931  0.00  0.00     0.088 H 
ATOM     15  CAU DSK d          -1.222 -22.772 -22.482  0.00  0.00     0.030 C 
ATOM     16  H24 DSK d          -0.237 -24.442 -21.428  0.00  0.00     0.088 H 
ATOM     17  H25 DSK d          -1.052 -21.686 -22.535  0.00  0.00     0.062 H 
BRANCH  10  18
ATOM     18  OAE DSK d          -0.374 -23.487 -18.874  0.00  0.00    -0.392 OA
ATOM     19  H5  DSK d           0.556 -23.344 -19.000  0.00  0.00     0.210 HD
ENDBRANCH  10  18
BRANCH  13  20
ATOM     20  OAI DSK d           0.920 -22.701 -21.283  0.00  0.00    -0.392 OA
ATOM     21  H9  DSK d           1.587 -23.329 -21.028  0.00  0.00     0.210 HD
ENDBRANCH  13  20
BRANCH  15  22
ATOM     22  CAK DSK d          -0.903 -23.329 -23.897  0.00  0.00     0.030 C 
ATOM     23  H12 DSK d          -1.270 -24.365 -23.952  0.00  0.00     0.075 H 
ATOM     24  H13 DSK d          -1.432 -22.713 -24.639  0.00  0.00     0.075 H 
BRANCH  22  25
ATOM     25  OAB DSK d           0.491 -23.327 -24.219  0.00  0.00    -0.400 OA
ATOM     26  H2  DSK d           0.966 -22.833 -23.562  0.00  0.00     0.209 HD
ENDBRANCH  22  25
ENDBRANCH  15  22
ENDBRANCH   5   8
ENDBRANCH   1   5
BRANCH   1  27
ATOM     27  CAR DSK d          -2.422 -19.369 -20.880  0.00  0.00     0.088 C 
ATOM     28  H22 DSK d          -3.244 -19.526 -20.165  0.00  0.00     0.091 H 
BRANCH  27  29
ATOM     29  OAG DSK d          -1.139 -19.654 -20.297  0.00  0.00    -0.390 OA
ATOM     30  H7  DSK d          -0.470 -19.608 -20.969  0.00  0.00     0.210 HD
ENDBRANCH  27  29
BRANCH  27  31
ATOM     31  CAS DSK d          -2.368 -17.895 -21.344  0.00  0.00     0.090 C 
ATOM     32  H23 DSK d          -3.258 -17.697 -21.961  0.00  0.00     0.091 H 
BRANCH  31  33
ATOM     33  OAH DSK d          -1.201 -17.669 -22.134  0.00  0.00    -0.390 OA
ATOM     34  H8  DSK d          -1.289 -16.844 -22.597  0.00  0.00     0.210 HD
ENDBRANCH  31  33
BRANCH  31  35
ATOM     35  CAQ DSK d          -2.367 -16.918 -20.170  0.00  0.00     0.089 C 
ATOM     36  H21 DSK d          -2.605 -17.455 -19.240  0.00  0.00     0.091 H 
BRANCH  35  37
ATOM     37  OAF DSK d          -3.355 -15.914 -20.431  0.00  0.00    -0.390 OA
ATOM     38  H6  DSK d          -4.128 -16.321 -20.804  0.00  0.00     0.210 HD
ENDBRANCH  35  37
BRANCH  35  39
ATOM     39  CAN DSK d          -0.994 -16.224 -20.033  0.00  0.00     0.083 C 
ATOM     40  H18 DSK d          -0.201 -16.916 -20.353  0.00  0.00     0.090 H 
BRANCH  39  41
ATOM     41  OAC DSK d          -0.976 -15.058 -20.869  0.00  0.00    -0.391 OA
ATOM     42  H3  DSK d          -0.758 -15.310 -21.759  0.00  0.00     0.210 HD
ENDBRANCH  39  41
BRANCH  39  43
ATOM     43  CAJ DSK d          -0.759 -15.828 -18.570  0.00  0.00     0.043 C 
ATOM     44  H10 DSK d          -0.394 -16.697 -18.003  0.00  0.00     0.078 H 
ATOM     45  H11 DSK d          -0.017 -15.017 -18.519  0.00  0.00     0.078 H 
BRANCH  43  46
ATOM     46  OAA DSK d          -1.992 -15.384 -18.028  0.00  0.00    -0.398 OA
ATOM     47  H1  DSK d          -1.882 -14.513 -17.667  0.00  0.00     0.209 HD
ENDBRANCH  43  46
ENDBRANCH  39  43
ENDBRANCH  35  39
ENDBRANCH  31  35
ENDBRANCH  27  31
ENDBRANCH   1  27
TORSDOF 17
ENDMDL
MODEL 2
REMARK VINA RESULT:      -5.6      1.879      2.484
REMARK  17 active torsions:
REMARK  status: ('A' for Active; 'I' for Inactive)
REMARK    1  A    between atoms: CAJ_10  and  OAA_1 
REMARK    2  A    between atoms: CAK_11  and  OAB_2 
REMARK    3  A    between atoms: CAN_14  and  OAC_3 
REMARK    4  A    between atoms: CAO_15  and  OAD_4 
REMARK    5  A    between atoms: CAP_16  and  OAE_5 
REMARK    6  A    between atoms: CAQ_17  and  OAF_6 
REMARK    7  A    between atoms: CAR_18  and  OAG_7 
REMARK    8  A    between atoms: CAS_19  and  OAH_8 
REMARK    9  A    between atoms: CAT_20  and  OAI_9 
REMARK   10  A    between atoms: CAN_14  and  CAJ_10 
REMARK   11  A    between atoms: CAU_21  and  CAK_11 
REMARK   12  A    between atoms: CAL_12  and  CAO_15 
REMARK   13  A    between atoms: SAV_22  and  CAL_12 
REMARK   14  A    between atoms: CAQ_17  and  CAN_14 
REMARK   15  A    between atoms: CAO_15  and  CAR_18 
REMARK   16  A    between atoms: CAS_19  and  CAQ_17 
REMARK   17  A    between atoms: CAR_18  and  CAS_19 
ROOT
ATOM      1  CAO DSK d          -2.867 -20.270 -21.899  0.00  0.00     0.070 C 
ATOM      2  H19 DSK d          -2.115 -21.070 -21.967  0.00  0.00     0.088 H 
ENDROOT
BRANCH   1   3
ATOM      3  OAD DSK d          -2.856 -19.545 -23.120  0.00  0.00    -0.392 OA
ATOM      4  H4  DSK d          -1.973 -19.527 -23.469  0.00  0.00     0.210 HD
ENDBRANCH   1   3
BRANCH   1   5
ATOM      5  CAL DSK d          -4.252 -20.948 -21.658  0.00  0.00    -0.005 C 
ATOM      6  H14 DSK d          -4.939 -20.654 -22.465  0.00  0.00     0.051 H 
ATOM      7  H15 DSK d          -4.653 -20.609 -20.693  0.00  0.00     0.051 H 
BRANCH   5   8
ATOM      8  SAV DSK d          -4.112 -22.754 -21.636  0.00  0.00    -0.206 SA
ATOM      9  CAM DSK d          -2.372 -23.290 -21.370  0.00  0.00    -0.005 C 
ATOM     10  CAP DSK d          -1.814 -23.200 -22.806  0.00  0.00     0.069 C 
ATOM     11  H16 DSK d          -1.840 -22.612 -20.687  0.00  0.00     0.051 H 
ATOM     12  H17 DSK d          -2.322 -24.317 -20.979  0.00  0.00     0.051 H 
ATOM     13  CAT DSK d          -2.873 -23.959 -23.651  0.00  0.00     0.074 C 
ATOM     14  H20 DSK d          -1.726 -22.151 -23.123  0.00  0.00     0.088 H 
ATOM     15  CAU DSK d          -4.205 -23.191 -23.414  0.00  0.00     0.030 C 
ATOM     16  H24 DSK d          -2.962 -25.014 -23.353  0.00  0.00     0.088 H 
ATOM     17  H25 DSK d          -4.184 -22.264 -24.006  0.00  0.00     0.062 H 
BRANCH  10  18
ATOM     18  OAE DSK d          -0.521 -23.863 -22.946  0.00  0.00    -0.392 OA
ATOM     19  H5  DSK d          -0.398 -24.126 -23.851  0.00  0.00     0.210 HD
ENDBRANCH  10  18
BRANCH  13  20
ATOM     20  OAI DSK d          -2.468 -23.847 -25.022  0.00  0.00    -0.392 OA
ATOM     21  H9  DSK d          -2.104 -24.676 -25.312  0.00  0.00     0.210 HD
ENDBRANCH  13  20
BRANCH  15  22
ATOM     22  CAK DSK d          -5.492 -23.949 -23.842  0.00  0.00     0.030 C 
ATOM     23  H12 DSK d          -5.934 -24.413 -22.948  0.00  0.00     0.075 H 
ATOM     24  H13 DSK d          -6.200 -23.219 -24.264  0.00  0.00     0.075 H 
BRANCH  22  25
ATOM     25  OAB DSK d          -5.265 -24.972 -24.816  0.00  0.00    -0.400 OA
ATOM     26  H2  DSK d          -5.617 -24.694 -25.654  0.00  0.00     0.209 HD
ENDBRANCH  22  25
ENDBRANCH  15  22
ENDBRANCH   5   8
ENDBRANCH   1   5
BRANCH   1  27
ATOM     27  CAR DSK d          -2.454 -19.337 -20.763  0.00  0.00     0.088 C 
ATOM     28  H22 DSK d          -3.163 -19.399 -19.924  0.00  0.00     0.091 H 
BRANCH  27  29
ATOM     29  OAG DSK d          -1.130 -19.750 -20.381  0.00  0.00    -0.390 OA
ATOM     30  H7  DSK d          -1.011 -19.603 -19.450  0.00  0.00     0.210 HD
ENDBRANCH  27  29
BRANCH  27  31
ATOM     31  CAS DSK d          -2.322 -17.881 -21.269  0.00  0.00     0.090 C 
ATOM     32  H23 DSK d          -3.213 -17.645 -21.871  0.00  0.00     0.091 H 
BRANCH  31  33
ATOM     33  OAH DSK d          -1.163 -17.747 -22.091  0.00  0.00    -0.390 OA
ATOM     34  H8  DSK d          -0.712 -16.941 -21.870  0.00  0.00     0.210 HD
ENDBRANCH  31  33
BRANCH  31  35
ATOM     35  CAQ DSK d          -2.234 -16.876 -20.123  0.00  0.00     0.089 C 
ATOM     36  H21 DSK d          -2.425 -17.384 -19.167  0.00  0.00     0.091 H 
BRANCH  35  37
ATOM     37  OAF DSK d          -3.217 -15.860 -20.350  0.00  0.00    -0.390 OA
ATOM     38  H6  DSK d          -3.079 -15.472 -21.206  0.00  0.00     0.210 HD
ENDBRANCH  35  37
BRANCH  35  39
ATOM     39  CAN DSK d          -0.843 -16.206 -20.085  0.00  0.00     0.083 C 
ATOM     40  H18 DSK d          -0.065 -16.966 -20.249  0.00  0.00     0.090 H 
BRANCH  39  41
ATOM     41  OAC DSK d          -0.772 -15.220 -21.127  0.00  0.00    -0.391 OA
ATOM     42  H3  DSK d          -0.652 -14.361 -20.741  0.00  0.00     0.210 HD
ENDBRANCH  39  41
BRANCH  39  43
ATOM     43  CAJ DSK d          -0.624 -15.544 -18.719  0.00  0.00     0.043 C 
ATOM     44  H10 DSK d           0.117 -16.118 -18.142  0.00  0.00     0.078 H 
ATOM     45  H11 DSK d          -0.263 -14.514 -18.857  0.00  0.00     0.078 H 
BRANCH  43  46
ATOM     46  OAA DSK d          -1.863 -15.530 -18.030  0.00  0.00    -0.398 OA
ATOM     47  H1  DSK d          -1.917 -16.291 -17.463  0.00  0.00     0.209 HD
ENDBRANCH  43  46
ENDBRANCH  39  43
ENDBRANCH  35  39
ENDBRANCH  31  35
ENDBRANCH  27  31
ENDBRANCH   1  27
TORSDOF 17
ENDMDL
MODEL 3
REMARK VINA RESULT:      -5.4      2.628      7.291
REMARK  17 active torsions:
REMARK  status: ('A' for Active; 'I' for Inactive)
REMARK    1  A    between atoms: CAJ_10  and  OAA_1 
REMARK    2  A    between atoms: CAK_11  and  OAB_2 
REMARK    3  A    between atoms: CAN_14  and  OAC_3 
REMARK    4  A    between atoms: CAO_15  and  OAD_4 
REMARK    5  A    between atoms: CAP_16  and  OAE_5 
REMARK    6  A    between atoms: CAQ_17  and  OAF_6 
REMARK    7  A    between atoms: CAR_18  and  OAG_7 
REMARK    8  A    between atoms: CAS_19  and  OAH_8 
REMARK    9  A    between atoms: CAT_20  and  OAI_9 
REMARK   10  A    between atoms: CAN_14  and  CAJ_10 
REMARK   11  A    between atoms: CAU_21  and  CAK_11 
REMARK   12  A    between atoms: CAL_12  and  CAO_15 
REMARK   13  A    between atoms: SAV_22  and  CAL_12 
REMARK   14  A    between atoms: CAQ_17  and  CAN_14 
REMARK   15  A    between atoms: CAO_15  and  CAR_18 
REMARK   16  A    between atoms: CAS_19  and  CAQ_17 
REMARK   17  A    between atoms: CAR_18  and  CAS_19 
ROOT
ATOM      1  CAO DSK d          -2.344 -20.252 -20.654  0.00  0.00     0.070 C 
ATOM      2  H19 DSK d          -1.642 -20.995 -21.059  0.00  0.00     0.088 H 
ENDROOT
BRANCH   1   3
ATOM      3  OAD DSK d          -3.174 -20.899 -19.701  0.00  0.00    -0.392 OA
ATOM      4  H4  DSK d          -3.182 -21.834 -19.872  0.00  0.00     0.210 HD
ENDBRANCH   1   3
BRANCH   1   5
ATOM      5  CAL DSK d          -1.496 -19.124 -19.987  0.00  0.00    -0.005 C 
ATOM      6  H14 DSK d          -0.449 -19.226 -20.309  0.00  0.00     0.051 H 
ATOM      7  H15 DSK d          -1.556 -19.230 -18.894  0.00  0.00     0.051 H 
BRANCH   5   8
ATOM      8  SAV DSK d          -2.095 -17.479 -20.451  0.00  0.00    -0.206 SA
ATOM      9  CAM DSK d          -0.951 -16.656 -21.633  0.00  0.00    -0.005 C 
ATOM     10  CAP DSK d           0.100 -16.071 -20.667  0.00  0.00     0.069 C 
ATOM     11  H16 DSK d          -0.501 -17.378 -22.330  0.00  0.00     0.051 H 
ATOM     12  H17 DSK d          -1.460 -15.865 -22.204  0.00  0.00     0.051 H 
ATOM     13  CAT DSK d          -0.761 -15.350 -19.593  0.00  0.00     0.074 C 
ATOM     14  H20 DSK d           0.707 -16.873 -20.221  0.00  0.00     0.088 H 
ATOM     15  CAU DSK d          -1.665 -16.461 -18.987  0.00  0.00     0.030 C 
ATOM     16  H24 DSK d          -1.363 -14.536 -20.024  0.00  0.00     0.088 H 
ATOM     17  H25 DSK d          -1.058 -17.071 -18.302  0.00  0.00     0.062 H 
BRANCH  10  18
ATOM     18  OAE DSK d           0.977 -15.098 -21.313  0.00  0.00    -0.392 OA
ATOM     19  H5  DSK d           0.904 -15.186 -22.256  0.00  0.00     0.210 HD
ENDBRANCH  10  18
BRANCH  13  20
ATOM     20  OAI DSK d           0.146 -14.848 -18.603  0.00  0.00    -0.392 OA
ATOM     21  H9  DSK d           0.854 -14.379 -19.032  0.00  0.00     0.210 HD
ENDBRANCH  13  20
BRANCH  15  22
ATOM     22  CAK DSK d          -2.876 -15.952 -18.158  0.00  0.00     0.030 C 
ATOM     23  H12 DSK d          -3.693 -16.684 -18.252  0.00  0.00     0.075 H 
ATOM     24  H13 DSK d          -2.568 -15.880 -17.104  0.00  0.00     0.075 H 
BRANCH  22  25
ATOM     25  OAB DSK d          -3.365 -14.673 -18.573  0.00  0.00    -0.400 OA
ATOM     26  H2  DSK d          -4.027 -14.791 -19.244  0.00  0.00     0.209 HD
ENDBRANCH  22  25
ENDBRANCH  15  22
ENDBRANCH   5   8
ENDBRANCH   1   5
BRANCH   1  27
ATOM     27  CAR DSK d          -3.208 -19.747 -21.807  0.00  0.00     0.088 C 
ATOM     28  H22 DSK d          -3.782 -18.857 -21.509  0.00  0.00     0.091 H 
BRANCH  27  29
ATOM     29  OAG DSK d          -2.296 -19.464 -22.883  0.00  0.00    -0.390 OA
ATOM     30  H7  DSK d          -2.626 -18.733 -23.391  0.00  0.00     0.210 HD
ENDBRANCH  27  29
BRANCH  27  31
ATOM     31  CAS DSK d          -4.146 -20.865 -22.319  0.00  0.00     0.090 C 
ATOM     32  H23 DSK d          -4.507 -20.579 -23.318  0.00  0.00     0.091 H 
BRANCH  31  33
ATOM     33  OAH DSK d          -5.267 -21.006 -21.448  0.00  0.00    -0.390 OA
ATOM     34  H8  DSK d          -5.170 -20.413 -20.712  0.00  0.00     0.210 HD
ENDBRANCH  31  33
BRANCH  31  35
ATOM     35  CAQ DSK d          -3.435 -22.212 -22.430  0.00  0.00     0.089 C 
ATOM     36  H21 DSK d          -3.028 -22.499 -21.450  0.00  0.00     0.091 H 
BRANCH  35  37
ATOM     37  OAF DSK d          -2.378 -22.076 -23.387  0.00  0.00    -0.390 OA
ATOM     38  H6  DSK d          -1.577 -22.433 -23.024  0.00  0.00     0.210 HD
ENDBRANCH  35  37
BRANCH  35  39
ATOM     39  CAN DSK d          -4.405 -23.306 -22.930  0.00  0.00     0.083 C 
ATOM     40  H18 DSK d          -4.936 -23.744 -22.073  0.00  0.00     0.090 H 
BRANCH  39  41
ATOM     41  OAC DSK d          -5.354 -22.712 -23.828  0.00  0.00    -0.391 OA
ATOM     42  H3  DSK d          -5.061 -21.841 -24.066  0.00  0.00     0.210 HD
ENDBRANCH  39  41
BRANCH  39  43
ATOM     43  CAJ DSK d          -3.615 -24.406 -23.651  0.00  0.00     0.043 C 
ATOM     44  H10 DSK d          -2.610 -24.492 -23.211  0.00  0.00     0.078 H 
ATOM     45  H11 DSK d          -4.142 -25.367 -23.553  0.00  0.00     0.078 H 
BRANCH  43  46
ATOM     46  OAA DSK d          -3.512 -24.052 -25.020  0.00  0.00    -0.398 OA
ATOM     47  H1  DSK d          -3.227 -23.149 -25.091  0.00  0.00     0.209 HD
ENDBRANCH  43  46
ENDBRANCH  39  43
ENDBRANCH  35  39
ENDBRANCH  31  35
ENDBRANCH  27  31
ENDBRANCH   1  27
TORSDOF 17
ENDMDL
MODEL 4
REMARK VINA RESULT:      -5.4      1.770      2.108
REMARK  17 active torsions:
REMARK  status: ('A' for Active; 'I' for Inactive)
REMARK    1  A    between atoms: CAJ_10  and  OAA_1 
REMARK    2  A    between atoms: CAK_11  and  OAB_2 
REMARK    3  A    between atoms: CAN_14  and  OAC_3 
REMARK    4  A    between atoms: CAO_15  and  OAD_4 
REMARK    5  A    between atoms: CAP_16  and  OAE_5 
REMARK    6  A    between atoms: CAQ_17  and  OAF_6 
REMARK    7  A    between atoms: CAR_18  and  OAG_7 
REMARK    8  A    between atoms: CAS_19  and  OAH_8 
REMARK    9  A    between atoms: CAT_20  and  OAI_9 
REMARK   10  A    between atoms: CAN_14  and  CAJ_10 
REMARK   11  A    between atoms: CAU_21  and  CAK_11 
REMARK   12  A    between atoms: CAL_12  and  CAO_15 
REMARK   13  A    between atoms: SAV_22  and  CAL_12 
REMARK   14  A    between atoms: CAQ_17  and  CAN_14 
REMARK   15  A    between atoms: CAO_15  and  CAR_18 
REMARK   16  A    between atoms: CAS_19  and  CAQ_17 
REMARK   17  A    between atoms: CAR_18  and  CAS_19 
ROOT
ATOM      1  CAO DSK d          -2.885 -20.227 -21.906  0.00  0.00     0.070 C 
ATOM      2  H19 DSK d          -2.205 -21.092 -21.915  0.00  0.00     0.088 H 
ENDROOT
BRANCH   1   3
ATOM      3  OAD DSK d          -2.738 -19.535 -23.137  0.00  0.00    -0.392 OA
ATOM      4  H4  DSK d          -3.437 -19.789 -23.728  0.00  0.00     0.210 HD
ENDBRANCH   1   3
BRANCH   1   5
ATOM      5  CAL DSK d          -4.336 -20.776 -21.738  0.00  0.00    -0.005 C 
ATOM      6  H14 DSK d          -5.044 -20.053 -22.169  0.00  0.00     0.051 H 
ATOM      7  H15 DSK d          -4.549 -20.902 -20.666  0.00  0.00     0.051 H 
BRANCH   5   8
ATOM      8  SAV DSK d          -4.545 -22.371 -22.570  0.00  0.00    -0.206 SA
ATOM      9  CAM DSK d          -5.673 -23.477 -21.629  0.00  0.00    -0.005 C 
ATOM     10  CAP DSK d          -4.701 -24.074 -20.589  0.00  0.00     0.069 C 
ATOM     11  H16 DSK d          -6.483 -22.912 -21.146  0.00  0.00     0.051 H 
ATOM     12  H17 DSK d          -6.104 -24.257 -22.274  0.00  0.00     0.051 H 
ATOM     13  CAT DSK d          -3.494 -24.537 -21.450  0.00  0.00     0.074 C 
ATOM     14  H20 DSK d          -4.401 -23.311 -19.856  0.00  0.00     0.088 H 
ATOM     15  CAU DSK d          -2.987 -23.249 -22.161  0.00  0.00     0.030 C 
ATOM     16  H24 DSK d          -3.778 -25.310 -22.179  0.00  0.00     0.088 H 
ATOM     17  H25 DSK d          -2.424 -22.646 -21.433  0.00  0.00     0.062 H 
BRANCH  10  18
ATOM     18  OAE DSK d          -5.265 -25.226 -19.891  0.00  0.00    -0.392 OA
ATOM     19  H5  DSK d          -5.692 -25.797 -20.518  0.00  0.00     0.210 HD
ENDBRANCH  10  18
BRANCH  13  20
ATOM     20  OAI DSK d          -2.501 -25.029 -20.541  0.00  0.00    -0.392 OA
ATOM     21  H9  DSK d          -1.636 -24.856 -20.894  0.00  0.00     0.210 HD
ENDBRANCH  13  20
BRANCH  15  22
ATOM     22  CAK DSK d          -2.028 -23.487 -23.360  0.00  0.00     0.030 C 
ATOM     23  H12 DSK d          -1.324 -24.288 -23.087  0.00  0.00     0.075 H 
ATOM     24  H13 DSK d          -2.628 -23.806 -24.225  0.00  0.00     0.075 H 
BRANCH  22  25
ATOM     25  OAB DSK d          -1.273 -22.331 -23.736  0.00  0.00    -0.400 OA
ATOM     26  H2  DSK d          -0.808 -21.997 -22.977  0.00  0.00     0.209 HD
ENDBRANCH  22  25
ENDBRANCH  15  22
ENDBRANCH   5   8
ENDBRANCH   1   5
BRANCH   1  27
ATOM     27  CAR DSK d          -2.458 -19.308 -20.764  0.00  0.00     0.088 C 
ATOM     28  H22 DSK d          -3.146 -19.394 -19.910  0.00  0.00     0.091 H 
BRANCH  27  29
ATOM     29  OAG DSK d          -1.121 -19.711 -20.419  0.00  0.00    -0.390 OA
ATOM     30  H7  DSK d          -0.534 -19.503 -21.136  0.00  0.00     0.210 HD
ENDBRANCH  27  29
BRANCH  27  31
ATOM     31  CAS DSK d          -2.356 -17.843 -21.247  0.00  0.00     0.090 C 
ATOM     32  H23 DSK d          -3.240 -17.623 -21.865  0.00  0.00     0.091 H 
BRANCH  31  33
ATOM     33  OAH DSK d          -1.185 -17.665 -22.042  0.00  0.00    -0.390 OA
ATOM     34  H8  DSK d          -0.418 -17.681 -21.481  0.00  0.00     0.210 HD
ENDBRANCH  31  33
BRANCH  31  35
ATOM     35  CAQ DSK d          -2.320 -16.852 -20.086  0.00  0.00     0.089 C 
ATOM     36  H21 DSK d          -2.559 -17.371 -19.147  0.00  0.00     0.091 H 
BRANCH  35  37
ATOM     37  OAF DSK d          -3.289 -15.830 -20.348  0.00  0.00    -0.390 OA
ATOM     38  H6  DSK d          -3.461 -15.346 -19.549  0.00  0.00     0.210 HD
ENDBRANCH  35  37
BRANCH  35  39
ATOM     39  CAN DSK d          -0.931 -16.186 -19.974  0.00  0.00     0.083 C 
ATOM     40  H18 DSK d          -0.150 -16.930 -20.189  0.00  0.00     0.090 H 
BRANCH  39  41
ATOM     41  OAC DSK d          -0.848 -15.118 -20.929  0.00  0.00    -0.391 OA
ATOM     42  H3  DSK d           0.064 -14.946 -21.131  0.00  0.00     0.210 HD
ENDBRANCH  39  41
BRANCH  39  43
ATOM     43  CAJ DSK d          -0.732 -15.640 -18.554  0.00  0.00     0.043 C 
ATOM     44  H10 DSK d          -0.162 -16.365 -17.954  0.00  0.00     0.078 H 
ATOM     45  H11 DSK d          -0.186 -14.686 -18.595  0.00  0.00     0.078 H 
BRANCH  43  46
ATOM     46  OAA DSK d          -2.010 -15.437 -17.975  0.00  0.00    -0.398 OA
ATOM     47  H1  DSK d          -2.218 -14.510 -17.985  0.00  0.00     0.209 HD
ENDBRANCH  43  46
ENDBRANCH  39  43
ENDBRANCH  35  39
ENDBRANCH  31  35
ENDBRANCH  27  31
ENDBRANCH   1  27
TORSDOF 17
ENDMDL
MODEL 5
REMARK VINA RESULT:      -4.7      2.134      6.986
REMARK  17 active torsions:
REMARK  status: ('A' for Active; 'I' for Inactive)
REMARK    1  A    between atoms: CAJ_10  and  OAA_1 
REMARK    2  A    between atoms: CAK_11  and  OAB_2 
REMARK    3  A    between atoms: CAN_14  and  OAC_3 
REMARK    4  A    between atoms: CAO_15  and  OAD_4 
REMARK    5  A    between atoms: CAP_16  and  OAE_5 
REMARK    6  A    between atoms: CAQ_17  and  OAF_6 
REMARK    7  A    between atoms: CAR_18  and  OAG_7 
REMARK    8  A    between atoms: CAS_19  and  OAH_8 
REMARK    9  A    between atoms: CAT_20  and  OAI_9 
REMARK   10  A    between atoms: CAN_14  and  CAJ_10 
REMARK   11  A    between atoms: CAU_21  and  CAK_11 
REMARK   12  A    between atoms: CAL_12  and  CAO_15 
REMARK   13  A    between atoms: SAV_22  and  CAL_12 
REMARK   14  A    between atoms: CAQ_17  and  CAN_14 
REMARK   15  A    between atoms: CAO_15  and  CAR_18 
REMARK   16  A    between atoms: CAS_19  and  CAQ_17 
REMARK   17  A    between atoms: CAR_18  and  CAS_19 
ROOT
ATOM      1  CAO DSK d          -2.417 -19.813 -21.214  0.00  0.00     0.070 C 
ATOM      2  H19 DSK d          -1.386 -20.196 -21.218  0.00  0.00     0.088 H 
ENDROOT
BRANCH   1   3
ATOM      3  OAD DSK d          -3.042 -20.236 -20.010  0.00  0.00    -0.392 OA
ATOM      4  H4  DSK d          -2.419 -20.182 -19.295  0.00  0.00     0.210 HD
ENDBRANCH   1   3
BRANCH   1   5
ATOM      5  CAL DSK d          -2.337 -18.256 -21.289  0.00  0.00    -0.005 C 
ATOM      6  H14 DSK d          -3.342 -17.838 -21.132  0.00  0.00     0.051 H 
ATOM      7  H15 DSK d          -1.970 -17.965 -22.284  0.00  0.00     0.051 H 
BRANCH   5   8
ATOM      8  SAV DSK d          -1.219 -17.587 -20.031  0.00  0.00    -0.206 SA
ATOM      9  CAM DSK d          -2.102 -17.268 -18.449  0.00  0.00    -0.005 C 
ATOM     10  CAP DSK d          -2.719 -15.882 -18.730  0.00  0.00     0.069 C 
ATOM     11  H16 DSK d          -2.877 -18.024 -18.259  0.00  0.00     0.051 H 
ATOM     12  H17 DSK d          -1.406 -17.235 -17.598  0.00  0.00     0.051 H 
ATOM     13  CAT DSK d          -1.520 -15.058 -19.277  0.00  0.00     0.074 C 
ATOM     14  H20 DSK d          -3.524 -15.960 -19.475  0.00  0.00     0.088 H 
ATOM     15  CAU DSK d          -1.040 -15.833 -20.537  0.00  0.00     0.030 C 
ATOM     16  H24 DSK d          -0.713 -14.962 -18.536  0.00  0.00     0.088 H 
ATOM     17  H25 DSK d          -1.742 -15.632 -21.360  0.00  0.00     0.062 H 
BRANCH  10  18
ATOM     18  OAE DSK d          -3.232 -15.241 -17.523  0.00  0.00    -0.392 OA
ATOM     19  H5  DSK d          -2.747 -15.555 -16.768  0.00  0.00     0.210 HD
ENDBRANCH  10  18
BRANCH  13  20
ATOM     20  OAI DSK d          -2.034 -13.772 -19.645  0.00  0.00    -0.392 OA
ATOM     21  H9  DSK d          -1.349 -13.120 -19.552  0.00  0.00     0.210 HD
ENDBRANCH  13  20
BRANCH  15  22
ATOM     22  CAK DSK d           0.368 -15.437 -21.062  0.00  0.00     0.030 C 
ATOM     23  H12 DSK d           0.560 -14.390 -20.783  0.00  0.00     0.075 H 
ATOM     24  H13 DSK d           1.113 -16.088 -20.581  0.00  0.00     0.075 H 
BRANCH  22  25
ATOM     25  OAB DSK d           0.512 -15.559 -22.481  0.00  0.00    -0.400 OA
ATOM     26  H2  DSK d           1.259 -15.046 -22.768  0.00  0.00     0.209 HD
ENDBRANCH  22  25
ENDBRANCH  15  22
ENDBRANCH   5   8
ENDBRANCH   1   5
BRANCH   1  27
ATOM     27  CAR DSK d          -3.152 -20.431 -22.400  0.00  0.00     0.088 C 
ATOM     28  H22 DSK d          -4.223 -20.179 -22.375  0.00  0.00     0.091 H 
BRANCH  27  29
ATOM     29  OAG DSK d          -2.505 -19.910 -23.574  0.00  0.00    -0.390 OA
ATOM     30  H7  DSK d          -2.133 -19.058 -23.378  0.00  0.00     0.210 HD
ENDBRANCH  27  29
BRANCH  27  31
ATOM     31  CAS DSK d          -2.945 -21.963 -22.437  0.00  0.00     0.090 C 
ATOM     32  H23 DSK d          -3.369 -22.344 -23.378  0.00  0.00     0.091 H 
BRANCH  31  33
ATOM     33  OAH DSK d          -3.624 -22.579 -21.343  0.00  0.00    -0.390 OA
ATOM     34  H8  DSK d          -4.298 -23.158 -21.677  0.00  0.00     0.210 HD
ENDBRANCH  31  33
BRANCH  31  35
ATOM     35  CAQ DSK d          -1.468 -22.349 -22.381  0.00  0.00     0.089 C 
ATOM     36  H21 DSK d          -0.942 -21.704 -21.662  0.00  0.00     0.091 H 
BRANCH  35  37
ATOM     37  OAF DSK d          -0.919 -22.182 -23.693  0.00  0.00    -0.390 OA
ATOM     38  H6  DSK d          -0.086 -22.635 -23.746  0.00  0.00     0.210 HD
ENDBRANCH  35  37
BRANCH  35  39
ATOM     39  CAN DSK d          -1.302 -23.828 -21.970  0.00  0.00     0.083 C 
ATOM     40  H18 DSK d          -1.590 -23.950 -20.916  0.00  0.00     0.090 H 
BRANCH  39  41
ATOM     41  OAC DSK d          -2.151 -24.640 -22.794  0.00  0.00    -0.391 OA
ATOM     42  H3  DSK d          -1.647 -25.359 -23.156  0.00  0.00     0.210 HD
ENDBRANCH  39  41
BRANCH  39  43
ATOM     43  CAJ DSK d           0.162 -24.252 -22.145  0.00  0.00     0.043 C 
ATOM     44  H10 DSK d           0.462 -24.907 -21.313  0.00  0.00     0.078 H 
ATOM     45  H11 DSK d           0.283 -24.789 -23.097  0.00  0.00     0.078 H 
BRANCH  43  46
ATOM     46  OAA DSK d           0.964 -23.083 -22.148  0.00  0.00    -0.398 OA
ATOM     47  H1  DSK d           1.573 -23.119 -22.876  0.00  0.00     0.209 HD
ENDBRANCH  43  46
ENDBRANCH  39  43
ENDBRANCH  35  39
ENDBRANCH  31  35
ENDBRANCH  27  31
ENDBRANCH   1  27
TORSDOF 17
ENDMDL
MODEL 6
REMARK VINA RESULT:      -4.6      2.103      3.716
REMARK  17 active torsions:
REMARK  status: ('A' for Active; 'I' for Inactive)
REMARK    1  A    between atoms: CAJ_10  and  OAA_1 
REMARK    2  A    between atoms: CAK_11  and  OAB_2 
REMARK    3  A    between atoms: CAN_14  and  OAC_3 
REMARK    4  A    between atoms: CAO_15  and  OAD_4 
REMARK    5  A    between atoms: CAP_16  and  OAE_5 
REMARK    6  A    between atoms: CAQ_17  and  OAF_6 
REMARK    7  A    between atoms: CAR_18  and  OAG_7 
REMARK    8  A    between atoms: CAS_19  and  OAH_8 
REMARK    9  A    between atoms: CAT_20  and  OAI_9 
REMARK   10  A    between atoms: CAN_14  and  CAJ_10 
REMARK   11  A    between atoms: CAU_21  and  CAK_11 
REMARK   12  A    between atoms: CAL_12  and  CAO_15 
REMARK   13  A    between atoms: SAV_22  and  CAL_12 
REMARK   14  A    between atoms: CAQ_17  and  CAN_14 
REMARK   15  A    between atoms: CAO_15  and  CAR_18 
REMARK   16  A    between atoms: CAS_19  and  CAQ_17 
REMARK   17  A    between atoms: CAR_18  and  CAS_19 
ROOT
ATOM      1  CAO DSK d          -4.152 -23.996 -22.574  0.00  0.00     0.070 C 
ATOM      2  H19 DSK d          -3.755 -24.569 -23.425  0.00  0.00     0.088 H 
ENDROOT
BRANCH   1   3
ATOM      3  OAD DSK d          -5.508 -24.372 -22.381  0.00  0.00    -0.392 OA
ATOM      4  H4  DSK d          -5.554 -25.074 -21.743  0.00  0.00     0.210 HD
ENDBRANCH   1   3
BRANCH   1   5
ATOM      5  CAL DSK d          -3.286 -24.353 -21.326  0.00  0.00    -0.005 C 
ATOM      6  H14 DSK d          -3.817 -25.105 -20.725  0.00  0.00     0.051 H 
ATOM      7  H15 DSK d          -3.135 -23.444 -20.725  0.00  0.00     0.051 H 
BRANCH   5   8
ATOM      8  SAV DSK d          -1.671 -25.016 -21.805  0.00  0.00    -0.206 SA
ATOM      9  CAM DSK d          -0.691 -25.527 -20.334  0.00  0.00    -0.005 C 
ATOM     10  CAP DSK d          -0.081 -24.178 -19.902  0.00  0.00     0.069 C 
ATOM     11  H16 DSK d          -1.334 -25.950 -19.548  0.00  0.00     0.051 H 
ATOM     12  H17 DSK d           0.088 -26.257 -20.602  0.00  0.00     0.051 H 
ATOM     13  CAT DSK d           0.505 -23.609 -21.223  0.00  0.00     0.074 C 
ATOM     14  H20 DSK d          -0.857 -23.516 -19.490  0.00  0.00     0.088 H 
ATOM     15  CAU DSK d          -0.708 -23.502 -22.190  0.00  0.00     0.030 C 
ATOM     16  H24 DSK d           1.292 -24.255 -21.639  0.00  0.00     0.088 H 
ATOM     17  H25 DSK d          -1.307 -22.624 -21.907  0.00  0.00     0.062 H 
BRANCH  10  18
ATOM     18  OAE DSK d           0.994 -24.335 -18.927  0.00  0.00    -0.392 OA
ATOM     19  H5  DSK d           0.643 -24.229 -18.050  0.00  0.00     0.210 HD
ENDBRANCH  10  18
BRANCH  13  20
ATOM     20  OAI DSK d           1.020 -22.305 -20.921  0.00  0.00    -0.392 OA
ATOM     21  H9  DSK d           0.622 -21.988 -20.117  0.00  0.00     0.210 HD
ENDBRANCH  13  20
BRANCH  15  22
ATOM     22  CAK DSK d          -0.346 -23.314 -23.690  0.00  0.00     0.030 C 
ATOM     23  H12 DSK d           0.722 -23.545 -23.820  0.00  0.00     0.075 H 
ATOM     24  H13 DSK d          -0.949 -24.017 -24.283  0.00  0.00     0.075 H 
BRANCH  22  25
ATOM     25  OAB DSK d          -0.584 -21.991 -24.181  0.00  0.00    -0.400 OA
ATOM     26  H2  DSK d           0.005 -21.812 -24.904  0.00  0.00     0.209 HD
ENDBRANCH  22  25
ENDBRANCH  15  22
ENDBRANCH   5   8
ENDBRANCH   1   5
BRANCH   1  27
ATOM     27  CAR DSK d          -4.093 -22.515 -22.939  0.00  0.00     0.088 C 
ATOM     28  H22 DSK d          -3.259 -22.312 -23.627  0.00  0.00     0.091 H 
BRANCH  27  29
ATOM     29  OAG DSK d          -5.367 -22.210 -23.534  0.00  0.00    -0.390 OA
ATOM     30  H7  DSK d          -5.383 -22.532 -24.427  0.00  0.00     0.210 HD
ENDBRANCH  27  29
BRANCH  27  31
ATOM     31  CAS DSK d          -3.989 -21.640 -21.668  0.00  0.00     0.090 C 
ATOM     32  H23 DSK d          -3.309 -22.141 -20.962  0.00  0.00     0.091 H 
BRANCH  31  33
ATOM     33  OAH DSK d          -5.270 -21.505 -21.056  0.00  0.00    -0.390 OA
ATOM     34  H8  DSK d          -5.434 -22.256 -20.499  0.00  0.00     0.210 HD
ENDBRANCH  31  33
BRANCH  31  35
ATOM     35  CAQ DSK d          -3.435 -20.249 -21.968  0.00  0.00     0.089 C 
ATOM     36  H21 DSK d          -4.263 -19.556 -22.176  0.00  0.00     0.091 H 
BRANCH  35  37
ATOM     37  OAF DSK d          -2.576 -20.352 -23.109  0.00  0.00    -0.390 OA
ATOM     38  H6  DSK d          -2.766 -21.157 -23.575  0.00  0.00     0.210 HD
ENDBRANCH  35  37
BRANCH  35  39
ATOM     39  CAN DSK d          -2.602 -19.721 -20.779  0.00  0.00     0.083 C 
ATOM     40  H18 DSK d          -3.135 -19.926 -19.839  0.00  0.00     0.090 H 
BRANCH  39  41
ATOM     41  OAC DSK d          -1.333 -20.392 -20.765  0.00  0.00    -0.391 OA
ATOM     42  H3  DSK d          -1.358 -21.126 -21.366  0.00  0.00     0.210 HD
ENDBRANCH  39  41
BRANCH  39  43
ATOM     43  CAJ DSK d          -2.396 -18.208 -20.923  0.00  0.00     0.043 C 
ATOM     44  H10 DSK d          -3.348 -17.727 -21.194  0.00  0.00     0.078 H 
ATOM     45  H11 DSK d          -2.031 -17.789 -19.974  0.00  0.00     0.078 H 
BRANCH  43  46
ATOM     46  OAA DSK d          -1.438 -17.987 -21.945  0.00  0.00    -0.398 OA
ATOM     47  H1  DSK d          -1.644 -17.180 -22.402  0.00  0.00     0.209 HD
ENDBRANCH  43  46
ENDBRANCH  39  43
ENDBRANCH  35  39
ENDBRANCH  31  35
ENDBRANCH  27  31
ENDBRANCH   1  27
TORSDOF 17
ENDMDL
MODEL 7
REMARK VINA RESULT:      -4.5      2.160      3.072
REMARK  17 active torsions:
REMARK  status: ('A' for Active; 'I' for Inactive)
REMARK    1  A    between atoms: CAJ_10  and  OAA_1 
REMARK    2  A    between atoms: CAK_11  and  OAB_2 
REMARK    3  A    between atoms: CAN_14  and  OAC_3 
REMARK    4  A    between atoms: CAO_15  and  OAD_4 
REMARK    5  A    between atoms: CAP_16  and  OAE_5 
REMARK    6  A    between atoms: CAQ_17  and  OAF_6 
REMARK    7  A    between atoms: CAR_18  and  OAG_7 
REMARK    8  A    between atoms: CAS_19  and  OAH_8 
REMARK    9  A    between atoms: CAT_20  and  OAI_9 
REMARK   10  A    between atoms: CAN_14  and  CAJ_10 
REMARK   11  A    between atoms: CAU_21  and  CAK_11 
REMARK   12  A    between atoms: CAL_12  and  CAO_15 
REMARK   13  A    between atoms: SAV_22  and  CAL_12 
REMARK   14  A    between atoms: CAQ_17  and  CAN_14 
REMARK   15  A    between atoms: CAO_15  and  CAR_18 
REMARK   16  A    between atoms: CAS_19  and  CAQ_17 
REMARK   17  A    between atoms: CAR_18  and  CAS_19 
ROOT
ATOM      1  CAO DSK d          -2.576 -19.771 -20.543  0.00  0.00     0.070 C 
ATOM      2  H19 DSK d          -3.634 -19.480 -20.624  0.00  0.00     0.088 H 
ENDROOT
BRANCH   1   3
ATOM      3  OAD DSK d          -2.345 -20.238 -19.221  0.00  0.00    -0.392 OA
ATOM      4  H4  DSK d          -3.088 -20.015 -18.673  0.00  0.00     0.210 HD
ENDBRANCH   1   3
BRANCH   1   5
ATOM      5  CAL DSK d          -2.319 -20.897 -21.592  0.00  0.00    -0.005 C 
ATOM      6  H14 DSK d          -1.653 -21.652 -21.149  0.00  0.00     0.051 H 
ATOM      7  H15 DSK d          -1.837 -20.458 -22.477  0.00  0.00     0.051 H 
BRANCH   5   8
ATOM      8  SAV DSK d          -3.862 -21.698 -22.098  0.00  0.00    -0.206 SA
ATOM      9  CAM DSK d          -5.105 -21.680 -20.743  0.00  0.00    -0.005 C 
ATOM     10  CAP DSK d          -4.663 -22.908 -19.920  0.00  0.00     0.069 C 
ATOM     11  H16 DSK d          -5.045 -20.754 -20.152  0.00  0.00     0.051 H 
ATOM     12  H17 DSK d          -6.127 -21.800 -21.131  0.00  0.00     0.051 H 
ATOM     13  CAT DSK d          -4.512 -24.023 -20.990  0.00  0.00     0.074 C 
ATOM     14  H20 DSK d          -3.708 -22.709 -19.411  0.00  0.00     0.088 H 
ATOM     15  CAU DSK d          -3.448 -23.482 -21.989  0.00  0.00     0.030 C 
ATOM     16  H24 DSK d          -5.463 -24.240 -21.498  0.00  0.00     0.088 H 
ATOM     17  H25 DSK d          -2.454 -23.585 -21.532  0.00  0.00     0.062 H 
BRANCH  10  18
ATOM     18  OAE DSK d          -5.664 -23.315 -18.938  0.00  0.00    -0.392 OA
ATOM     19  H5  DSK d          -5.277 -23.937 -18.333  0.00  0.00     0.210 HD
ENDBRANCH  10  18
BRANCH  13  20
ATOM     20  OAI DSK d          -4.016 -25.184 -20.313  0.00  0.00    -0.392 OA
ATOM     21  H9  DSK d          -3.150 -25.001 -19.965  0.00  0.00     0.210 HD
ENDBRANCH  13  20
BRANCH  15  22
ATOM     22  CAK DSK d          -3.378 -24.228 -23.350  0.00  0.00     0.030 C 
ATOM     23  H12 DSK d          -2.915 -25.213 -23.182  0.00  0.00     0.075 H 
ATOM     24  H13 DSK d          -4.403 -24.364 -23.725  0.00  0.00     0.075 H 
BRANCH  22  25
ATOM     25  OAB DSK d          -2.620 -23.539 -24.350  0.00  0.00    -0.400 OA
ATOM     26  H2  DSK d          -1.962 -22.997 -23.930  0.00  0.00     0.209 HD
ENDBRANCH  22  25
ENDBRANCH  15  22
ENDBRANCH   5   8
ENDBRANCH   1   5
BRANCH   1  27
ATOM     27  CAR DSK d          -1.729 -18.524 -20.785  0.00  0.00     0.088 C 
ATOM     28  H22 DSK d          -0.691 -18.683 -20.457  0.00  0.00     0.091 H 
BRANCH  27  29
ATOM     29  OAG DSK d          -1.813 -18.264 -22.197  0.00  0.00    -0.390 OA
ATOM     30  H7  DSK d          -2.680 -18.495 -22.509  0.00  0.00     0.210 HD
ENDBRANCH  27  29
BRANCH  27  31
ATOM     31  CAS DSK d          -2.349 -17.294 -20.081  0.00  0.00     0.090 C 
ATOM     32  H23 DSK d          -3.058 -17.655 -19.321  0.00  0.00     0.091 H 
BRANCH  31  33
ATOM     33  OAH DSK d          -3.056 -16.490 -21.025  0.00  0.00    -0.390 OA
ATOM     34  H8  DSK d          -3.933 -16.836 -21.139  0.00  0.00     0.210 HD
ENDBRANCH  31  33
BRANCH  31  35
ATOM     35  CAQ DSK d          -1.296 -16.432 -19.389  0.00  0.00     0.089 C 
ATOM     36  H21 DSK d          -0.372 -17.013 -19.249  0.00  0.00     0.091 H 
BRANCH  35  37
ATOM     37  OAF DSK d          -1.822 -16.024 -18.121  0.00  0.00    -0.390 OA
ATOM     38  H6  DSK d          -1.678 -16.714 -17.483  0.00  0.00     0.210 HD
ENDBRANCH  35  37
BRANCH  35  39
ATOM     39  CAN DSK d          -0.991 -15.164 -20.218  0.00  0.00     0.083 C 
ATOM     40  H18 DSK d          -1.883 -14.882 -20.796  0.00  0.00     0.090 H 
BRANCH  39  41
ATOM     41  OAC DSK d          -0.644 -14.096 -19.324  0.00  0.00    -0.391 OA
ATOM     42  H3  DSK d          -0.694 -13.268 -19.787  0.00  0.00     0.210 HD
ENDBRANCH  39  41
BRANCH  39  43
ATOM     43  CAJ DSK d           0.169 -15.443 -21.182  0.00  0.00     0.043 C 
ATOM     44  H10 DSK d           0.821 -14.559 -21.244  0.00  0.00     0.078 H 
ATOM     45  H11 DSK d           0.752 -16.305 -20.824  0.00  0.00     0.078 H 
BRANCH  43  46
ATOM     46  OAA DSK d          -0.376 -15.729 -22.459  0.00  0.00    -0.398 OA
ATOM     47  H1  DSK d          -1.294 -15.954 -22.367  0.00  0.00     0.209 HD
ENDBRANCH  43  46
ENDBRANCH  39  43
ENDBRANCH  35  39
ENDBRANCH  31  35
ENDBRANCH  27  31
ENDBRANCH   1  27
TORSDOF 17
ENDMDL
MODEL 8
REMARK VINA RESULT:      -4.5      2.051      2.943
REMARK  17 active torsions:
REMARK  status: ('A' for Active; 'I' for Inactive)
REMARK    1  A    between atoms: CAJ_10  and  OAA_1 
REMARK    2  A    between atoms: CAK_11  and  OAB_2 
REMARK    3  A    between atoms: CAN_14  and  OAC_3 
REMARK    4  A    between atoms: CAO_15  and  OAD_4 
REMARK    5  A    between atoms: CAP_16  and  OAE_5 
REMARK    6  A    between atoms: CAQ_17  and  OAF_6 
REMARK    7  A    between atoms: CAR_18  and  OAG_7 
REMARK    8  A    between atoms: CAS_19  and  OAH_8 
REMARK    9  A    between atoms: CAT_20  and  OAI_9 
REMARK   10  A    between atoms: CAN_14  and  CAJ_10 
REMARK   11  A    between atoms: CAU_21  and  CAK_11 
REMARK   12  A    between atoms: CAL_12  and  CAO_15 
REMARK   13  A    between atoms: SAV_22  and  CAL_12 
REMARK   14  A    between atoms: CAQ_17  and  CAN_14 
REMARK   15  A    between atoms: CAO_15  and  CAR_18 
REMARK   16  A    between atoms: CAS_19  and  CAQ_17 
REMARK   17  A    between atoms: CAR_18  and  CAS_19 
ROOT
ATOM      1  CAO DSK d          -2.641 -19.954 -22.226  0.00  0.00     0.070 C 
ATOM      2  H19 DSK d          -1.643 -20.189 -22.624  0.00  0.00     0.088 H 
ENDROOT
BRANCH   1   3
ATOM      3  OAD DSK d          -3.262 -19.029 -23.107  0.00  0.00    -0.392 OA
ATOM      4  H4  DSK d          -2.823 -19.050 -23.949  0.00  0.00     0.210 HD
ENDBRANCH   1   3
BRANCH   1   5
ATOM      5  CAL DSK d          -3.443 -21.291 -22.158  0.00  0.00    -0.005 C 
ATOM      6  H14 DSK d          -4.346 -21.198 -22.778  0.00  0.00     0.051 H 
ATOM      7  H15 DSK d          -3.733 -21.481 -21.114  0.00  0.00     0.051 H 
BRANCH   5   8
ATOM      8  SAV DSK d          -2.459 -22.688 -22.759  0.00  0.00    -0.206 SA
ATOM      9  CAM DSK d          -3.482 -23.855 -23.746  0.00  0.00    -0.005 C 
ATOM     10  CAP DSK d          -4.121 -24.704 -22.628  0.00  0.00     0.069 C 
ATOM     11  H16 DSK d          -4.243 -23.326 -24.336  0.00  0.00     0.051 H 
ATOM     12  H17 DSK d          -2.861 -24.469 -24.415  0.00  0.00     0.051 H 
ATOM     13  CAT DSK d          -2.911 -25.096 -21.736  0.00  0.00     0.074 C 
ATOM     14  H20 DSK d          -4.858 -24.112 -22.064  0.00  0.00     0.088 H 
ATOM     15  CAU DSK d          -2.300 -23.744 -21.268  0.00  0.00     0.030 C 
ATOM     16  H24 DSK d          -2.173 -25.700 -22.284  0.00  0.00     0.088 H 
ATOM     17  H25 DSK d          -2.937 -23.329 -20.474  0.00  0.00     0.062 H 
BRANCH  10  18
ATOM     18  OAE DSK d          -4.757 -25.916 -23.137  0.00  0.00    -0.392 OA
ATOM     19  H5  DSK d          -4.910 -25.824 -24.070  0.00  0.00     0.210 HD
ENDBRANCH  10  18
BRANCH  13  20
ATOM     20  OAI DSK d          -3.437 -25.821 -20.617  0.00  0.00    -0.392 OA
ATOM     21  H9  DSK d          -3.941 -26.564 -20.931  0.00  0.00     0.210 HD
ENDBRANCH  13  20
BRANCH  15  22
ATOM     22  CAK DSK d          -0.868 -23.835 -20.672  0.00  0.00     0.030 C 
ATOM     23  H12 DSK d          -0.158 -23.990 -21.499  0.00  0.00     0.075 H 
ATOM     24  H13 DSK d          -0.641 -22.884 -20.168  0.00  0.00     0.075 H 
BRANCH  22  25
ATOM     25  OAB DSK d          -0.700 -24.898 -19.728  0.00  0.00    -0.400 OA
ATOM     26  H2  DSK d           0.196 -25.212 -19.764  0.00  0.00     0.209 HD
ENDBRANCH  22  25
ENDBRANCH  15  22
ENDBRANCH   5   8
ENDBRANCH   1   5
BRANCH   1  27
ATOM     27  CAR DSK d          -2.459 -19.297 -20.861  0.00  0.00     0.088 C 
ATOM     28  H22 DSK d          -3.357 -19.425 -20.238  0.00  0.00     0.091 H 
BRANCH  27  29
ATOM     29  OAG DSK d          -1.305 -19.925 -20.277  0.00  0.00    -0.390 OA
ATOM     30  H7  DSK d          -0.779 -19.270 -19.833  0.00  0.00     0.210 HD
ENDBRANCH  27  29
BRANCH  27  31
ATOM     31  CAS DSK d          -2.103 -17.799 -21.016  0.00  0.00     0.090 C 
ATOM     32  H23 DSK d          -3.029 -17.248 -21.237  0.00  0.00     0.091 H 
BRANCH  31  33
ATOM     33  OAH DSK d          -1.190 -17.618 -22.097  0.00  0.00    -0.390 OA
ATOM     34  H8  DSK d          -1.121 -16.693 -22.300  0.00  0.00     0.210 HD
ENDBRANCH  31  33
BRANCH  31  35
ATOM     35  CAQ DSK d          -1.487 -17.217 -19.746  0.00  0.00     0.089 C 
ATOM     36  H21 DSK d          -0.435 -17.528 -19.666  0.00  0.00     0.091 H 
BRANCH  35  37
ATOM     37  OAF DSK d          -2.235 -17.706 -18.627  0.00  0.00    -0.390 OA
ATOM     38  H6  DSK d          -2.794 -18.421 -18.909  0.00  0.00     0.210 HD
ENDBRANCH  35  37
BRANCH  35  39
ATOM     39  CAN DSK d          -1.573 -15.675 -19.750  0.00  0.00     0.083 C 
ATOM     40  H18 DSK d          -2.325 -15.352 -20.484  0.00  0.00     0.090 H 
BRANCH  39  41
ATOM     41  OAC DSK d          -1.959 -15.226 -18.443  0.00  0.00    -0.391 OA
ATOM     42  H3  DSK d          -2.374 -15.939 -17.973  0.00  0.00     0.210 HD
ENDBRANCH  39  41
BRANCH  39  43
ATOM     43  CAJ DSK d          -0.210 -15.082 -20.129  0.00  0.00     0.043 C 
ATOM     44  H10 DSK d          -0.036 -14.156 -19.561  0.00  0.00     0.078 H 
ATOM     45  H11 DSK d           0.587 -15.806 -19.905  0.00  0.00     0.078 H 
BRANCH  43  46
ATOM     46  OAA DSK d          -0.222 -14.797 -21.518  0.00  0.00    -0.398 OA
ATOM     47  H1  DSK d           0.650 -14.543 -21.796  0.00  0.00     0.209 HD
ENDBRANCH  43  46
ENDBRANCH  39  43
ENDBRANCH  35  39
ENDBRANCH  31  35
ENDBRANCH  27  31
ENDBRANCH   1  27
TORSDOF 17
ENDMDL
MODEL 9
REMARK VINA RESULT:      -4.2      2.251      6.819
REMARK  17 active torsions:
REMARK  status: ('A' for Active; 'I' for Inactive)
REMARK    1  A    between atoms: CAJ_10  and  OAA_1 
REMARK    2  A    between atoms: CAK_11  and  OAB_2 
REMARK    3  A    between atoms: CAN_14  and  OAC_3 
REMARK    4  A    between atoms: CAO_15  and  OAD_4 
REMARK    5  A    between atoms: CAP_16  and  OAE_5 
REMARK    6  A    between atoms: CAQ_17  and  OAF_6 
REMARK    7  A    between atoms: CAR_18  and  OAG_7 
REMARK    8  A    between atoms: CAS_19  and  OAH_8 
REMARK    9  A    between atoms: CAT_20  and  OAI_9 
REMARK   10  A    between atoms: CAN_14  and  CAJ_10 
REMARK   11  A    between atoms: CAU_21  and  CAK_11 
REMARK   12  A    between atoms: CAL_12  and  CAO_15 
REMARK   13  A    between atoms: SAV_22  and  CAL_12 
REMARK   14  A    between atoms: CAQ_17  and  CAN_14 
REMARK   15  A    between atoms: CAO_15  and  CAR_18 
REMARK   16  A    between atoms: CAS_19  and  CAQ_17 
REMARK   17  A    between atoms: CAR_18  and  CAS_19 
ROOT
ATOM      1  CAO DSK d          -2.278 -19.989 -20.853  0.00  0.00     0.070 C 
ATOM      2  H19 DSK d          -1.233 -20.331 -20.878  0.00  0.00     0.088 H 
ENDROOT
BRANCH   1   3
ATOM      3  OAD DSK d          -2.816 -20.299 -19.575  0.00  0.00    -0.392 OA
ATOM      4  H4  DSK d          -3.672 -20.696 -19.680  0.00  0.00     0.210 HD
ENDBRANCH   1   3
BRANCH   1   5
ATOM      5  CAL DSK d          -2.271 -18.448 -21.102  0.00  0.00    -0.005 C 
ATOM      6  H14 DSK d          -3.288 -18.057 -20.950  0.00  0.00     0.051 H 
ATOM      7  H15 DSK d          -1.956 -18.255 -22.138  0.00  0.00     0.051 H 
BRANCH   5   8
ATOM      8  SAV DSK d          -1.138 -17.597 -19.974  0.00  0.00    -0.206 SA
ATOM      9  CAM DSK d          -1.950 -17.216 -18.368  0.00  0.00    -0.005 C 
ATOM     10  CAP DSK d          -2.690 -15.907 -18.715  0.00  0.00     0.069 C 
ATOM     11  H16 DSK d          -2.651 -18.010 -18.071  0.00  0.00     0.051 H 
ATOM     12  H17 DSK d          -1.210 -17.063 -17.568  0.00  0.00     0.051 H 
ATOM     13  CAT DSK d          -1.594 -15.045 -19.399  0.00  0.00     0.074 C 
ATOM     14  H20 DSK d          -3.528 -16.105 -19.399  0.00  0.00     0.088 H 
ATOM     15  CAU DSK d          -1.128 -15.883 -20.625  0.00  0.00     0.030 C 
ATOM     16  H24 DSK d          -0.755 -14.829 -18.722  0.00  0.00     0.088 H 
ATOM     17  H25 DSK d          -1.890 -15.802 -21.414  0.00  0.00     0.062 H 
BRANCH  10  18
ATOM     18  OAE DSK d          -3.181 -15.210 -17.530  0.00  0.00    -0.392 OA
ATOM     19  H5  DSK d          -2.745 -14.369 -17.455  0.00  0.00     0.210 HD
ENDBRANCH  10  18
BRANCH  13  20
ATOM     20  OAI DSK d          -2.228 -13.835 -19.832  0.00  0.00    -0.392 OA
ATOM     21  H9  DSK d          -1.613 -13.322 -20.344  0.00  0.00     0.210 HD
ENDBRANCH  13  20
BRANCH  15  22
ATOM     22  CAK DSK d           0.211 -15.428 -21.269  0.00  0.00     0.030 C 
ATOM     23  H12 DSK d           0.740 -16.320 -21.635  0.00  0.00     0.075 H 
ATOM     24  H13 DSK d          -0.019 -14.764 -22.115  0.00  0.00     0.075 H 
BRANCH  22  25
ATOM     25  OAB DSK d           1.077 -14.728 -20.370  0.00  0.00    -0.400 OA
ATOM     26  H2  DSK d           1.871 -14.478 -20.827  0.00  0.00     0.209 HD
ENDBRANCH  22  25
ENDBRANCH  15  22
ENDBRANCH   5   8
ENDBRANCH   1   5
BRANCH   1  27
ATOM     27  CAR DSK d          -3.050 -20.763 -21.918  0.00  0.00     0.088 C 
ATOM     28  H22 DSK d          -4.122 -20.807 -21.674  0.00  0.00     0.091 H 
BRANCH  27  29
ATOM     29  OAG DSK d          -2.808 -20.070 -23.155  0.00  0.00    -0.390 OA
ATOM     30  H7  DSK d          -2.622 -20.702 -23.839  0.00  0.00     0.210 HD
ENDBRANCH  27  29
BRANCH  27  31
ATOM     31  CAS DSK d          -2.465 -22.183 -22.097  0.00  0.00     0.090 C 
ATOM     32  H23 DSK d          -1.457 -22.197 -21.655  0.00  0.00     0.091 H 
BRANCH  31  33
ATOM     33  OAH DSK d          -2.364 -22.505 -23.483  0.00  0.00    -0.390 OA
ATOM     34  H8  DSK d          -2.307 -21.703 -23.989  0.00  0.00     0.210 HD
ENDBRANCH  31  33
BRANCH  31  35
ATOM     35  CAQ DSK d          -3.310 -23.249 -21.403  0.00  0.00     0.089 C 
ATOM     36  H21 DSK d          -3.589 -24.031 -22.124  0.00  0.00     0.091 H 
BRANCH  35  37
ATOM     37  OAF DSK d          -4.483 -22.613 -20.882  0.00  0.00    -0.390 OA
ATOM     38  H6  DSK d          -5.241 -22.889 -21.384  0.00  0.00     0.210 HD
ENDBRANCH  35  37
BRANCH  35  39
ATOM     39  CAN DSK d          -2.538 -23.882 -20.224  0.00  0.00     0.083 C 
ATOM     40  H18 DSK d          -2.175 -24.878 -20.516  0.00  0.00     0.090 H 
BRANCH  39  41
ATOM     41  OAC DSK d          -1.420 -23.044 -19.896  0.00  0.00    -0.391 OA
ATOM     42  H3  DSK d          -0.639 -23.380 -20.319  0.00  0.00     0.210 HD
ENDBRANCH  39  41
BRANCH  39  43
ATOM     43  CAJ DSK d          -3.467 -24.019 -19.011  0.00  0.00     0.043 C 
ATOM     44  H10 DSK d          -4.495 -24.216 -19.350  0.00  0.00     0.078 H 
ATOM     45  H11 DSK d          -3.126 -24.847 -18.372  0.00  0.00     0.078 H 
BRANCH  43  46
ATOM     46  OAA DSK d          -3.426 -22.803 -18.283  0.00  0.00    -0.398 OA
ATOM     47  H1  DSK d          -4.280 -22.388 -18.314  0.00  0.00     0.209 HD
ENDBRANCH  43  46
ENDBRANCH  39  43
ENDBRANCH  35  39
ENDBRANCH  31  35
ENDBRANCH  27  31
ENDBRANCH   1  27
TORSDOF 17
ENDMDL
MODEL 10
REMARK VINA RESULT:      -4.2      2.320      3.038
REMARK  17 active torsions:
REMARK  status: ('A' for Active; 'I' for Inactive)
REMARK    1  A    between atoms: CAJ_10  and  OAA_1 
REMARK    2  A    between atoms: CAK_11  and  OAB_2 
REMARK    3  A    between atoms: CAN_14  and  OAC_3 
REMARK    4  A    between atoms: CAO_15  and  OAD_4 
REMARK    5  A    between atoms: CAP_16  and  OAE_5 
REMARK    6  A    between atoms: CAQ_17  and  OAF_6 
REMARK    7  A    between atoms: CAR_18  and  OAG_7 
REMARK    8  A    between atoms: CAS_19  and  OAH_8 
REMARK    9  A    between atoms: CAT_20  and  OAI_9 
REMARK   10  A    between atoms: CAN_14  and  CAJ_10 
REMARK   11  A    between atoms: CAU_21  and  CAK_11 
REMARK   12  A    between atoms: CAL_12  and  CAO_15 
REMARK   13  A    between atoms: SAV_22  and  CAL_12 
REMARK   14  A    between atoms: CAQ_17  and  CAN_14 
REMARK   15  A    between atoms: CAO_15  and  CAR_18 
REMARK   16  A    between atoms: CAS_19  and  CAQ_17 
REMARK   17  A    between atoms: CAR_18  and  CAS_19 
ROOT
ATOM      1  CAO DSK d          -2.479 -20.138 -21.064  0.00  0.00     0.070 C 
ATOM      2  H19 DSK d          -3.213 -19.933 -20.270  0.00  0.00     0.088 H 
ENDROOT
BRANCH   1   3
ATOM      3  OAD DSK d          -1.405 -20.874 -20.496  0.00  0.00    -0.392 OA
ATOM      4  H4  DSK d          -0.985 -20.351 -19.823  0.00  0.00     0.210 HD
ENDBRANCH   1   3
BRANCH   1   5
ATOM      5  CAL DSK d          -3.206 -20.965 -22.170  0.00  0.00    -0.005 C 
ATOM      6  H14 DSK d          -2.503 -21.701 -22.585  0.00  0.00     0.051 H 
ATOM      7  H15 DSK d          -3.536 -20.283 -22.967  0.00  0.00     0.051 H 
BRANCH   5   8
ATOM      8  SAV DSK d          -4.648 -21.837 -21.507  0.00  0.00    -0.206 SA
ATOM      9  CAM DSK d          -4.340 -22.442 -19.797  0.00  0.00    -0.005 C 
ATOM     10  CAP DSK d          -3.592 -23.761 -20.081  0.00  0.00     0.069 C 
ATOM     11  H16 DSK d          -3.717 -21.739 -19.226  0.00  0.00     0.051 H 
ATOM     12  H17 DSK d          -5.282 -22.619 -19.256  0.00  0.00     0.051 H 
ATOM     13  CAT DSK d          -4.488 -24.462 -21.139  0.00  0.00     0.074 C 
ATOM     14  H20 DSK d          -2.586 -23.558 -20.479  0.00  0.00     0.088 H 
ATOM     15  CAU DSK d          -4.551 -23.471 -22.336  0.00  0.00     0.030 C 
ATOM     16  H24 DSK d          -5.493 -24.682 -20.749  0.00  0.00     0.088 H 
ATOM     17  H25 DSK d          -3.601 -23.528 -22.888  0.00  0.00     0.062 H 
BRANCH  10  18
ATOM     18  OAE DSK d          -3.487 -24.611 -18.899  0.00  0.00    -0.392 OA
ATOM     19  H5  DSK d          -3.773 -24.126 -18.134  0.00  0.00     0.210 HD
ENDBRANCH  10  18
BRANCH  13  20
ATOM     20  OAI DSK d          -3.812 -25.667 -21.522  0.00  0.00    -0.392 OA
ATOM     21  H9  DSK d          -4.329 -26.418 -21.254  0.00  0.00     0.210 HD
ENDBRANCH  13  20
BRANCH  15  22
ATOM     22  CAK DSK d          -5.673 -23.754 -23.373  0.00  0.00     0.030 C 
ATOM     23  H12 DSK d          -5.859 -24.838 -23.395  0.00  0.00     0.075 H 
ATOM     24  H13 DSK d          -6.585 -23.232 -23.047  0.00  0.00     0.075 H 
BRANCH  22  25
ATOM     25  OAB DSK d          -5.357 -23.322 -24.700  0.00  0.00    -0.400 OA
ATOM     26  H2  DSK d          -4.467 -23.580 -24.912  0.00  0.00     0.209 HD
ENDBRANCH  22  25
ENDBRANCH  15  22
ENDBRANCH   5   8
ENDBRANCH   1   5
BRANCH   1  27
ATOM     27  CAR DSK d          -1.951 -18.798 -21.569  0.00  0.00     0.088 C 
ATOM     28  H22 DSK d          -1.258 -18.939 -22.412  0.00  0.00     0.091 H 
BRANCH  27  29
ATOM     29  OAG DSK d          -3.113 -18.040 -21.951  0.00  0.00    -0.390 OA
ATOM     30  H7  DSK d          -2.840 -17.238 -22.380  0.00  0.00     0.210 HD
ENDBRANCH  27  29
BRANCH  27  31
ATOM     31  CAS DSK d          -1.276 -18.006 -20.425  0.00  0.00     0.090 C 
ATOM     32  H23 DSK d          -0.249 -18.382 -20.308  0.00  0.00     0.091 H 
BRANCH  31  33
ATOM     33  OAH DSK d          -1.982 -18.208 -19.202  0.00  0.00    -0.390 OA
ATOM     34  H8  DSK d          -2.422 -17.404 -18.955  0.00  0.00     0.210 HD
ENDBRANCH  31  33
BRANCH  31  35
ATOM     35  CAQ DSK d          -1.213 -16.508 -20.716  0.00  0.00     0.089 C 
ATOM     36  H21 DSK d          -2.164 -16.034 -20.436  0.00  0.00     0.091 H 
BRANCH  35  37
ATOM     37  OAF DSK d          -0.969 -16.341 -22.118  0.00  0.00    -0.390 OA
ATOM     38  H6  DSK d          -1.794 -16.375 -22.588  0.00  0.00     0.210 HD
ENDBRANCH  35  37
BRANCH  35  39
ATOM     39  CAN DSK d          -0.053 -15.846 -19.940  0.00  0.00     0.083 C 
ATOM     40  H18 DSK d           0.220 -16.476 -19.082  0.00  0.00     0.090 H 
BRANCH  39  41
ATOM     41  OAC DSK d           1.077 -15.713 -20.814  0.00  0.00    -0.391 OA
ATOM     42  H3  DSK d           1.279 -16.557 -21.200  0.00  0.00     0.210 HD
ENDBRANCH  39  41
BRANCH  39  43
ATOM     43  CAJ DSK d          -0.492 -14.466 -19.433  0.00  0.00     0.043 C 
ATOM     44  H10 DSK d          -0.219 -14.355 -18.373  0.00  0.00     0.078 H 
ATOM     45  H11 DSK d          -0.001 -13.679 -20.024  0.00  0.00     0.078 H 
BRANCH  43  46
ATOM     46  OAA DSK d          -1.899 -14.368 -19.579  0.00  0.00    -0.398 OA
ATOM     47  H1  DSK d          -2.200 -15.031 -20.190  0.00  0.00     0.209 HD
ENDBRANCH  43  46
ENDBRANCH  39  43
ENDBRANCH  35  39
ENDBRANCH  31  35
ENDBRANCH  27  31
ENDBRANCH   1  27
TORSDOF 17
ENDMDL
