REMARK  13 active torsions:
REMARK  status: ('A' for Active; 'I' for Inactive)
REMARK    1  A    between atoms: C_1  and  CA_4 
REMARK       I    between atoms: NAV_21  and  C_1 
REMARK    2  A    between atoms: CAH_9  and  CAL_13 
REMARK    3  A    between atoms: CAL_13  and  CAT_20 
REMARK    4  A    between atoms: CAL_13  and  CBZ_50 
REMARK    5  A    between atoms: CAL_13  and  CCA_51 
REMARK    6  A    between atoms: CAR_18  and  CAS_19 
REMARK    7  A    between atoms: CAZ_24  and  CAR_18 
REMARK    8  A    between atoms: CAX_22  and  NAV_21 
REMARK    9  A    between atoms: CAX_22  and  CAY_23 
REMARK       I    between atoms: CAY_23  and  NBK_35 
REMARK   10  A    between atoms: NBK_35  and  SBM_37 
REMARK   11  A    between atoms: SBM_37  and  CBN_38 
REMARK   12  A    between atoms: CBV_46  and  CBX_48 
REMARK   13  A    between atoms: CBV_46  and  CBY_49 
ROOT
ATOM      1  N   SU3 d         -15.079  -9.759  13.760  0.00  0.00    -0.334 N 
ATOM      2  CA  SU3 d         -13.707  -9.772  14.322  0.00  0.00     0.094 C 
ATOM      3  CB  SU3 d         -12.928 -10.636  13.350  0.00  0.00    -0.011 C 
ATOM      4  CG  SU3 d         -13.984 -11.650  12.871  0.00  0.00     0.067 C 
ATOM      5  CAF SU3 d         -16.062  -9.013  14.258  0.00  0.00     0.244 C 
ATOM      6  OAG SU3 d         -15.816  -8.230  15.184  0.00  0.00    -0.271 OA
ATOM      7  CAH SU3 d         -17.431  -9.000  13.591  0.00  0.00     0.098 C 
ATOM      8  NAI SU3 d         -18.400  -9.259  14.643  0.00  0.00    -0.323 N 
ATOM      9  CAJ SU3 d         -18.975 -10.438  14.767  0.00  0.00     0.361 C 
ATOM     10  OAK SU3 d         -19.822 -10.520  15.816  0.00  0.00    -0.303 OA
ATOM     11  OAM SU3 d         -18.804 -11.383  13.998  0.00  0.00    -0.238 OA
ATOM     12  CAO SU3 d         -13.500 -13.640  14.088  0.00  0.00     0.371 C 
ATOM     13  OAP SU3 d         -12.556 -13.871  13.328  0.00  0.00    -0.238 OA
ATOM     14  NAQ SU3 d         -13.740 -14.413  15.100  0.00  0.00    -0.278 N 
ATOM     15  CBB SU3 d         -13.068 -15.658  15.486  0.00  0.00     0.000 A 
ATOM     16  CBC SU3 d         -13.728 -16.078  16.765  0.00  0.00    -0.008 A 
ATOM     17  CBD SU3 d         -14.717 -15.155  17.097  0.00  0.00    -0.002 A 
ATOM     18  CBE SU3 d         -14.808 -14.071  16.048  0.00  0.00     0.001 A 
ATOM     19  CBF SU3 d         -13.478 -17.166  17.588  0.00  0.00    -0.071 A 
ATOM     20  CBG SU3 d         -14.225 -17.317  18.739  0.00  0.00    -0.082 A 
ATOM     21  CBH SU3 d         -15.219 -16.395  19.061  0.00  0.00    -0.076 A 
ATOM     22  CBI SU3 d         -15.489 -15.287  18.246  0.00  0.00    -0.046 A 
ATOM     23  CBJ SU3 d         -16.550 -14.233  18.640  0.00  0.00    -0.040 C 
ATOM     24  CBS SU3 d         -17.971 -14.673  18.847  0.00  0.00    -0.061 C 
ATOM     25  CBT SU3 d         -18.806 -13.390  18.904  0.00  0.00    -0.064 C 
ATOM     26  CBU SU3 d         -19.099 -12.845  17.500  0.00  0.00    -0.057 C 
ATOM     27  CBV SU3 d         -20.482 -12.212  17.398  0.00  0.00    -0.025 C 
ATOM     28  CBW SU3 d         -20.607 -11.705  15.992  0.00  0.00     0.037 C 
ATOM     29  CD1 SU3 d         -15.213 -10.772  12.676  0.00  0.00     0.023 C 
ATOM     30  OD2 SU3 d         -14.284 -12.555  13.946  0.00  0.00    -0.296 OA
ATOM     31  H1  SU3 d         -13.678 -10.197  15.336  0.00  0.00     0.088 H 
ATOM     32  H2  SU3 d         -12.092 -11.143  13.853  0.00  0.00     0.040 H 
ATOM     33  H3  SU3 d         -12.543 -10.039  12.510  0.00  0.00     0.040 H 
ATOM     34  H4  SU3 d         -13.681 -12.183  11.958  0.00  0.00     0.086 H 
ATOM     35  H5  SU3 d         -17.472  -9.819  12.858  0.00  0.00     0.088 H 
ATOM     36  H6  SU3 d         -18.635  -8.529  15.285  0.00  0.00     0.165 HD
ATOM     37  H19 SU3 d         -12.263 -16.167  14.958  0.00  0.00     0.113 H 
ATOM     38  H20 SU3 d         -15.502 -13.233  16.005  0.00  0.00     0.113 H 
ATOM     39  H21 SU3 d         -12.709 -17.886  17.332  0.00  0.00     0.084 H 
ATOM     40  H22 SU3 d         -14.037 -18.158  19.396  0.00  0.00     0.083 H 
ATOM     41  H23 SU3 d         -15.799 -16.538  19.966  0.00  0.00     0.084 H 
ATOM     42  H24 SU3 d         -16.560 -13.473  17.845  0.00  0.00     0.040 H 
ATOM     43  H25 SU3 d         -16.214 -13.774  19.581  0.00  0.00     0.040 H 
ATOM     44  H32 SU3 d         -18.065 -15.232  19.790  0.00  0.00     0.033 H 
ATOM     45  H33 SU3 d         -18.301 -15.307  18.011  0.00  0.00     0.033 H 
ATOM     46  H34 SU3 d         -18.253 -12.629  19.474  0.00  0.00     0.033 H 
ATOM     47  H35 SU3 d         -19.759 -13.606  19.409  0.00  0.00     0.033 H 
ATOM     48  H36 SU3 d         -19.036 -13.674  16.779  0.00  0.00     0.034 H 
ATOM     49  H37 SU3 d         -18.344 -12.085  17.252  0.00  0.00     0.034 H 
ATOM     50  H38 SU3 d         -20.255 -12.480  15.295  0.00  0.00     0.076 H 
ATOM     51  H39 SU3 d         -21.662 -11.475  15.782  0.00  0.00     0.076 H 
ATOM     52  H52 SU3 d         -15.204 -10.294  11.685  0.00  0.00     0.068 H 
ATOM     53  H53 SU3 d         -16.138 -11.356  12.793  0.00  0.00     0.068 H 
ENDROOT
BRANCH   2  54
ATOM     54  C   SU3 d         -13.219  -8.313  14.338  0.00  0.00     0.241 C 
ATOM     55  O   SU3 d         -13.339  -7.565  13.361  0.00  0.00    -0.271 OA
ATOM     56  NAV SU3 d         -12.575  -7.949  15.440  0.00  0.00    -0.341 N 
ATOM     57  H15 SU3 d         -12.293  -8.659  16.085  0.00  0.00     0.163 HD
BRANCH  56  58
ATOM     58  CAX SU3 d         -12.261  -6.564  15.752  0.00  0.00     0.119 A 
ATOM     59  CAZ SU3 d         -13.535  -5.732  16.100  0.00  0.00    -0.018 A 
ATOM     60  CBA SU3 d         -12.577  -6.135  17.194  0.00  0.00    -0.027 A 
ATOM     61  H16 SU3 d         -14.534  -6.185  16.020  0.00  0.00     0.044 H 
ATOM     62  H17 SU3 d         -11.956  -5.371  17.684  0.00  0.00     0.038 H 
ATOM     63  H18 SU3 d         -12.880  -6.891  17.934  0.00  0.00     0.038 H 
BRANCH  58  64
ATOM     64  CAY SU3 d         -11.025  -5.931  15.133  0.00  0.00     0.259 C 
ATOM     65  NBK SU3 d         -10.282  -6.709  14.395  0.00  0.00    -0.252 N 
ATOM     66  H26 SU3 d         -10.496  -7.676  14.260  0.00  0.00     0.181 HD
ATOM     67  OBL SU3 d         -10.784  -4.753  15.386  0.00  0.00    -0.270 OA
BRANCH  65  68
ATOM     68  SBM SU3 d          -9.015  -6.021  13.724  0.00  0.00     0.237 S 
ATOM     69  OBO SU3 d          -9.410  -4.962  12.768  0.00  0.00    -0.205 OA
ATOM     70  OBP SU3 d          -8.020  -5.567  14.698  0.00  0.00    -0.205 OA
BRANCH  68  71
ATOM     71  CBN SU3 d          -8.275  -7.332  12.756  0.00  0.00     0.063 A 
ATOM     72  CBQ SU3 d          -6.837  -7.064  12.297  0.00  0.00    -0.046 A 
ATOM     73  CBR SU3 d          -7.123  -8.016  13.456  0.00  0.00    -0.046 A 
ATOM     74  H28 SU3 d          -6.370  -6.087  12.488  0.00  0.00     0.035 H 
ATOM     75  H29 SU3 d          -6.482  -7.458  11.333  0.00  0.00     0.035 H 
ATOM     76  H30 SU3 d          -6.968  -9.098  13.328  0.00  0.00     0.035 H 
ATOM     77  H31 SU3 d          -6.855  -7.726  14.483  0.00  0.00     0.035 H 
ATOM     78  H27 SU3 d          -9.005  -7.871  12.133  0.00  0.00     0.066 H 
ENDBRANCH  68  71
ENDBRANCH  65  68
ENDBRANCH  58  64
BRANCH  59  79
ATOM     79  CAR SU3 d         -13.589  -4.251  15.744  0.00  0.00    -0.062 C 
ATOM     80  H7  SU3 d         -14.257  -3.737  16.451  0.00  0.00     0.033 H 
ATOM     81  H8  SU3 d         -12.577  -3.827  15.821  0.00  0.00     0.033 H 
BRANCH  79  82
ATOM     82  CAS SU3 d         -14.110  -4.039  14.325  0.00  0.00    -0.076 C 
ATOM     83  H9  SU3 d         -14.136  -2.962  14.101  0.00  0.00     0.027 H 
ATOM     84  H10 SU3 d         -15.124  -4.456  14.241  0.00  0.00     0.027 H 
ATOM     85  H11 SU3 d         -13.445  -4.546  13.611  0.00  0.00     0.027 H 
ENDBRANCH  79  82
ENDBRANCH  59  79
ENDBRANCH  56  58
ENDBRANCH   2  54
BRANCH   7  86
ATOM     86  CAL SU3 d         -17.739  -7.680  12.835  0.00  0.00    -0.022 C 
BRANCH  86  87
ATOM     87  CAT SU3 d         -19.070  -7.842  12.071  0.00  0.00    -0.067 C 
ATOM     88  H12 SU3 d         -19.298  -6.911  11.531  0.00  0.00     0.028 H 
ATOM     89  H13 SU3 d         -19.878  -8.060  12.785  0.00  0.00     0.028 H 
ATOM     90  H14 SU3 d         -18.982  -8.671  11.353  0.00  0.00     0.028 H 
ENDBRANCH  86  87
BRANCH  86  91
ATOM     91  CBZ SU3 d         -17.857  -6.470  13.753  0.00  0.00    -0.067 C 
ATOM     92  H46 SU3 d         -16.916  -6.337  14.307  0.00  0.00     0.028 H 
ATOM     93  H47 SU3 d         -18.682  -6.628  14.463  0.00  0.00     0.028 H 
ATOM     94  H48 SU3 d         -18.058  -5.571  13.151  0.00  0.00     0.028 H 
ENDBRANCH  86  91
BRANCH  86  95
ATOM     95  CCA SU3 d         -16.627  -7.433  11.802  0.00  0.00    -0.067 C 
ATOM     96  H49 SU3 d         -16.542  -8.307  11.139  0.00  0.00     0.028 H 
ATOM     97  H50 SU3 d         -15.671  -7.273  12.323  0.00  0.00     0.028 H 
ATOM     98  H51 SU3 d         -16.872  -6.542  11.205  0.00  0.00     0.028 H 
ENDBRANCH  86  95
ENDBRANCH   7  86
BRANCH  27  99
ATOM     99  CBX SU3 d         -21.587 -13.263  17.582  0.00  0.00    -0.067 C 
ATOM    100  H40 SU3 d         -21.540 -13.670  18.603  0.00  0.00     0.028 H 
ATOM    101  H41 SU3 d         -21.443 -14.077  16.856  0.00  0.00     0.028 H 
ATOM    102  H42 SU3 d         -22.569 -12.795  17.419  0.00  0.00     0.028 H 
ENDBRANCH  27  99
BRANCH  27 103
ATOM    103  CBY SU3 d         -20.646 -11.070  18.422  0.00  0.00    -0.067 C 
ATOM    104  H43 SU3 d         -19.847 -10.328  18.275  0.00  0.00     0.028 H 
ATOM    105  H44 SU3 d         -20.583 -11.479  19.441  0.00  0.00     0.028 H 
ATOM    106  H45 SU3 d         -21.625 -10.588  18.280  0.00  0.00     0.028 H 
ENDBRANCH  27 103
TORSDOF 13
