MODEL 1
REMARK VINA RESULT:     -10.8      0.000      0.000
REMARK  13 active torsions:
REMARK  status: ('A' for Active; 'I' for Inactive)
REMARK    1  A    between atoms: C_1  and  CA_4 
REMARK       I    between atoms: NAV_21  and  C_1 
REMARK    2  A    between atoms: CAH_9  and  CAL_13 
REMARK    3  A    between atoms: CAL_13  and  CAT_20 
REMARK    4  A    between atoms: CAL_13  and  CBZ_50 
REMARK    5  A    between atoms: CAL_13  and  CCA_51 
REMARK    6  A    between atoms: CAR_18  and  CAS_19 
REMARK    7  A    between atoms: CAZ_24  and  CAR_18 
REMARK    8  A    between atoms: CAX_22  and  NAV_21 
REMARK    9  A    between atoms: CAX_22  and  CAY_23 
REMARK       I    between atoms: CAY_23  and  NBK_35 
REMARK   10  A    between atoms: NBK_35  and  SBM_37 
REMARK   11  A    between atoms: SBM_37  and  CBN_38 
REMARK   12  A    between atoms: CBV_46  and  CBX_48 
REMARK   13  A    between atoms: CBV_46  and  CBY_49 
ROOT
ATOM      1  N   SU3 d         -15.079  -9.698  13.613  0.00  0.00    -0.334 N 
ATOM      2  CA  SU3 d         -13.688  -9.727  14.126  0.00  0.00     0.094 C 
ATOM      3  CB  SU3 d         -12.953 -10.597  13.126  0.00  0.00    -0.011 C 
ATOM      4  CG  SU3 d         -14.037 -11.599  12.683  0.00  0.00     0.067 C 
ATOM      5  CAF SU3 d         -16.036  -8.942  14.147  0.00  0.00     0.244 C 
ATOM      6  OAG SU3 d         -15.748  -8.164  15.065  0.00  0.00    -0.271 OA
ATOM      7  CAH SU3 d         -17.427  -8.913  13.529  0.00  0.00     0.098 C 
ATOM      8  NAI SU3 d         -18.361  -9.164  14.615  0.00  0.00    -0.323 N 
ATOM      9  CAJ SU3 d         -18.944 -10.337  14.757  0.00  0.00     0.361 C 
ATOM     10  OAK SU3 d         -19.754 -10.412  15.835  0.00  0.00    -0.303 OA
ATOM     11  OAM SU3 d         -18.810 -11.282  13.981  0.00  0.00    -0.238 OA
ATOM     12  CAO SU3 d         -13.531 -13.596  13.878  0.00  0.00     0.371 C 
ATOM     13  OAP SU3 d         -12.617 -13.836  13.085  0.00  0.00    -0.238 OA
ATOM     14  NAQ SU3 d         -13.744 -14.369  14.897  0.00  0.00    -0.278 N 
ATOM     15  CBB SU3 d         -13.072 -15.622  15.257  0.00  0.00     0.000 A 
ATOM     16  CBC SU3 d         -13.690 -16.037  16.558  0.00  0.00    -0.008 A 
ATOM     17  CBD SU3 d         -14.657 -15.104  16.926  0.00  0.00    -0.002 A 
ATOM     18  CBE SU3 d         -14.773 -14.017  15.883  0.00  0.00     0.001 A 
ATOM     19  CBF SU3 d         -13.423 -17.129  17.369  0.00  0.00    -0.071 A 
ATOM     20  CBG SU3 d         -14.130 -17.275  18.546  0.00  0.00    -0.082 A 
ATOM     21  CBH SU3 d         -15.102 -16.343  18.905  0.00  0.00    -0.076 A 
ATOM     22  CBI SU3 d         -15.389 -15.230  18.102  0.00  0.00    -0.046 A 
ATOM     23  CBJ SU3 d         -16.424 -14.166  18.535  0.00  0.00    -0.040 C 
ATOM     24  CBS SU3 d         -17.841 -14.591  18.792  0.00  0.00    -0.061 C 
ATOM     25  CBT SU3 d         -18.660 -13.299  18.880  0.00  0.00    -0.064 C 
ATOM     26  CBU SU3 d         -18.997 -12.748  17.489  0.00  0.00    -0.057 C 
ATOM     27  CBV SU3 d         -20.376 -12.100  17.437  0.00  0.00    -0.025 C 
ATOM     28  CBW SU3 d         -20.545 -11.589  16.037  0.00  0.00     0.037 C 
ATOM     29  CD1 SU3 d         -15.262 -10.707  12.533  0.00  0.00     0.023 C 
ATOM     30  OD2 SU3 d         -14.308 -12.503  13.766  0.00  0.00    -0.296 OA
ATOM     31  H1  SU3 d         -13.628 -10.154  15.138  0.00  0.00     0.088 H 
ATOM     32  H2  SU3 d         -12.106 -11.114  13.598  0.00  0.00     0.040 H 
ATOM     33  H3  SU3 d         -12.592 -10.002  12.274  0.00  0.00     0.040 H 
ATOM     34  H4  SU3 d         -13.772 -12.133  11.759  0.00  0.00     0.086 H 
ATOM     35  H5  SU3 d         -17.503  -9.730  12.797  0.00  0.00     0.088 H 
ATOM     36  H6  SU3 d         -18.565  -8.433  15.266  0.00  0.00     0.165 HD
ATOM     37  H19 SU3 d         -12.291 -16.138  14.700  0.00  0.00     0.113 H 
ATOM     38  H20 SU3 d         -15.459 -13.172  15.866  0.00  0.00     0.113 H 
ATOM     39  H21 SU3 d         -12.671 -17.857  17.085  0.00  0.00     0.084 H 
ATOM     40  H22 SU3 d         -13.928 -18.119  19.194  0.00  0.00     0.083 H 
ATOM     41  H23 SU3 d         -15.651 -16.482  19.829  0.00  0.00     0.084 H 
ATOM     42  H24 SU3 d         -16.454 -13.404  17.742  0.00  0.00     0.040 H 
ATOM     43  H25 SU3 d         -16.050 -13.713  19.464  0.00  0.00     0.040 H 
ATOM     44  H32 SU3 d         -17.908 -15.151  19.736  0.00  0.00     0.033 H 
ATOM     45  H33 SU3 d         -18.208 -15.220  17.967  0.00  0.00     0.033 H 
ATOM     46  H34 SU3 d         -18.079 -12.546  19.432  0.00  0.00     0.033 H 
ATOM     47  H35 SU3 d         -19.597 -13.506  19.419  0.00  0.00     0.033 H 
ATOM     48  H36 SU3 d         -18.968 -13.576  16.764  0.00  0.00     0.034 H 
ATOM     49  H37 SU3 d         -18.243 -11.996  17.215  0.00  0.00     0.034 H 
ATOM     50  H38 SU3 d         -20.226 -12.366  15.327  0.00  0.00     0.076 H 
ATOM     51  H39 SU3 d         -21.604 -11.347  15.865  0.00  0.00     0.076 H 
ATOM     52  H52 SU3 d         -15.283 -10.227  11.543  0.00  0.00     0.068 H 
ATOM     53  H53 SU3 d         -16.189 -11.281  12.682  0.00  0.00     0.068 H 
ENDROOT
BRANCH   2  54
ATOM     54  C   SU3 d         -13.184  -8.273  14.127  0.00  0.00     0.241 C 
ATOM     55  O   SU3 d         -13.128  -7.592  13.097  0.00  0.00    -0.271 OA
ATOM     56  NAV SU3 d         -12.725  -7.839  15.295  0.00  0.00    -0.341 N 
ATOM     57  H15 SU3 d         -12.567  -8.506  16.023  0.00  0.00     0.163 HD
BRANCH  56  58
ATOM     58  CAX SU3 d         -12.443  -6.438  15.563  0.00  0.00     0.119 A 
ATOM     59  CAZ SU3 d         -13.742  -5.575  15.631  0.00  0.00    -0.018 A 
ATOM     60  CBA SU3 d         -12.993  -5.909  16.898  0.00  0.00    -0.027 A 
ATOM     61  H16 SU3 d         -14.721  -6.026  15.411  0.00  0.00     0.044 H 
ATOM     62  H17 SU3 d         -12.450  -5.117  17.435  0.00  0.00     0.038 H 
ATOM     63  H18 SU3 d         -13.432  -6.610  17.623  0.00  0.00     0.038 H 
BRANCH  58  64
ATOM     64  CAY SU3 d         -11.108  -5.858  15.125  0.00  0.00     0.259 C 
ATOM     65  NBK SU3 d         -10.505  -6.467  14.141  0.00  0.00    -0.252 N 
ATOM     66  H26 SU3 d         -10.885  -7.286  13.711  0.00  0.00     0.181 HD
ATOM     67  OBL SU3 d         -10.666  -4.886  15.733  0.00  0.00    -0.270 OA
BRANCH  65  68
ATOM     68  SBM SU3 d          -9.129  -5.825  13.670  0.00  0.00     0.237 S 
ATOM     69  OBO SU3 d          -9.345  -4.679  12.757  0.00  0.00    -0.205 OA
ATOM     70  OBP SU3 d          -8.230  -5.506  14.780  0.00  0.00    -0.205 OA
BRANCH  68  71
ATOM     71  CBN SU3 d          -8.362  -7.115  12.696  0.00  0.00     0.063 A 
ATOM     72  CBQ SU3 d          -6.956  -6.786  12.180  0.00  0.00    -0.046 A 
ATOM     73  CBR SU3 d          -7.153  -7.730  13.364  0.00  0.00    -0.046 A 
ATOM     74  H28 SU3 d          -6.531  -5.785  12.337  0.00  0.00     0.035 H 
ATOM     75  H29 SU3 d          -6.618  -7.180  11.210  0.00  0.00     0.035 H 
ATOM     76  H30 SU3 d          -6.950  -8.806  13.247  0.00  0.00     0.035 H 
ATOM     77  H31 SU3 d          -6.862  -7.409  14.375  0.00  0.00     0.035 H 
ATOM     78  H27 SU3 d          -9.087  -7.700  12.110  0.00  0.00     0.066 H 
ENDBRANCH  68  71
ENDBRANCH  65  68
ENDBRANCH  58  64
BRANCH  59  79
ATOM     79  CAR SU3 d         -13.707  -4.122  15.173  0.00  0.00    -0.062 C 
ATOM     80  H7  SU3 d         -13.842  -3.468  16.047  0.00  0.00     0.033 H 
ATOM     81  H8  SU3 d         -12.731  -3.917  14.708  0.00  0.00     0.033 H 
BRANCH  79  82
ATOM     82  CAS SU3 d         -14.811  -3.831  14.160  0.00  0.00    -0.076 C 
ATOM     83  H9  SU3 d         -15.018  -2.751  14.144  0.00  0.00     0.027 H 
ATOM     84  H10 SU3 d         -15.723  -4.375  14.446  0.00  0.00     0.027 H 
ATOM     85  H11 SU3 d         -14.488  -4.158  13.162  0.00  0.00     0.027 H 
ENDBRANCH  79  82
ENDBRANCH  59  79
ENDBRANCH  56  58
ENDBRANCH   2  54
BRANCH   7  86
ATOM     86  CAL SU3 d         -17.748  -7.588  12.787  0.00  0.00    -0.022 C 
BRANCH  86  87
ATOM     87  CAT SU3 d         -18.223  -6.542  13.817  0.00  0.00    -0.067 C 
ATOM     88  H12 SU3 d         -19.199  -6.845  14.223  0.00  0.00     0.028 H 
ATOM     89  H13 SU3 d         -18.317  -5.562  13.327  0.00  0.00     0.028 H 
ATOM     90  H14 SU3 d         -17.490  -6.474  14.635  0.00  0.00     0.028 H 
ENDBRANCH  86  87
BRANCH  86  91
ATOM     91  CBZ SU3 d         -16.555  -7.013  12.034  0.00  0.00    -0.067 C 
ATOM     92  H46 SU3 d         -16.121  -6.184  12.613  0.00  0.00     0.028 H 
ATOM     93  H47 SU3 d         -16.886  -6.641  11.053  0.00  0.00     0.028 H 
ATOM     94  H48 SU3 d         -15.797  -7.798  11.892  0.00  0.00     0.028 H 
ENDBRANCH  86  91
BRANCH  86  95
ATOM     95  CCA SU3 d         -18.901  -7.842  11.803  0.00  0.00    -0.067 C 
ATOM     96  H49 SU3 d         -19.255  -6.882  11.397  0.00  0.00     0.028 H 
ATOM     97  H50 SU3 d         -19.728  -8.345  12.327  0.00  0.00     0.028 H 
ATOM     98  H51 SU3 d         -18.548  -8.481  10.979  0.00  0.00     0.028 H 
ENDBRANCH  86  95
ENDBRANCH   7  86
BRANCH  27  99
ATOM     99  CBX SU3 d         -21.485 -13.140  17.658  0.00  0.00    -0.067 C 
ATOM    100  H40 SU3 d         -21.346 -13.621  18.638  0.00  0.00     0.028 H 
ATOM    101  H41 SU3 d         -21.437 -13.901  16.865  0.00  0.00     0.028 H 
ATOM    102  H42 SU3 d         -22.465 -12.642  17.630  0.00  0.00     0.028 H 
ENDBRANCH  27  99
BRANCH  27 103
ATOM    103  CBY SU3 d         -20.491 -10.959  18.468  0.00  0.00    -0.067 C 
ATOM    104  H43 SU3 d         -19.628 -10.992  19.150  0.00  0.00     0.028 H 
ATOM    105  H44 SU3 d         -21.419 -11.078  19.045  0.00  0.00     0.028 H 
ATOM    106  H45 SU3 d         -20.507  -9.991  17.944  0.00  0.00     0.028 H 
ENDBRANCH  27 103
TORSDOF 13
ENDMDL
