MODEL 1
REMARK VINA RESULT:      -7.5      0.000      0.000
REMARK  1 active torsions:
REMARK  status: ('A' for Active; 'I' for Inactive)
REMARK    1  A    between atoms: C3_3  and  N15_15 
ROOT
ATOM      1  C1  PRL d           9.033  23.288  49.510  0.00  0.00    -0.069 A 
ATOM      2  C2  PRL d           9.831  23.580  48.484  0.00  0.00    -0.057 A 
ATOM      3  C3  PRL d          10.827  22.651  47.999  0.00  0.00     0.028 A 
ATOM      4  C4  PRL d          10.946  21.435  48.646  0.00  0.00    -0.029 A 
ATOM      5  C5  PRL d           9.525  18.187  51.871  0.00  0.00    -0.029 A 
ATOM      6  C6  PRL d           8.700  17.751  52.893  0.00  0.00     0.028 A 
ATOM      7  C7  PRL d           7.688  18.661  53.387  0.00  0.00    -0.057 A 
ATOM      8  C8  PRL d           7.540  19.888  52.885  0.00  0.00    -0.069 A 
ATOM      9  C9  PRL d           8.286  21.624  51.229  0.00  0.00    -0.059 A 
ATOM     10  N10 PRL d          10.199  19.878  50.312  0.00  0.00    -0.247 NA
ATOM     11  C11 PRL d          10.125  21.112  49.705  0.00  0.00     0.070 A 
ATOM     12  C12 PRL d           8.386  20.372  51.814  0.00  0.00    -0.006 A 
ATOM     13  C13 PRL d           9.117  22.021  50.194  0.00  0.00    -0.006 A 
ATOM     14  C14 PRL d           9.388  19.450  51.339  0.00  0.00     0.070 A 
ATOM     15  N16 PRL d           8.814  16.506  53.410  0.00  0.00    -0.399 N 
ATOM     16  H1  PRL d           8.304  24.020  49.838  0.00  0.00     0.085 H 
ATOM     17  H2  PRL d           9.730  24.543  47.997  0.00  0.00     0.086 H 
ATOM     18  H3  PRL d          11.695  20.724  48.314  0.00  0.00     0.090 H 
ATOM     19  H4  PRL d          10.291  17.524  51.484  0.00  0.00     0.090 H 
ATOM     20  H5  PRL d           7.033  18.337  54.187  0.00  0.00     0.086 H 
ATOM     21  H6  PRL d           6.770  20.537  53.287  0.00  0.00     0.085 H 
ATOM     22  H7  PRL d           7.533  22.315  51.593  0.00  0.00     0.086 H 
ATOM     23  H10 PRL d           9.537  15.864  53.054  0.00  0.00     0.156 HD
ATOM     24  H11 PRL d           8.178  16.199  54.160  0.00  0.00     0.156 HD
ENDROOT
BRANCH   3  25
ATOM     25  N15 PRL d          11.553  22.945  46.897  0.00  0.00    -0.399 N 
ATOM     26  H8  PRL d          12.509  23.315  46.993  0.00  0.00     0.156 HD
ATOM     27  H9  PRL d          11.149  22.800  45.960  0.00  0.00     0.156 HD
ENDBRANCH   3  25
TORSDOF 1
ENDMDL
MODEL 2
REMARK VINA RESULT:      -7.4      0.197      5.666
REMARK  1 active torsions:
REMARK  status: ('A' for Active; 'I' for Inactive)
REMARK    1  A    between atoms: C3_3  and  N15_15 
ROOT
ATOM      1  C1  PRL d           7.661  19.781  52.796  0.00  0.00    -0.069 A 
ATOM      2  C2  PRL d           7.880  18.570  53.305  0.00  0.00    -0.057 A 
ATOM      3  C3  PRL d           8.875  17.676  52.757  0.00  0.00     0.028 A 
ATOM      4  C4  PRL d           9.600  18.108  51.662  0.00  0.00    -0.029 A 
ATOM      5  C5  PRL d          10.875  21.445  48.466  0.00  0.00    -0.029 A 
ATOM      6  C6  PRL d          10.784  22.708  47.907  0.00  0.00     0.028 A 
ATOM      7  C7  PRL d           9.801  23.623  48.448  0.00  0.00    -0.057 A 
ATOM      8  C8  PRL d           8.997  23.278  49.455  0.00  0.00    -0.069 A 
ATOM      9  C9  PRL d           8.283  21.537  51.119  0.00  0.00    -0.059 A 
ATOM     10  N10 PRL d          10.154  19.819  50.073  0.00  0.00    -0.247 NA
ATOM     11  C11 PRL d           9.392  19.361  51.124  0.00  0.00     0.070 A 
ATOM     12  C12 PRL d           9.070  21.966  50.062  0.00  0.00    -0.006 A 
ATOM     13  C13 PRL d           8.413  20.272  51.666  0.00  0.00    -0.006 A 
ATOM     14  C14 PRL d          10.054  21.070  49.507  0.00  0.00     0.070 A 
ATOM     15  N16 PRL d          11.598  23.093  46.897  0.00  0.00    -0.399 N 
ATOM     16  H1  PRL d           6.902  20.413  53.241  0.00  0.00     0.085 H 
ATOM     17  H2  PRL d           7.294  18.244  54.157  0.00  0.00     0.086 H 
ATOM     18  H3  PRL d          10.342  17.453  51.219  0.00  0.00     0.090 H 
ATOM     19  H4  PRL d          11.602  20.740  48.079  0.00  0.00     0.090 H 
ATOM     20  H5  PRL d           9.716  24.617  48.022  0.00  0.00     0.086 H 
ATOM     21  H6  PRL d           8.275  23.996  49.826  0.00  0.00     0.085 H 
ATOM     22  H7  PRL d           7.541  22.214  51.529  0.00  0.00     0.086 H 
ATOM     23  H10 PRL d          12.295  22.435  46.517  0.00  0.00     0.156 HD
ATOM     24  H11 PRL d          11.522  24.044  46.508  0.00  0.00     0.156 HD
ENDROOT
BRANCH   3  25
ATOM     25  N15 PRL d           9.133  16.493  53.359  0.00  0.00    -0.399 N 
ATOM     26  H8  PRL d           9.040  16.405  54.381  0.00  0.00     0.156 HD
ATOM     27  H9  PRL d           9.423  15.680  52.797  0.00  0.00     0.156 HD
ENDBRANCH   3  25
TORSDOF 1
ENDMDL
MODEL 3
REMARK VINA RESULT:      -7.2      1.467      6.146
REMARK  1 active torsions:
REMARK  status: ('A' for Active; 'I' for Inactive)
REMARK    1  A    between atoms: C3_3  and  N15_15 
ROOT
ATOM      1  C1  PRL d           9.720  18.730  51.474  0.00  0.00    -0.069 A 
ATOM      2  C2  PRL d           8.908  18.545  52.514  0.00  0.00    -0.057 A 
ATOM      3  C3  PRL d           7.987  19.567  52.959  0.00  0.00     0.028 A 
ATOM      4  C4  PRL d           7.975  20.769  52.277  0.00  0.00    -0.029 A 
ATOM      5  C5  PRL d           9.365  23.624  48.686  0.00  0.00    -0.029 A 
ATOM      6  C6  PRL d          10.106  23.894  47.549  0.00  0.00     0.028 A 
ATOM      7  C7  PRL d          11.028  22.881  47.080  0.00  0.00    -0.057 A 
ATOM      8  C8  PRL d          11.173  21.715  47.711  0.00  0.00    -0.069 A 
ATOM      9  C9  PRL d          10.491  20.210  49.603  0.00  0.00    -0.059 A 
ATOM     10  N10 PRL d           8.751  22.150  50.474  0.00  0.00    -0.247 NA
ATOM     11  C11 PRL d           8.803  20.977  51.194  0.00  0.00     0.070 A 
ATOM     12  C12 PRL d          10.410  21.401  48.901  0.00  0.00    -0.006 A 
ATOM     13  C13 PRL d           9.720  19.965  50.728  0.00  0.00    -0.006 A 
ATOM     14  C14 PRL d           9.500  22.425  49.352  0.00  0.00     0.070 A 
ATOM     15  N16 PRL d           9.968  25.060  46.877  0.00  0.00    -0.399 N 
ATOM     16  H1  PRL d          10.395  17.935  51.182  0.00  0.00     0.085 H 
ATOM     17  H2  PRL d           8.940  17.600  53.044  0.00  0.00     0.086 H 
ATOM     18  H3  PRL d           7.306  21.560  52.597  0.00  0.00     0.090 H 
ATOM     19  H4  PRL d           8.668  24.366  49.058  0.00  0.00     0.090 H 
ATOM     20  H5  PRL d          11.617  23.075  46.191  0.00  0.00     0.086 H 
ATOM     21  H6  PRL d          11.877  20.986  47.325  0.00  0.00     0.085 H 
ATOM     22  H7  PRL d          11.180  19.445  49.263  0.00  0.00     0.086 H 
ATOM     23  H10 PRL d           9.310  25.777  47.218  0.00  0.00     0.156 HD
ATOM     24  H11 PRL d          10.520  25.232  46.024  0.00  0.00     0.156 HD
ENDROOT
BRANCH   3  25
ATOM     25  N15 PRL d           7.113  19.307  53.958  0.00  0.00    -0.399 N 
ATOM     26  H8  PRL d           6.100  19.366  53.785  0.00  0.00     0.156 HD
ATOM     27  H9  PRL d           7.462  19.049  54.893  0.00  0.00     0.156 HD
ENDBRANCH   3  25
TORSDOF 1
ENDMDL
MODEL 4
REMARK VINA RESULT:      -6.7      1.450      2.408
REMARK  1 active torsions:
REMARK  status: ('A' for Active; 'I' for Inactive)
REMARK    1  A    between atoms: C3_3  and  N15_15 
ROOT
ATOM      1  C1  PRL d          11.237  21.636  47.740  0.00  0.00    -0.069 A 
ATOM      2  C2  PRL d          11.122  22.807  47.114  0.00  0.00    -0.057 A 
ATOM      3  C3  PRL d          10.135  23.790  47.502  0.00  0.00     0.028 A 
ATOM      4  C4  PRL d           9.287  23.477  48.547  0.00  0.00    -0.029 A 
ATOM      5  C5  PRL d           7.828  20.641  52.125  0.00  0.00    -0.029 A 
ATOM      6  C6  PRL d           7.909  19.492  52.893  0.00  0.00     0.028 A 
ATOM      7  C7  PRL d           8.898  18.499  52.529  0.00  0.00    -0.057 A 
ATOM      8  C8  PRL d           9.715  18.668  51.488  0.00  0.00    -0.069 A 
ATOM      9  C9  PRL d          10.478  20.116  49.582  0.00  0.00    -0.059 A 
ATOM     10  N10 PRL d           8.593  21.984  50.293  0.00  0.00    -0.247 NA
ATOM     11  C11 PRL d           9.394  22.274  49.211  0.00  0.00     0.070 A 
ATOM     12  C12 PRL d           9.656  19.860  50.668  0.00  0.00    -0.006 A 
ATOM     13  C13 PRL d          10.381  21.286  48.848  0.00  0.00    -0.006 A 
ATOM     14  C14 PRL d           8.663  20.834  51.047  0.00  0.00     0.070 A 
ATOM     15  N16 PRL d           7.107  19.301  53.965  0.00  0.00    -0.399 N 
ATOM     16  H1  PRL d          11.990  20.931  47.410  0.00  0.00     0.085 H 
ATOM     17  H2  PRL d          11.789  23.029  46.289  0.00  0.00     0.086 H 
ATOM     18  H3  PRL d           8.526  24.189  48.850  0.00  0.00     0.090 H 
ATOM     19  H4  PRL d           7.096  21.401  52.377  0.00  0.00     0.090 H 
ATOM     20  H5  PRL d           8.976  17.592  53.118  0.00  0.00     0.086 H 
ATOM     21  H6  PRL d          10.438  17.896  51.251  0.00  0.00     0.085 H 
ATOM     22  H7  PRL d          11.220  19.378  49.299  0.00  0.00     0.086 H 
ATOM     23  H10 PRL d           6.405  20.013  54.217  0.00  0.00     0.156 HD
ATOM     24  H11 PRL d           7.197  18.444  54.530  0.00  0.00     0.156 HD
ENDROOT
BRANCH   3  25
ATOM     25  N15 PRL d          10.112  25.003  46.905  0.00  0.00    -0.399 N 
ATOM     26  H8  PRL d           9.520  25.158  46.077  0.00  0.00     0.156 HD
ATOM     27  H9  PRL d          10.688  25.772  47.277  0.00  0.00     0.156 HD
ENDBRANCH   3  25
TORSDOF 1
ENDMDL
MODEL 5
REMARK VINA RESULT:      -5.5      1.688      2.726
REMARK  1 active torsions:
REMARK  status: ('A' for Active; 'I' for Inactive)
REMARK    1  A    between atoms: C3_3  and  N15_15 
ROOT
ATOM      1  C1  PRL d          10.419  21.480  49.272  0.00  0.00    -0.069 A 
ATOM      2  C2  PRL d           9.864  22.687  49.177  0.00  0.00    -0.057 A 
ATOM      3  C3  PRL d           8.687  23.051  49.933  0.00  0.00     0.028 A 
ATOM      4  C4  PRL d           8.129  22.095  50.761  0.00  0.00    -0.029 A 
ATOM      5  C5  PRL d           8.123  17.792  52.873  0.00  0.00    -0.029 A 
ATOM      6  C6  PRL d           8.659  16.538  53.105  0.00  0.00     0.028 A 
ATOM      7  C7  PRL d           9.845  16.157  52.367  0.00  0.00    -0.057 A 
ATOM      8  C8  PRL d          10.418  16.977  51.485  0.00  0.00    -0.069 A 
ATOM      9  C9  PRL d          10.428  19.210  50.335  0.00  0.00    -0.059 A 
ATOM     10  N10 PRL d           8.176  19.907  51.747  0.00  0.00    -0.247 NA
ATOM     11  C11 PRL d           8.692  20.842  50.877  0.00  0.00     0.070 A 
ATOM     12  C12 PRL d           9.883  18.296  51.222  0.00  0.00    -0.006 A 
ATOM     13  C13 PRL d           9.875  20.465  50.141  0.00  0.00    -0.006 A 
ATOM     14  C14 PRL d           8.701  18.653  51.967  0.00  0.00     0.070 A 
ATOM     15  N16 PRL d           8.111  15.691  54.008  0.00  0.00    -0.399 N 
ATOM     16  H1  PRL d          11.300  21.255  48.682  0.00  0.00     0.085 H 
ATOM     17  H2  PRL d          10.310  23.420  48.514  0.00  0.00     0.086 H 
ATOM     18  H3  PRL d           7.236  22.333  51.328  0.00  0.00     0.090 H 
ATOM     19  H4  PRL d           7.235  18.102  53.413  0.00  0.00     0.090 H 
ATOM     20  H5  PRL d          10.279  15.177  52.536  0.00  0.00     0.086 H 
ATOM     21  H6  PRL d          11.304  16.648  50.954  0.00  0.00     0.085 H 
ATOM     22  H7  PRL d          11.314  18.934  49.775  0.00  0.00     0.086 H 
ATOM     23  H10 PRL d           7.266  15.970  54.528  0.00  0.00     0.156 HD
ATOM     24  H11 PRL d           8.537  14.768  54.174  0.00  0.00     0.156 HD
ENDROOT
BRANCH   3  25
ATOM     25  N15 PRL d           8.209  24.315  49.882  0.00  0.00    -0.399 N 
ATOM     26  H8  PRL d           8.820  25.106  50.130  0.00  0.00     0.156 HD
ATOM     27  H9  PRL d           7.235  24.487  49.596  0.00  0.00     0.156 HD
ENDBRANCH   3  25
TORSDOF 1
ENDMDL
MODEL 6
REMARK VINA RESULT:      -5.5      1.673      6.042
REMARK  1 active torsions:
REMARK  status: ('A' for Active; 'I' for Inactive)
REMARK    1  A    between atoms: C3_3  and  N15_15 
ROOT
ATOM      1  C1  PRL d          10.407  16.976  51.503  0.00  0.00    -0.069 A 
ATOM      2  C2  PRL d           9.814  16.158  52.370  0.00  0.00    -0.057 A 
ATOM      3  C3  PRL d           8.690  16.579  53.176  0.00  0.00     0.028 A 
ATOM      4  C4  PRL d           8.243  17.879  53.034  0.00  0.00    -0.029 A 
ATOM      5  C5  PRL d           8.295  22.176  50.911  0.00  0.00    -0.029 A 
ATOM      6  C6  PRL d           8.785  23.084  49.988  0.00  0.00     0.028 A 
ATOM      7  C7  PRL d           9.904  22.679  49.163  0.00  0.00    -0.057 A 
ATOM      8  C8  PRL d          10.461  21.472  49.275  0.00  0.00    -0.069 A 
ATOM      9  C9  PRL d          10.481  19.223  50.394  0.00  0.00    -0.059 A 
ATOM     10  N10 PRL d           8.359  20.016  51.948  0.00  0.00    -0.247 NA
ATOM     11  C11 PRL d           8.840  18.739  52.137  0.00  0.00     0.070 A 
ATOM     12  C12 PRL d           9.969  20.500  50.229  0.00  0.00    -0.006 A 
ATOM     13  C13 PRL d           9.954  18.334  51.315  0.00  0.00    -0.006 A 
ATOM     14  C14 PRL d           8.856  20.924  51.041  0.00  0.00     0.070 A 
ATOM     15  N16 PRL d           8.230  24.309  49.839  0.00  0.00    -0.399 N 
ATOM     16  H1  PRL d          11.249  16.615  50.924  0.00  0.00     0.085 H 
ATOM     17  H2  PRL d          10.186  15.145  52.476  0.00  0.00     0.086 H 
ATOM     18  H3  PRL d           7.412  18.228  53.637  0.00  0.00     0.090 H 
ATOM     19  H4  PRL d           7.458  22.454  51.541  0.00  0.00     0.090 H 
ATOM     20  H5  PRL d          10.302  23.377  48.435  0.00  0.00     0.086 H 
ATOM     21  H6  PRL d          11.299  21.214  48.637  0.00  0.00     0.085 H 
ATOM     22  H7  PRL d          11.321  18.911  49.783  0.00  0.00     0.086 H 
ATOM     23  H10 PRL d           7.434  24.589  50.431  0.00  0.00     0.156 HD
ATOM     24  H11 PRL d           8.603  24.961  49.135  0.00  0.00     0.156 HD
ENDROOT
BRANCH   3  25
ATOM     25  N15 PRL d           8.056  15.691  53.975  0.00  0.00    -0.399 N 
ATOM     26  H8  PRL d           7.422  14.991  53.566  0.00  0.00     0.156 HD
ATOM     27  H9  PRL d           8.207  15.716  54.994  0.00  0.00     0.156 HD
ENDBRANCH   3  25
TORSDOF 1
ENDMDL
MODEL 7
REMARK VINA RESULT:      -4.7      2.179      5.655
REMARK  1 active torsions:
REMARK  status: ('A' for Active; 'I' for Inactive)
REMARK    1  A    between atoms: C3_3  and  N15_15 
ROOT
ATOM      1  C1  PRL d           8.815  16.333  51.531  0.00  0.00    -0.069 A 
ATOM      2  C2  PRL d           9.768  15.686  52.201  0.00  0.00    -0.057 A 
ATOM      3  C3  PRL d          10.962  16.354  52.672  0.00  0.00     0.028 A 
ATOM      4  C4  PRL d          11.102  17.700  52.393  0.00  0.00    -0.029 A 
ATOM      5  C5  PRL d           9.475  21.874  50.688  0.00  0.00    -0.029 A 
ATOM      6  C6  PRL d           8.516  22.657  50.070  0.00  0.00     0.028 A 
ATOM      7  C7  PRL d           7.308  22.012  49.601  0.00  0.00    -0.057 A 
ATOM      8  C8  PRL d           7.107  20.702  49.750  0.00  0.00    -0.069 A 
ATOM      9  C9  PRL d           7.948  18.493  50.601  0.00  0.00    -0.059 A 
ATOM     10  N10 PRL d          10.232  19.742  51.481  0.00  0.00    -0.247 NA
ATOM     11  C11 PRL d          10.125  18.388  51.706  0.00  0.00     0.070 A 
ATOM     12  C12 PRL d           8.089  19.856  50.395  0.00  0.00    -0.006 A 
ATOM     13  C13 PRL d           8.921  17.742  51.241  0.00  0.00    -0.006 A 
ATOM     14  C14 PRL d           9.285  20.519  50.853  0.00  0.00     0.070 A 
ATOM     15  N16 PRL d           8.684  23.992  49.921  0.00  0.00    -0.399 N 
ATOM     16  H1  PRL d           7.941  15.788  51.197  0.00  0.00     0.085 H 
ATOM     17  H2  PRL d           9.645  14.628  52.400  0.00  0.00     0.086 H 
ATOM     18  H3  PRL d          11.994  18.224  52.720  0.00  0.00     0.090 H 
ATOM     19  H4  PRL d          10.389  22.332  51.049  0.00  0.00     0.090 H 
ATOM     20  H5  PRL d           6.546  22.610  49.114  0.00  0.00     0.086 H 
ATOM     21  H6  PRL d           6.188  20.261  49.380  0.00  0.00     0.085 H 
ATOM     22  H7  PRL d           7.049  17.999  50.251  0.00  0.00     0.086 H 
ATOM     23  H10 PRL d           9.547  24.443  50.257  0.00  0.00     0.156 HD
ATOM     24  H11 PRL d           7.949  24.556  49.471  0.00  0.00     0.156 HD
ENDROOT
BRANCH   3  25
ATOM     25  N15 PRL d          11.860  15.686  53.430  0.00  0.00    -0.399 N 
ATOM     26  H8  PRL d          11.572  14.842  53.946  0.00  0.00     0.156 HD
ATOM     27  H9  PRL d          12.833  16.019  53.491  0.00  0.00     0.156 HD
ENDBRANCH   3  25
TORSDOF 1
ENDMDL
