MODEL 1
REMARK VINA RESULT:      -8.7      0.000      0.000
REMARK  7 active torsions:
REMARK  status: ('A' for Active; 'I' for Inactive)
REMARK    1  A    between atoms: N1_1  and  S27_27 
REMARK    2  A    between atoms: C4_4  and  N7_7 
REMARK    3  A    between atoms: C11_11  and  C14_14 
REMARK    4  A    between atoms: C14_14  and  C16_16 
REMARK    5  A    between atoms: C21_21  and  O22_22 
REMARK    6  A    between atoms: O22_22  and  C23_23 
REMARK    7  A    between atoms: S27_27  and  C28_28 
ROOT
ATOM      1  N7  LIA d           2.589  29.123   6.276  0.00  0.00    -0.218 N 
ATOM      2  C8  LIA d           1.580  29.462   7.129  0.00  0.00     0.724 A 
ATOM      3  N9  LIA d           1.002  28.540   7.946  0.00  0.00    -0.074 NA
ATOM      4  C10 LIA d           0.052  28.894   8.756  0.00  0.00     0.038 A 
ATOM      5  C11 LIA d          -0.443  30.255   8.840  0.00  0.00     0.079 A 
ATOM      6  C12 LIA d           0.190  31.202   7.948  0.00  0.00     0.156 A 
ATOM      7  N13 LIA d           1.193  30.771   7.112  0.00  0.00    -0.045 NA
ATOM      8  N26 LIA d          -0.149  32.503   7.892  0.00  0.00    -0.383 N 
ATOM      9  H10 LIA d           2.832  29.687   5.449  0.00  0.00     0.178 HD
ATOM     10  H11 LIA d          -0.390  28.140   9.398  0.00  0.00     0.117 H 
ATOM     11  H17 LIA d           0.335  33.134   7.237  0.00  0.00     0.157 HD
ATOM     12  H18 LIA d          -0.894  32.868   8.504  0.00  0.00     0.157 HD
ENDROOT
BRANCH   1  13
ATOM     13  C4  LIA d           3.302  27.889   6.633  0.00  0.00     0.029 C 
ATOM     14  C3  LIA d           4.029  27.372   5.365  0.00  0.00    -0.034 C 
ATOM     15  C2  LIA d           4.924  26.161   5.703  0.00  0.00    -0.005 C 
ATOM     16  H3  LIA d           3.281  27.071   4.617  0.00  0.00     0.037 H 
ATOM     17  H4  LIA d           4.654  28.179   4.954  0.00  0.00     0.037 H 
ATOM     18  N1  LIA d           5.915  26.549   6.745  0.00  0.00    -0.211 NA
ATOM     19  H1  LIA d           4.299  25.338   6.081  0.00  0.00     0.057 H 
ATOM     20  H2  LIA d           5.454  25.832   4.797  0.00  0.00     0.057 H 
ATOM     21  C6  LIA d           5.220  26.898   8.020  0.00  0.00    -0.005 C 
ATOM     22  C5  LIA d           4.328  28.137   7.792  0.00  0.00    -0.034 C 
ATOM     23  H8  LIA d           5.967  27.120   8.796  0.00  0.00     0.057 H 
ATOM     24  H9  LIA d           4.597  26.051   8.343  0.00  0.00     0.057 H 
ATOM     25  H6  LIA d           3.778  28.359   8.719  0.00  0.00     0.037 H 
ATOM     26  H7  LIA d           4.966  28.995   7.531  0.00  0.00     0.037 H 
ATOM     27  H5  LIA d           2.573  27.136   6.965  0.00  0.00     0.073 H 
BRANCH  18  28
ATOM     28  S27 LIA d           7.050  25.311   6.987  0.00  0.00     0.207 S 
ATOM     29  O29 LIA d           7.698  25.550   8.257  0.00  0.00    -0.212 OA
ATOM     30  O30 LIA d           8.026  25.363   5.933  0.00  0.00    -0.212 OA
BRANCH  28  31
ATOM     31  C28 LIA d           6.281  23.654   7.029  0.00  0.00     0.028 C 
ATOM     32  H19 LIA d           6.712  23.070   7.855  0.00  0.00     0.050 H 
ATOM     33  H20 LIA d           6.471  23.136   6.077  0.00  0.00     0.050 H 
ATOM     34  H21 LIA d           5.196  23.756   7.181  0.00  0.00     0.050 H 
ENDBRANCH  28  31
ENDBRANCH  18  28
ENDBRANCH   1  13
BRANCH   5  35
ATOM     35  C14 LIA d          -1.501  30.588   9.782  0.00  0.00     0.203 C 
ATOM     36  O15 LIA d          -1.624  31.747  10.214  0.00  0.00    -0.286 OA
BRANCH  35  37
ATOM     37  C16 LIA d          -2.420  29.580  10.261  0.00  0.00     0.090 A 
ATOM     38  C17 LIA d          -1.999  28.675  11.300  0.00  0.00     0.171 A 
ATOM     39  C18 LIA d          -2.893  27.677  11.797  0.00  0.00     0.156 A 
ATOM     40  F24 LIA d          -0.774  28.749  11.812  0.00  0.00    -0.202 F 
ATOM     41  C19 LIA d          -4.215  27.562  11.275  0.00  0.00    -0.040 A 
ATOM     42  F25 LIA d          -2.499  26.852  12.749  0.00  0.00    -0.203 F 
ATOM     43  C20 LIA d          -4.656  28.441  10.246  0.00  0.00    -0.047 A 
ATOM     44  H12 LIA d          -4.886  26.804  11.663  0.00  0.00     0.088 H 
ATOM     45  C21 LIA d          -3.777  29.464   9.717  0.00  0.00     0.085 A 
ATOM     46  H13 LIA d          -5.662  28.343   9.854  0.00  0.00     0.087 H 
BRANCH  45  47
ATOM     47  O22 LIA d          -4.173  30.353   8.693  0.00  0.00    -0.355 OA
BRANCH  47  48
ATOM     48  C23 LIA d          -4.238  29.726   7.387  0.00  0.00     0.010 C 
ATOM     49  H14 LIA d          -4.214  28.632   7.503  0.00  0.00     0.066 H 
ATOM     50  H15 LIA d          -3.378  30.048   6.782  0.00  0.00     0.066 H 
ATOM     51  H16 LIA d          -5.171  30.021   6.885  0.00  0.00     0.066 H 
ENDBRANCH  47  48
ENDBRANCH  45  47
ENDBRANCH  35  37
ENDBRANCH   5  35
TORSDOF 7
ENDMDL
MODEL 2
REMARK VINA RESULT:      -8.2      2.846      4.043
REMARK  7 active torsions:
REMARK  status: ('A' for Active; 'I' for Inactive)
REMARK    1  A    between atoms: N1_1  and  S27_27 
REMARK    2  A    between atoms: C4_4  and  N7_7 
REMARK    3  A    between atoms: C11_11  and  C14_14 
REMARK    4  A    between atoms: C14_14  and  C16_16 
REMARK    5  A    between atoms: C21_21  and  O22_22 
REMARK    6  A    between atoms: O22_22  and  C23_23 
REMARK    7  A    between atoms: S27_27  and  C28_28 
ROOT
ATOM      1  N7  LIA d           3.256  24.764   9.712  0.00  0.00    -0.218 N 
ATOM      2  C8  LIA d           2.391  25.711  10.173  0.00  0.00     0.724 A 
ATOM      3  N9  LIA d           2.279  26.925   9.568  0.00  0.00    -0.074 NA
ATOM      4  C10 LIA d           1.439  27.803  10.021  0.00  0.00     0.038 A 
ATOM      5  C11 LIA d           0.588  27.557  11.171  0.00  0.00     0.079 A 
ATOM      6  C12 LIA d           0.744  26.260  11.791  0.00  0.00     0.156 A 
ATOM      7  N13 LIA d           1.650  25.367  11.267  0.00  0.00    -0.045 NA
ATOM      8  N26 LIA d           0.039  25.867  12.868  0.00  0.00    -0.383 N 
ATOM      9  H10 LIA d           3.593  23.985  10.296  0.00  0.00     0.178 HD
ATOM     10  H11 LIA d           1.368  28.762   9.520  0.00  0.00     0.117 H 
ATOM     11  H17 LIA d           0.190  24.931  13.271  0.00  0.00     0.157 HD
ATOM     12  H18 LIA d          -0.652  26.503  13.291  0.00  0.00     0.157 HD
ENDROOT
BRANCH   1  13
ATOM     13  C4  LIA d           3.669  24.942   8.313  0.00  0.00     0.029 C 
ATOM     14  C3  LIA d           4.907  25.876   8.295  0.00  0.00    -0.034 C 
ATOM     15  C2  LIA d           5.489  25.985   6.869  0.00  0.00    -0.005 C 
ATOM     16  H3  LIA d           4.610  26.876   8.641  0.00  0.00     0.037 H 
ATOM     17  H4  LIA d           5.676  25.468   8.967  0.00  0.00     0.037 H 
ATOM     18  N1  LIA d           5.857  24.629   6.376  0.00  0.00    -0.211 NA
ATOM     19  H1  LIA d           4.735  26.426   6.200  0.00  0.00     0.057 H 
ATOM     20  H2  LIA d           6.383  26.624   6.886  0.00  0.00     0.057 H 
ATOM     21  C6  LIA d           4.639  23.774   6.244  0.00  0.00    -0.005 C 
ATOM     22  C5  LIA d           4.007  23.568   7.637  0.00  0.00    -0.034 C 
ATOM     23  H8  LIA d           4.919  22.799   5.820  0.00  0.00     0.057 H 
ATOM     24  H9  LIA d           3.913  24.269   5.581  0.00  0.00     0.057 H 
ATOM     25  H6  LIA d           3.081  22.984   7.529  0.00  0.00     0.037 H 
ATOM     26  H7  LIA d           4.715  23.018   8.275  0.00  0.00     0.037 H 
ATOM     27  H5  LIA d           2.849  25.416   7.754  0.00  0.00     0.073 H 
BRANCH  18  28
ATOM     28  S27 LIA d           6.694  24.731   4.904  0.00  0.00     0.207 S 
ATOM     29  O29 LIA d           8.065  25.081   5.200  0.00  0.00    -0.212 OA
ATOM     30  O30 LIA d           6.097  25.763   4.101  0.00  0.00    -0.212 OA
BRANCH  28  31
ATOM     31  C28 LIA d           6.685  23.153   3.981  0.00  0.00     0.028 C 
ATOM     32  H19 LIA d           6.067  22.417   4.518  0.00  0.00     0.050 H 
ATOM     33  H20 LIA d           7.714  22.773   3.894  0.00  0.00     0.050 H 
ATOM     34  H21 LIA d           6.268  23.317   2.977  0.00  0.00     0.050 H 
ENDBRANCH  28  31
ENDBRANCH  18  28
ENDBRANCH   1  13
BRANCH   5  35
ATOM     35  C14 LIA d          -0.345  28.580  11.619  0.00  0.00     0.203 C 
ATOM     36  O15 LIA d          -0.136  29.212  12.668  0.00  0.00    -0.286 OA
BRANCH  35  37
ATOM     37  C16 LIA d          -1.548  28.873  10.873  0.00  0.00     0.090 A 
ATOM     38  C17 LIA d          -1.523  29.901   9.865  0.00  0.00     0.171 A 
ATOM     39  C18 LIA d          -2.698  30.201   9.108  0.00  0.00     0.156 A 
ATOM     40  F24 LIA d          -0.412  30.590   9.622  0.00  0.00    -0.202 F 
ATOM     41  C19 LIA d          -3.911  29.487   9.336  0.00  0.00    -0.040 A 
ATOM     42  F25 LIA d          -2.666  31.145   8.185  0.00  0.00    -0.203 F 
ATOM     43  C20 LIA d          -3.964  28.469  10.329  0.00  0.00    -0.047 A 
ATOM     44  H12 LIA d          -4.794  29.720   8.752  0.00  0.00     0.088 H 
ATOM     45  C21 LIA d          -2.794  28.138  11.116  0.00  0.00     0.085 A 
ATOM     46  H13 LIA d          -4.892  27.934  10.497  0.00  0.00     0.087 H 
BRANCH  45  47
ATOM     47  O22 LIA d          -2.805  27.138  12.114  0.00  0.00    -0.355 OA
BRANCH  47  48
ATOM     48  C23 LIA d          -3.915  26.214  11.983  0.00  0.00     0.010 C 
ATOM     49  H14 LIA d          -4.726  26.692  11.415  0.00  0.00     0.066 H 
ATOM     50  H15 LIA d          -4.282  25.937  12.982  0.00  0.00     0.066 H 
ATOM     51  H16 LIA d          -3.578  25.310  11.453  0.00  0.00     0.066 H 
ENDBRANCH  47  48
ENDBRANCH  45  47
ENDBRANCH  35  37
ENDBRANCH   5  35
TORSDOF 7
ENDMDL
MODEL 3
REMARK VINA RESULT:      -7.0      1.542      2.068
REMARK  7 active torsions:
REMARK  status: ('A' for Active; 'I' for Inactive)
REMARK    1  A    between atoms: N1_1  and  S27_27 
REMARK    2  A    between atoms: C4_4  and  N7_7 
REMARK    3  A    between atoms: C11_11  and  C14_14 
REMARK    4  A    between atoms: C14_14  and  C16_16 
REMARK    5  A    between atoms: C21_21  and  O22_22 
REMARK    6  A    between atoms: O22_22  and  C23_23 
REMARK    7  A    between atoms: S27_27  and  C28_28 
ROOT
ATOM      1  N7  LIA d           2.863  28.354   5.811  0.00  0.00    -0.218 N 
ATOM      2  C8  LIA d           2.164  28.492   6.974  0.00  0.00     0.724 A 
ATOM      3  N9  LIA d           2.282  27.587   7.984  0.00  0.00    -0.074 NA
ATOM      4  C10 LIA d           1.614  27.749   9.084  0.00  0.00     0.038 A 
ATOM      5  C11 LIA d           0.723  28.873   9.303  0.00  0.00     0.079 A 
ATOM      6  C12 LIA d           0.618  29.806   8.203  0.00  0.00     0.156 A 
ATOM      7  N13 LIA d           1.351  29.584   7.060  0.00  0.00    -0.045 NA
ATOM      8  N26 LIA d          -0.165  30.900   8.236  0.00  0.00    -0.383 N 
ATOM      9  H10 LIA d           2.582  28.816   4.934  0.00  0.00     0.178 HD
ATOM     10  H11 LIA d           1.726  27.015   9.873  0.00  0.00     0.117 H 
ATOM     11  H17 LIA d          -0.202  31.532   7.423  0.00  0.00     0.157 HD
ATOM     12  H18 LIA d          -0.728  31.106   9.074  0.00  0.00     0.157 HD
ENDROOT
BRANCH   1  13
ATOM     13  C4  LIA d           4.050  27.494   5.909  0.00  0.00     0.029 C 
ATOM     14  C3  LIA d           4.651  27.667   7.327  0.00  0.00    -0.034 C 
ATOM     15  C2  LIA d           5.814  26.677   7.554  0.00  0.00    -0.005 C 
ATOM     16  H3  LIA d           5.026  28.695   7.437  0.00  0.00     0.037 H 
ATOM     17  H4  LIA d           3.868  27.481   8.077  0.00  0.00     0.037 H 
ATOM     18  N1  LIA d           5.323  25.283   7.368  0.00  0.00    -0.211 NA
ATOM     19  H1  LIA d           6.616  26.883   6.829  0.00  0.00     0.057 H 
ATOM     20  H2  LIA d           6.203  26.796   8.575  0.00  0.00     0.057 H 
ATOM     21  C6  LIA d           4.888  25.069   5.955  0.00  0.00    -0.005 C 
ATOM     22  C5  LIA d           3.689  25.990   5.645  0.00  0.00    -0.034 C 
ATOM     23  H8  LIA d           4.589  24.019   5.818  0.00  0.00     0.057 H 
ATOM     24  H9  LIA d           5.718  25.305   5.274  0.00  0.00     0.057 H 
ATOM     25  H6  LIA d           3.406  25.868   4.589  0.00  0.00     0.037 H 
ATOM     26  H7  LIA d           2.842  25.706   6.288  0.00  0.00     0.037 H 
ATOM     27  H5  LIA d           4.789  27.814   5.160  0.00  0.00     0.073 H 
BRANCH  18  28
ATOM     28  S27 LIA d           6.515  24.161   7.816  0.00  0.00     0.207 S 
ATOM     29  O29 LIA d           5.888  23.166   8.657  0.00  0.00    -0.212 OA
ATOM     30  O30 LIA d           7.538  24.843   8.561  0.00  0.00    -0.212 OA
BRANCH  28  31
ATOM     31  C28 LIA d           7.261  23.318   6.377  0.00  0.00     0.028 C 
ATOM     32  H19 LIA d           6.511  23.221   5.578  0.00  0.00     0.050 H 
ATOM     33  H20 LIA d           7.608  22.318   6.677  0.00  0.00     0.050 H 
ATOM     34  H21 LIA d           8.114  23.908   6.008  0.00  0.00     0.050 H 
ENDBRANCH  28  31
ENDBRANCH  18  28
ENDBRANCH   1  13
BRANCH   5  35
ATOM     35  C14 LIA d           0.015  29.004  10.568  0.00  0.00     0.203 C 
ATOM     36  O15 LIA d           0.538  29.594  11.529  0.00  0.00    -0.286 OA
BRANCH  35  37
ATOM     37  C16 LIA d          -1.301  28.433  10.752  0.00  0.00     0.090 A 
ATOM     38  C17 LIA d          -1.424  27.082  11.235  0.00  0.00     0.171 A 
ATOM     39  C18 LIA d          -2.714  26.499  11.434  0.00  0.00     0.156 A 
ATOM     40  F24 LIA d          -0.345  26.353  11.501  0.00  0.00    -0.202 F 
ATOM     41  C19 LIA d          -3.898  27.246  11.161  0.00  0.00    -0.040 A 
ATOM     42  F25 LIA d          -2.818  25.261  11.878  0.00  0.00    -0.203 F 
ATOM     43  C20 LIA d          -3.804  28.582  10.679  0.00  0.00    -0.047 A 
ATOM     44  H12 LIA d          -4.871  26.795  11.320  0.00  0.00     0.088 H 
ATOM     45  C21 LIA d          -2.514  29.205  10.464  0.00  0.00     0.085 A 
ATOM     46  H13 LIA d          -4.710  29.140  10.470  0.00  0.00     0.087 H 
BRANCH  45  47
ATOM     47  O22 LIA d          -2.377  30.526   9.982  0.00  0.00    -0.355 OA
BRANCH  47  48
ATOM     48  C23 LIA d          -2.719  31.531  10.969  0.00  0.00     0.010 C 
ATOM     49  H14 LIA d          -3.766  31.839  10.832  0.00  0.00     0.066 H 
ATOM     50  H15 LIA d          -2.062  32.404  10.846  0.00  0.00     0.066 H 
ATOM     51  H16 LIA d          -2.589  31.113  11.978  0.00  0.00     0.066 H 
ENDBRANCH  47  48
ENDBRANCH  45  47
ENDBRANCH  35  37
ENDBRANCH   5  35
TORSDOF 7
ENDMDL
MODEL 4
REMARK VINA RESULT:      -6.5      4.015      8.854
REMARK  7 active torsions:
REMARK  status: ('A' for Active; 'I' for Inactive)
REMARK    1  A    between atoms: N1_1  and  S27_27 
REMARK    2  A    between atoms: C4_4  and  N7_7 
REMARK    3  A    between atoms: C11_11  and  C14_14 
REMARK    4  A    between atoms: C14_14  and  C16_16 
REMARK    5  A    between atoms: C21_21  and  O22_22 
REMARK    6  A    between atoms: O22_22  and  C23_23 
REMARK    7  A    between atoms: S27_27  and  C28_28 
ROOT
ATOM      1  N7  LIA d          -0.530  25.810  12.327  0.00  0.00    -0.218 N 
ATOM      2  C8  LIA d           0.472  25.456  11.472  0.00  0.00     0.724 A 
ATOM      3  N9  LIA d           0.539  25.960  10.210  0.00  0.00    -0.074 NA
ATOM      4  C10 LIA d           1.510  25.616   9.422  0.00  0.00     0.038 A 
ATOM      5  C11 LIA d           2.558  24.695   9.823  0.00  0.00     0.079 A 
ATOM      6  C12 LIA d           2.445  24.174  11.167  0.00  0.00     0.156 A 
ATOM      7  N13 LIA d           1.395  24.575  11.959  0.00  0.00    -0.045 NA
ATOM      8  N26 LIA d           3.327  23.307  11.698  0.00  0.00    -0.383 N 
ATOM      9  H10 LIA d          -0.791  25.240  13.145  0.00  0.00     0.178 HD
ATOM     10  H11 LIA d           1.540  26.032   8.422  0.00  0.00     0.117 H 
ATOM     11  H17 LIA d           3.198  22.967  12.663  0.00  0.00     0.157 HD
ATOM     12  H18 LIA d           4.130  22.982  11.141  0.00  0.00     0.157 HD
ENDROOT
BRANCH   1  13
ATOM     13  C4  LIA d          -1.205  27.070  11.990  0.00  0.00     0.029 C 
ATOM     14  C3  LIA d          -0.136  28.193  11.956  0.00  0.00    -0.034 C 
ATOM     15  C2  LIA d          -0.750  29.518  11.458  0.00  0.00    -0.005 C 
ATOM     16  H3  LIA d           0.265  28.339  12.970  0.00  0.00     0.037 H 
ATOM     17  H4  LIA d           0.678  27.895  11.280  0.00  0.00     0.037 H 
ATOM     18  N1  LIA d          -1.331  29.318  10.101  0.00  0.00    -0.211 NA
ATOM     19  H1  LIA d          -1.541  29.839  12.152  0.00  0.00     0.057 H 
ATOM     20  H2  LIA d           0.032  30.290  11.411  0.00  0.00     0.057 H 
ATOM     21  C6  LIA d          -2.468  28.351  10.159  0.00  0.00    -0.005 C 
ATOM     22  C5  LIA d          -1.941  26.971  10.608  0.00  0.00    -0.034 C 
ATOM     23  H8  LIA d          -2.926  28.263   9.163  0.00  0.00     0.057 H 
ATOM     24  H9  LIA d          -3.219  28.709  10.878  0.00  0.00     0.057 H 
ATOM     25  H6  LIA d          -2.789  26.276  10.701  0.00  0.00     0.037 H 
ATOM     26  H7  LIA d          -1.237  26.592   9.852  0.00  0.00     0.037 H 
ATOM     27  H5  LIA d          -1.948  27.299  12.767  0.00  0.00     0.073 H 
BRANCH  18  28
ATOM     28  S27 LIA d          -1.823  30.799   9.433  0.00  0.00     0.207 S 
ATOM     29  O29 LIA d          -2.933  30.534   8.545  0.00  0.00    -0.212 OA
ATOM     30  O30 LIA d          -0.730  31.355   8.683  0.00  0.00    -0.212 OA
BRANCH  28  31
ATOM     31  C28 LIA d          -2.367  31.995  10.704  0.00  0.00     0.028 C 
ATOM     32  H19 LIA d          -2.767  32.894  10.213  0.00  0.00     0.050 H 
ATOM     33  H20 LIA d          -1.511  32.273  11.336  0.00  0.00     0.050 H 
ATOM     34  H21 LIA d          -3.150  31.537  11.326  0.00  0.00     0.050 H 
ENDBRANCH  28  31
ENDBRANCH  18  28
ENDBRANCH   1  13
BRANCH   5  35
ATOM     35  C14 LIA d           3.627  24.362   8.894  0.00  0.00     0.203 C 
ATOM     36  O15 LIA d           4.196  23.258   8.952  0.00  0.00    -0.286 OA
BRANCH  35  37
ATOM     37  C16 LIA d           4.075  25.309   7.898  0.00  0.00     0.090 A 
ATOM     38  C17 LIA d           4.369  26.663   8.292  0.00  0.00     0.171 A 
ATOM     39  C18 LIA d           4.824  27.615   7.327  0.00  0.00     0.156 A 
ATOM     40  F24 LIA d           4.222  27.052   9.555  0.00  0.00    -0.202 F 
ATOM     41  C19 LIA d           4.996  27.240   5.962  0.00  0.00    -0.040 A 
ATOM     42  F25 LIA d           5.092  28.854   7.697  0.00  0.00    -0.203 F 
ATOM     43  C20 LIA d           4.709  25.909   5.546  0.00  0.00    -0.047 A 
ATOM     44  H12 LIA d           5.346  27.969   5.241  0.00  0.00     0.088 H 
ATOM     45  C21 LIA d           4.246  24.918   6.495  0.00  0.00     0.085 A 
ATOM     46  H13 LIA d           4.840  25.635   4.505  0.00  0.00     0.087 H 
BRANCH  45  47
ATOM     47  O22 LIA d           3.945  23.589   6.122  0.00  0.00    -0.355 OA
BRANCH  47  48
ATOM     48  C23 LIA d           3.935  23.387   4.687  0.00  0.00     0.010 C 
ATOM     49  H14 LIA d           4.719  22.667   4.412  0.00  0.00     0.066 H 
ATOM     50  H15 LIA d           4.123  24.345   4.180  0.00  0.00     0.066 H 
ATOM     51  H16 LIA d           2.954  22.997   4.379  0.00  0.00     0.066 H 
ENDBRANCH  47  48
ENDBRANCH  45  47
ENDBRANCH  35  37
ENDBRANCH   5  35
TORSDOF 7
ENDMDL
MODEL 5
REMARK VINA RESULT:      -6.0      3.265      4.791
REMARK  7 active torsions:
REMARK  status: ('A' for Active; 'I' for Inactive)
REMARK    1  A    between atoms: N1_1  and  S27_27 
REMARK    2  A    between atoms: C4_4  and  N7_7 
REMARK    3  A    between atoms: C11_11  and  C14_14 
REMARK    4  A    between atoms: C14_14  and  C16_16 
REMARK    5  A    between atoms: C21_21  and  O22_22 
REMARK    6  A    between atoms: O22_22  and  C23_23 
REMARK    7  A    between atoms: S27_27  and  C28_28 
ROOT
ATOM      1  N7  LIA d           1.932  23.898  10.358  0.00  0.00    -0.218 N 
ATOM      2  C8  LIA d           0.870  24.720  10.596  0.00  0.00     0.724 A 
ATOM      3  N9  LIA d           0.657  25.839   9.851  0.00  0.00    -0.074 NA
ATOM      4  C10 LIA d          -0.369  26.596  10.092  0.00  0.00     0.038 A 
ATOM      5  C11 LIA d          -1.327  26.308  11.143  0.00  0.00     0.079 A 
ATOM      6  C12 LIA d          -1.060  25.117  11.918  0.00  0.00     0.156 A 
ATOM      7  N13 LIA d           0.042  24.351  11.617  0.00  0.00    -0.045 NA
ATOM      8  N26 LIA d          -1.843  24.705  12.932  0.00  0.00    -0.383 N 
ATOM      9  H10 LIA d           2.299  23.244  11.063  0.00  0.00     0.178 HD
ATOM     10  H11 LIA d          -0.516  27.480   9.483  0.00  0.00     0.117 H 
ATOM     11  H17 LIA d          -1.606  23.848  13.452  0.00  0.00     0.157 HD
ATOM     12  H18 LIA d          -2.681  25.247  13.189  0.00  0.00     0.157 HD
ENDROOT
BRANCH   1  13
ATOM     13  C4  LIA d           2.511  24.022   9.013  0.00  0.00     0.029 C 
ATOM     14  C3  LIA d           3.320  25.343   8.959  0.00  0.00    -0.034 C 
ATOM     15  C2  LIA d           4.082  25.464   7.622  0.00  0.00    -0.005 C 
ATOM     16  H3  LIA d           2.630  26.193   9.059  0.00  0.00     0.037 H 
ATOM     17  H4  LIA d           4.042  25.357   9.789  0.00  0.00     0.037 H 
ATOM     18  N1  LIA d           4.991  24.294   7.460  0.00  0.00    -0.211 NA
ATOM     19  H1  LIA d           3.362  25.486   6.791  0.00  0.00     0.057 H 
ATOM     20  H2  LIA d           4.674  26.390   7.620  0.00  0.00     0.057 H 
ATOM     21  C6  LIA d           4.200  23.032   7.354  0.00  0.00    -0.005 C 
ATOM     22  C5  LIA d           3.431  22.799   8.672  0.00  0.00    -0.034 C 
ATOM     23  H8  LIA d           4.879  22.187   7.171  0.00  0.00     0.057 H 
ATOM     24  H9  LIA d           3.485  23.114   6.522  0.00  0.00     0.057 H 
ATOM     25  H6  LIA d           2.809  21.897   8.571  0.00  0.00     0.037 H 
ATOM     26  H7  LIA d           4.155  22.656   9.489  0.00  0.00     0.037 H 
ATOM     27  H5  LIA d           1.697  24.065   8.274  0.00  0.00     0.073 H 
BRANCH  18  28
ATOM     28  S27 LIA d           5.999  24.499   6.110  0.00  0.00     0.207 S 
ATOM     29  O29 LIA d           6.176  23.203   5.493  0.00  0.00    -0.212 OA
ATOM     30  O30 LIA d           7.272  24.998   6.553  0.00  0.00    -0.212 OA
BRANCH  28  31
ATOM     31  C28 LIA d           5.289  25.640   4.872  0.00  0.00     0.028 C 
ATOM     32  H19 LIA d           5.959  25.699   4.001  0.00  0.00     0.050 H 
ATOM     33  H20 LIA d           5.177  26.640   5.316  0.00  0.00     0.050 H 
ATOM     34  H21 LIA d           4.305  25.268   4.552  0.00  0.00     0.050 H 
ENDBRANCH  28  31
ENDBRANCH  18  28
ENDBRANCH   1  13
BRANCH   5  35
ATOM     35  C14 LIA d          -2.465  27.191  11.351  0.00  0.00     0.203 C 
ATOM     36  O15 LIA d          -3.490  26.781  11.923  0.00  0.00    -0.286 OA
BRANCH  35  37
ATOM     37  C16 LIA d          -2.448  28.557  10.878  0.00  0.00     0.090 A 
ATOM     38  C17 LIA d          -3.318  28.942   9.797  0.00  0.00     0.171 A 
ATOM     39  C18 LIA d          -3.326  30.290   9.319  0.00  0.00     0.156 A 
ATOM     40  F24 LIA d          -4.124  28.055   9.222  0.00  0.00    -0.202 F 
ATOM     41  C19 LIA d          -2.477  31.273   9.906  0.00  0.00    -0.040 A 
ATOM     42  F25 LIA d          -4.127  30.634   8.328  0.00  0.00    -0.203 F 
ATOM     43  C20 LIA d          -1.605  30.919  10.974  0.00  0.00    -0.047 A 
ATOM     44  H12 LIA d          -2.496  32.293   9.539  0.00  0.00     0.088 H 
ATOM     45  C21 LIA d          -1.569  29.563  11.483  0.00  0.00     0.085 A 
ATOM     46  H13 LIA d          -0.961  31.673  11.411  0.00  0.00     0.087 H 
BRANCH  45  47
ATOM     47  O22 LIA d          -0.715  29.168  12.538  0.00  0.00    -0.355 OA
BRANCH  47  48
ATOM     48  C23 LIA d           0.687  29.179  12.171  0.00  0.00     0.010 C 
ATOM     49  H14 LIA d           0.790  28.922  11.107  0.00  0.00     0.066 H 
ATOM     50  H15 LIA d           1.231  28.442  12.780  0.00  0.00     0.066 H 
ATOM     51  H16 LIA d           1.105  30.181  12.349  0.00  0.00     0.066 H 
ENDBRANCH  47  48
ENDBRANCH  45  47
ENDBRANCH  35  37
ENDBRANCH   5  35
TORSDOF 7
ENDMDL
MODEL 6
REMARK VINA RESULT:      -5.9      4.651      9.109
REMARK  7 active torsions:
REMARK  status: ('A' for Active; 'I' for Inactive)
REMARK    1  A    between atoms: N1_1  and  S27_27 
REMARK    2  A    between atoms: C4_4  and  N7_7 
REMARK    3  A    between atoms: C11_11  and  C14_14 
REMARK    4  A    between atoms: C14_14  and  C16_16 
REMARK    5  A    between atoms: C21_21  and  O22_22 
REMARK    6  A    between atoms: O22_22  and  C23_23 
REMARK    7  A    between atoms: S27_27  and  C28_28 
ROOT
ATOM      1  N7  LIA d          -0.442  25.914  12.969  0.00  0.00    -0.218 N 
ATOM      2  C8  LIA d           0.332  25.458  11.943  0.00  0.00     0.724 A 
ATOM      3  N9  LIA d           0.032  25.744  10.647  0.00  0.00    -0.074 NA
ATOM      4  C10 LIA d           0.793  25.307   9.692  0.00  0.00     0.038 A 
ATOM      5  C11 LIA d           1.979  24.507   9.936  0.00  0.00     0.079 A 
ATOM      6  C12 LIA d           2.258  24.217  11.325  0.00  0.00     0.156 A 
ATOM      7  N13 LIA d           1.416  24.708  12.296  0.00  0.00    -0.045 NA
ATOM      8  N26 LIA d           3.313  23.487  11.729  0.00  0.00    -0.383 N 
ATOM      9  H10 LIA d          -0.439  25.481  13.904  0.00  0.00     0.178 HD
ATOM     10  H11 LIA d           0.533  25.549   8.668  0.00  0.00     0.117 H 
ATOM     11  H17 LIA d           3.464  23.310  12.733  0.00  0.00     0.157 HD
ATOM     12  H18 LIA d           3.970  23.103  11.035  0.00  0.00     0.157 HD
ENDROOT
BRANCH   1  13
ATOM     13  C4  LIA d          -1.281  27.073  12.634  0.00  0.00     0.029 C 
ATOM     14  C3  LIA d          -0.353  28.203  12.120  0.00  0.00    -0.034 C 
ATOM     15  C2  LIA d          -1.182  29.399  11.604  0.00  0.00    -0.005 C 
ATOM     16  H3  LIA d           0.295  28.540  12.942  0.00  0.00     0.037 H 
ATOM     17  H4  LIA d           0.268  27.815  11.299  0.00  0.00     0.037 H 
ATOM     18  N1  LIA d          -2.091  28.943  10.517  0.00  0.00    -0.211 NA
ATOM     19  H1  LIA d          -1.778  29.815  12.431  0.00  0.00     0.057 H 
ATOM     20  H2  LIA d          -0.505  30.174  11.215  0.00  0.00     0.057 H 
ATOM     21  C6  LIA d          -3.090  27.967  11.048  0.00  0.00    -0.005 C 
ATOM     22  C5  LIA d          -2.354  26.707  11.550  0.00  0.00    -0.034 C 
ATOM     23  H8  LIA d          -3.792  27.689  10.250  0.00  0.00     0.057 H 
ATOM     24  H9  LIA d          -3.643  28.425  11.881  0.00  0.00     0.057 H 
ATOM     25  H6  LIA d          -3.087  26.014  11.989  0.00  0.00     0.037 H 
ATOM     26  H7  LIA d          -1.853  26.220  10.699  0.00  0.00     0.037 H 
ATOM     27  H5  LIA d          -1.801  27.414  13.541  0.00  0.00     0.073 H 
BRANCH  18  28
ATOM     28  S27 LIA d          -2.860  30.265   9.782  0.00  0.00     0.207 S 
ATOM     29  O29 LIA d          -4.228  29.882   9.508  0.00  0.00    -0.212 OA
ATOM     30  O30 LIA d          -2.189  30.565   8.546  0.00  0.00    -0.212 OA
BRANCH  28  31
ATOM     31  C28 LIA d          -2.875  31.749  10.848  0.00  0.00     0.028 C 
ATOM     32  H19 LIA d          -3.702  32.409  10.547  0.00  0.00     0.050 H 
ATOM     33  H20 LIA d          -1.921  32.286  10.742  0.00  0.00     0.050 H 
ATOM     34  H21 LIA d          -3.012  31.446  11.897  0.00  0.00     0.050 H 
ENDBRANCH  28  31
ENDBRANCH  18  28
ENDBRANCH   1  13
BRANCH   5  35
ATOM     35  C14 LIA d           2.799  24.062   8.818  0.00  0.00     0.203 C 
ATOM     36  O15 LIA d           2.496  23.040   8.179  0.00  0.00    -0.286 OA
BRANCH  35  37
ATOM     37  C16 LIA d           3.996  24.777   8.437  0.00  0.00     0.090 A 
ATOM     38  C17 LIA d           5.258  24.082   8.417  0.00  0.00     0.171 A 
ATOM     39  C18 LIA d           6.454  24.765   8.033  0.00  0.00     0.156 A 
ATOM     40  F24 LIA d           5.335  22.799   8.756  0.00  0.00    -0.202 F 
ATOM     41  C19 LIA d           6.416  26.142   7.662  0.00  0.00    -0.040 A 
ATOM     42  F25 LIA d           7.606  24.121   8.016  0.00  0.00    -0.203 F 
ATOM     43  C20 LIA d           5.183  26.852   7.677  0.00  0.00    -0.047 A 
ATOM     44  H12 LIA d           7.329  26.648   7.368  0.00  0.00     0.088 H 
ATOM     45  C21 LIA d           3.952  26.194   8.062  0.00  0.00     0.085 A 
ATOM     46  H13 LIA d           5.166  27.899   7.397  0.00  0.00     0.087 H 
BRANCH  45  47
ATOM     47  O22 LIA d           2.708  26.863   8.094  0.00  0.00    -0.355 OA
BRANCH  47  48
ATOM     48  C23 LIA d           2.831  28.302   7.968  0.00  0.00     0.010 C 
ATOM     49  H14 LIA d           1.853  28.733   7.708  0.00  0.00     0.066 H 
ATOM     50  H15 LIA d           3.558  28.540   7.177  0.00  0.00     0.066 H 
ATOM     51  H16 LIA d           3.177  28.726   8.922  0.00  0.00     0.066 H 
ENDBRANCH  47  48
ENDBRANCH  45  47
ENDBRANCH  35  37
ENDBRANCH   5  35
TORSDOF 7
ENDMDL
MODEL 7
REMARK VINA RESULT:      -5.9      4.443      8.416
REMARK  7 active torsions:
REMARK  status: ('A' for Active; 'I' for Inactive)
REMARK    1  A    between atoms: N1_1  and  S27_27 
REMARK    2  A    between atoms: C4_4  and  N7_7 
REMARK    3  A    between atoms: C11_11  and  C14_14 
REMARK    4  A    between atoms: C14_14  and  C16_16 
REMARK    5  A    between atoms: C21_21  and  O22_22 
REMARK    6  A    between atoms: O22_22  and  C23_23 
REMARK    7  A    between atoms: S27_27  and  C28_28 
ROOT
ATOM      1  N7  LIA d           0.630  28.754  10.343  0.00  0.00    -0.218 N 
ATOM      2  C8  LIA d           1.426  28.300   9.333  0.00  0.00     0.724 A 
ATOM      3  N9  LIA d           1.984  27.059   9.372  0.00  0.00    -0.074 NA
ATOM      4  C10 LIA d           2.728  26.649   8.391  0.00  0.00     0.038 A 
ATOM      5  C11 LIA d           3.006  27.463   7.222  0.00  0.00     0.079 A 
ATOM      6  C12 LIA d           2.402  28.777   7.224  0.00  0.00     0.156 A 
ATOM      7  N13 LIA d           1.622  29.159   8.290  0.00  0.00    -0.045 NA
ATOM      8  N26 LIA d           2.560  29.662   6.222  0.00  0.00    -0.383 N 
ATOM      9  H10 LIA d           0.450  29.755  10.503  0.00  0.00     0.178 HD
ATOM     10  H11 LIA d           3.160  25.657   8.447  0.00  0.00     0.117 H 
ATOM     11  H17 LIA d           2.106  30.586   6.274  0.00  0.00     0.157 HD
ATOM     12  H18 LIA d           3.133  29.416   5.402  0.00  0.00     0.157 HD
ENDROOT
BRANCH   1  13
ATOM     13  C4  LIA d           0.048  27.699  11.184  0.00  0.00     0.029 C 
ATOM     14  C3  LIA d          -1.372  27.385  10.646  0.00  0.00    -0.034 C 
ATOM     15  C2  LIA d          -1.984  26.178  11.388  0.00  0.00    -0.005 C 
ATOM     16  H3  LIA d          -2.016  28.264  10.794  0.00  0.00     0.037 H 
ATOM     17  H4  LIA d          -1.308  27.154   9.573  0.00  0.00     0.037 H 
ATOM     18  N1  LIA d          -1.096  24.992  11.226  0.00  0.00    -0.211 NA
ATOM     19  H1  LIA d          -2.083  26.418  12.457  0.00  0.00     0.057 H 
ATOM     20  H2  LIA d          -2.975  25.954  10.969  0.00  0.00     0.057 H 
ATOM     21  C6  LIA d           0.223  25.236  11.884  0.00  0.00    -0.005 C 
ATOM     22  C5  LIA d           0.937  26.406  11.175  0.00  0.00    -0.034 C 
ATOM     23  H8  LIA d           0.842  24.330  11.811  0.00  0.00     0.057 H 
ATOM     24  H9  LIA d           0.065  25.488  12.942  0.00  0.00     0.057 H 
ATOM     25  H6  LIA d           1.883  26.617  11.695  0.00  0.00     0.037 H 
ATOM     26  H7  LIA d           1.147  26.122  10.133  0.00  0.00     0.037 H 
ATOM     27  H5  LIA d          -0.028  28.065  12.218  0.00  0.00     0.073 H 
BRANCH  18  28
ATOM     28  S27 LIA d          -1.838  23.597  11.845  0.00  0.00     0.207 S 
ATOM     29  O29 LIA d          -0.839  22.856  12.582  0.00  0.00    -0.212 OA
ATOM     30  O30 LIA d          -2.315  22.799  10.747  0.00  0.00    -0.212 OA
BRANCH  28  31
ATOM     31  C28 LIA d          -3.225  23.981  12.972  0.00  0.00     0.028 C 
ATOM     32  H19 LIA d          -3.530  25.029  12.834  0.00  0.00     0.050 H 
ATOM     33  H20 LIA d          -2.904  23.827  14.013  0.00  0.00     0.050 H 
ATOM     34  H21 LIA d          -4.074  23.319  12.748  0.00  0.00     0.050 H 
ENDBRANCH  28  31
ENDBRANCH  18  28
ENDBRANCH   1  13
BRANCH   5  35
ATOM     35  C14 LIA d           3.836  26.936   6.150  0.00  0.00     0.203 C 
ATOM     36  O15 LIA d           3.682  27.325   4.979  0.00  0.00    -0.286 OA
BRANCH  35  37
ATOM     37  C16 LIA d           4.842  25.931   6.408  0.00  0.00     0.090 A 
ATOM     38  C17 LIA d           5.846  26.177   7.411  0.00  0.00     0.171 A 
ATOM     39  C18 LIA d           6.846  25.194   7.692  0.00  0.00     0.156 A 
ATOM     40  F24 LIA d           5.864  27.320   8.091  0.00  0.00    -0.202 F 
ATOM     41  C19 LIA d           6.864  23.955   6.986  0.00  0.00    -0.040 A 
ATOM     42  F25 LIA d           7.762  25.427   8.613  0.00  0.00    -0.203 F 
ATOM     43  C20 LIA d           5.885  23.688   5.988  0.00  0.00    -0.047 A 
ATOM     44  H12 LIA d           7.624  23.215   7.211  0.00  0.00     0.088 H 
ATOM     45  C21 LIA d           4.858  24.660   5.676  0.00  0.00     0.085 A 
ATOM     46  H13 LIA d           5.909  22.744   5.455  0.00  0.00     0.087 H 
BRANCH  45  47
ATOM     47  O22 LIA d           3.872  24.437   4.689  0.00  0.00    -0.355 OA
BRANCH  47  48
ATOM     48  C23 LIA d           3.710  23.036   4.351  0.00  0.00     0.010 C 
ATOM     49  H14 LIA d           4.399  22.431   4.958  0.00  0.00     0.066 H 
ATOM     50  H15 LIA d           3.934  22.887   3.285  0.00  0.00     0.066 H 
ATOM     51  H16 LIA d           2.674  22.728   4.555  0.00  0.00     0.066 H 
ENDBRANCH  47  48
ENDBRANCH  45  47
ENDBRANCH  35  37
ENDBRANCH   5  35
TORSDOF 7
ENDMDL
