MODEL 1
REMARK VINA RESULT:      -5.0      0.000      0.000
REMARK  4 active torsions:
REMARK  status: ('A' for Active; 'I' for Inactive)
REMARK    1  A    between atoms: C1_1  and  P1_8 
REMARK    2  A    between atoms: N1_10  and  C1_1 
REMARK    3  A    between atoms: C2_2  and  C3_3 
REMARK    4  A    between atoms: C2_2  and  N1_10 
ROOT
ATOM      1  N1  GPF d          60.377   8.171  29.288  0.00  0.00    -0.053 N 
ATOM      2  H5  GPF d          61.367   8.357  29.265  0.00  0.00     0.278 HD
ATOM      3  H6  GPF d          60.223   7.179  29.384  0.00  0.00     0.278 HD
ENDROOT
BRANCH   1   4
ATOM      4  C1  GPF d          59.841   8.561  28.014  0.00  0.00     0.183 C 
ATOM      5  H1  GPF d          59.428   7.677  27.507  0.00  0.00     0.097 H 
ATOM      6  H2  GPF d          59.043   9.302  28.166  0.00  0.00     0.097 H 
BRANCH   4   7
ATOM      7  P1  GPF d          61.062   9.243  27.045  0.00  0.00     0.285 P 
ATOM      8  O1  GPF d          62.054   9.980  27.916  0.00  0.00    -0.638 OA
ATOM      9  O2  GPF d          60.296  10.144  26.113  0.00  0.00    -0.638 OA
ATOM     10  O3  GPF d          61.736   8.052  26.350  0.00  0.00    -0.638 OA
ENDBRANCH   4   7
ENDBRANCH   1   4
BRANCH   1  11
ATOM     11  C2  GPF d          59.850   8.802  30.481  0.00  0.00     0.161 C 
ATOM     12  H3  GPF d          59.345   9.739  30.202  0.00  0.00     0.092 H 
ATOM     13  H4  GPF d          59.128   8.125  30.961  0.00  0.00     0.092 H 
BRANCH  11  14
ATOM     14  C3  GPF d          60.924   9.097  31.413  0.00  0.00     0.199 C 
ATOM     15  O4  GPF d          61.668  10.144  31.206  0.00  0.00    -0.647 OA
ATOM     16  O5  GPF d          61.031   8.330  32.333  0.00  0.00    -0.647 OA
ENDBRANCH  11  14
ENDBRANCH   1  11
TORSDOF 4
ENDMDL
MODEL 2
REMARK VINA RESULT:      -3.0      1.693      4.350
REMARK  4 active torsions:
REMARK  status: ('A' for Active; 'I' for Inactive)
REMARK    1  A    between atoms: C1_1  and  P1_8 
REMARK    2  A    between atoms: N1_10  and  C1_1 
REMARK    3  A    between atoms: C2_2  and  C3_3 
REMARK    4  A    between atoms: C2_2  and  N1_10 
ROOT
ATOM      1  N1  GPF d          60.189   7.638  28.649  0.00  0.00    -0.053 N 
ATOM      2  H5  GPF d          60.040   6.685  28.357  0.00  0.00     0.278 HD
ATOM      3  H6  GPF d          61.177   7.839  28.649  0.00  0.00     0.278 HD
ENDROOT
BRANCH   1   4
ATOM      4  C1  GPF d          59.737   7.742  30.009  0.00  0.00     0.183 C 
ATOM      5  H1  GPF d          58.658   7.955  30.016  0.00  0.00     0.097 H 
ATOM      6  H2  GPF d          59.926   6.791  30.528  0.00  0.00     0.097 H 
BRANCH   4   7
ATOM      7  P1  GPF d          60.562   8.994  30.812  0.00  0.00     0.285 P 
ATOM      8  O1  GPF d          61.767   9.414  30.002  0.00  0.00    -0.638 OA
ATOM      9  O2  GPF d          60.916   8.374  32.137  0.00  0.00    -0.638 OA
ATOM     10  O3  GPF d          59.550  10.144  30.910  0.00  0.00    -0.638 OA
ENDBRANCH   4   7
ENDBRANCH   1   4
BRANCH   1  11
ATOM     11  C2  GPF d          59.578   8.492  27.651  0.00  0.00     0.161 C 
ATOM     12  H3  GPF d          58.864   7.902  27.058  0.00  0.00     0.092 H 
ATOM     13  H4  GPF d          59.046   9.313  28.153  0.00  0.00     0.092 H 
BRANCH  11  14
ATOM     14  C3  GPF d          60.592   9.045  26.770  0.00  0.00     0.199 C 
ATOM     15  O4  GPF d          61.699   8.385  26.593  0.00  0.00    -0.647 OA
ATOM     16  O5  GPF d          60.307  10.092  26.252  0.00  0.00    -0.647 OA
ENDBRANCH  11  14
ENDBRANCH   1  11
TORSDOF 4
ENDMDL
MODEL 3
REMARK VINA RESULT:      -2.6      1.695      4.143
REMARK  4 active torsions:
REMARK  status: ('A' for Active; 'I' for Inactive)
REMARK    1  A    between atoms: C1_1  and  P1_8 
REMARK    2  A    between atoms: N1_10  and  C1_1 
REMARK    3  A    between atoms: C2_2  and  C3_3 
REMARK    4  A    between atoms: C2_2  and  N1_10 
ROOT
ATOM      1  N1  GPF d          60.172   7.692  28.676  0.00  0.00    -0.053 N 
ATOM      2  H5  GPF d          60.110   6.705  28.483  0.00  0.00     0.278 HD
ATOM      3  H6  GPF d          61.141   7.969  28.702  0.00  0.00     0.278 HD
ENDROOT
BRANCH   1   4
ATOM      4  C1  GPF d          59.636   7.902  29.992  0.00  0.00     0.183 C 
ATOM      5  H1  GPF d          58.622   8.319  29.908  0.00  0.00     0.097 H 
ATOM      6  H2  GPF d          59.595   6.941  30.525  0.00  0.00     0.097 H 
BRANCH   4   7
ATOM      7  P1  GPF d          60.618   8.985  30.864  0.00  0.00     0.285 P 
ATOM      8  O1  GPF d          61.125   8.316  32.121  0.00  0.00    -0.638 OA
ATOM      9  O2  GPF d          59.694  10.143  31.132  0.00  0.00    -0.638 OA
ATOM     10  O3  GPF d          61.782   9.318  29.923  0.00  0.00    -0.638 OA
ENDBRANCH   4   7
ENDBRANCH   1   4
BRANCH   1  11
ATOM     11  C2  GPF d          59.559   8.385  27.562  0.00  0.00     0.161 C 
ATOM     12  H3  GPF d          58.995   7.664  26.953  0.00  0.00     0.092 H 
ATOM     13  H4  GPF d          58.873   9.155  27.947  0.00  0.00     0.092 H 
BRANCH  11  14
ATOM     14  C3  GPF d          60.575   9.018  26.739  0.00  0.00     0.199 C 
ATOM     15  O4  GPF d          60.291  10.136  26.137  0.00  0.00    -0.647 OA
ATOM     16  O5  GPF d          61.630   8.442  26.691  0.00  0.00    -0.647 OA
ENDBRANCH  11  14
ENDBRANCH   1  11
TORSDOF 4
ENDMDL
