MODEL 1
REMARK VINA RESULT:      -7.5      0.000      0.000
REMARK  4 active torsions:
REMARK  status: ('A' for Active; 'I' for Inactive)
REMARK    1  A    between atoms: C15_2  and  C16_23 
REMARK    2  A    between atoms: C04_13  and  C02_11 
REMARK    3  A    between atoms: N08_17  and  C07_16 
REMARK    4  A    between atoms: C09_18  and  N08_17 
ROOT
ATOM      1  C13 ZZL d           0.303  -8.694  -4.029  0.00  0.00     0.043 C 
ATOM      2  C15 ZZL d           1.869 -10.551  -3.997  0.00  0.00     0.079 C 
ATOM      3  C24 ZZL d           3.159  -9.827  -4.289  0.00  0.00     0.007 A 
ATOM      4  C26 ZZL d           5.311  -9.742  -5.339  0.00  0.00     0.035 A 
ATOM      5  C28 ZZL d           5.546  -8.480  -4.760  0.00  0.00    -0.061 A 
ATOM      6  C09 ZZL d           2.286  -6.233  -1.237  0.00  0.00     0.727 A 
ATOM      7  N10 ZZL d           0.902  -6.258  -1.301  0.00  0.00    -0.074 NA
ATOM      8  C11 ZZL d           0.296  -7.064  -2.203  0.00  0.00     0.031 A 
ATOM      9  C12 ZZL d           1.065  -7.836  -3.010  0.00  0.00     0.010 A 
ATOM     10  N14 ZZL d           0.702 -10.073  -3.913  0.00  0.00    -0.283 NA
ATOM     11  C25 ZZL d           4.113 -10.422  -5.096  0.00  0.00    -0.049 A 
ATOM     12 CL1  ZZL d           6.493 -10.500  -6.437  0.00  0.00    -0.084 Cl
ATOM     13  C29 ZZL d           4.581  -7.886  -3.940  0.00  0.00    -0.068 A 
ATOM     14  C30 ZZL d           3.386  -8.573  -3.705  0.00  0.00     0.007 A 
ATOM     15  C31 ZZL d           2.470  -7.818  -2.933  0.00  0.00     0.096 A 
ATOM     16  N32 ZZL d           3.077  -7.022  -2.073  0.00  0.00    -0.061 NA
ATOM     17  H1  ZZL d           0.527  -8.335  -5.045  0.00  0.00     0.074 H 
ATOM     18  H2  ZZL d          -0.777  -8.610  -3.840  0.00  0.00     0.074 H 
ATOM     19  H5  ZZL d           6.480  -7.965  -4.951  0.00  0.00     0.086 H 
ATOM     20  H9  ZZL d          -0.785  -7.093  -2.279  0.00  0.00     0.116 H 
ATOM     21  H11 ZZL d           3.935 -11.398  -5.532  0.00  0.00     0.087 H 
ATOM     22  H12 ZZL d           4.755  -6.913  -3.495  0.00  0.00     0.085 H 
ENDROOT
BRANCH   6  23
ATOM     23  N08 ZZL d           2.930  -5.334  -0.321  0.00  0.00    -0.188 N 
ATOM     24  H8  ZZL d           2.300  -5.031   0.435  0.00  0.00     0.184 HD
BRANCH  23  25
ATOM     25  C07 ZZL d           4.243  -4.752  -0.202  0.00  0.00     0.049 A 
ATOM     26  C06 ZZL d           5.141  -4.914  -1.267  0.00  0.00    -0.056 A 
ATOM     27  C05 ZZL d           6.377  -4.268  -1.227  0.00  0.00    -0.064 A 
ATOM     28  H7  ZZL d           4.876  -5.537  -2.113  0.00  0.00     0.087 H 
ATOM     29  C04 ZZL d           6.692  -3.474  -0.121  0.00  0.00     0.041 A 
ATOM     30  H6  ZZL d           7.082  -4.380  -2.042  0.00  0.00     0.085 H 
ATOM     31  C34 ZZL d           5.794  -3.311   0.935  0.00  0.00    -0.064 A 
ATOM     32  C33 ZZL d           4.555  -3.953   0.895  0.00  0.00    -0.056 A 
ATOM     33  H14 ZZL d           6.058  -2.689   1.782  0.00  0.00     0.085 H 
ATOM     34  H13 ZZL d           3.846  -3.830   1.706  0.00  0.00     0.087 H 
BRANCH  29  35
ATOM     35  C02 ZZL d           8.035  -2.775  -0.073  0.00  0.00     0.209 C 
ATOM     36  O01 ZZL d           8.642  -2.630  -1.076  0.00  0.00    -0.644 OA
ATOM     37  O03 ZZL d           8.535  -2.313   1.147  0.00  0.00    -0.644 OA
ENDBRANCH  29  35
ENDBRANCH  23  25
ENDBRANCH   6  23
BRANCH   2  38
ATOM     38  C16 ZZL d           2.145 -12.031  -3.771  0.00  0.00     0.070 A 
ATOM     39  C17 ZZL d           2.868 -12.450  -2.652  0.00  0.00     0.132 A 
ATOM     40  F18 ZZL d           3.253 -11.542  -1.714  0.00  0.00    -0.205 F 
ATOM     41  C19 ZZL d           3.166 -13.805  -2.472  0.00  0.00    -0.045 A 
ATOM     42  C20 ZZL d           2.737 -14.753  -3.407  0.00  0.00    -0.077 A 
ATOM     43  H10 ZZL d           3.732 -14.122  -1.604  0.00  0.00     0.088 H 
ATOM     44  C21 ZZL d           2.009 -14.339  -4.527  0.00  0.00    -0.045 A 
ATOM     45  H3  ZZL d           2.968 -15.803  -3.264  0.00  0.00     0.083 H 
ATOM     46  C22 ZZL d           1.718 -12.980  -4.709  0.00  0.00     0.132 A 
ATOM     47  H4  ZZL d           1.670 -15.068  -5.253  0.00  0.00     0.088 H 
ATOM     48  F23 ZZL d           0.982 -12.584  -5.786  0.00  0.00    -0.205 F 
ENDBRANCH   2  38
TORSDOF 4
ENDMDL
MODEL 2
REMARK VINA RESULT:      -6.4      2.832      4.285
REMARK  4 active torsions:
REMARK  status: ('A' for Active; 'I' for Inactive)
REMARK    1  A    between atoms: C15_2  and  C16_23 
REMARK    2  A    between atoms: C04_13  and  C02_11 
REMARK    3  A    between atoms: N08_17  and  C07_16 
REMARK    4  A    between atoms: C09_18  and  N08_17 
ROOT
ATOM      1  C13 ZZL d           4.790 -10.732  -6.393  0.00  0.00     0.043 C 
ATOM      2  C15 ZZL d           2.682 -11.143  -5.259  0.00  0.00     0.079 C 
ATOM      3  C24 ZZL d           3.175 -11.804  -3.996  0.00  0.00     0.007 A 
ATOM      4  C26 ZZL d           2.920 -13.436  -2.260  0.00  0.00     0.035 A 
ATOM      5  C28 ZZL d           4.091 -12.959  -1.638  0.00  0.00    -0.061 A 
ATOM      6  C09 ZZL d           6.718  -8.655  -3.270  0.00  0.00     0.727 A 
ATOM      7  N10 ZZL d           6.946  -8.313  -4.593  0.00  0.00    -0.074 NA
ATOM      8  C11 ZZL d           6.306  -8.994  -5.572  0.00  0.00     0.031 A 
ATOM      9  C12 ZZL d           5.447  -9.985  -5.226  0.00  0.00     0.010 A 
ATOM     10  N14 ZZL d           3.358 -10.726  -6.243  0.00  0.00    -0.283 NA
ATOM     11  C25 ZZL d           2.456 -12.849  -3.443  0.00  0.00    -0.049 A 
ATOM     12 CL1  ZZL d           2.015 -14.825  -1.606  0.00  0.00    -0.084 Cl
ATOM     13  C29 ZZL d           4.809 -11.897  -2.199  0.00  0.00    -0.068 A 
ATOM     14  C30 ZZL d           4.338 -11.320  -3.381  0.00  0.00     0.007 A 
ATOM     15  C31 ZZL d           5.208 -10.320  -3.880  0.00  0.00     0.096 A 
ATOM     16  N32 ZZL d           5.841  -9.680  -2.914  0.00  0.00    -0.061 NA
ATOM     17  H1  ZZL d           5.150 -11.770  -6.409  0.00  0.00     0.074 H 
ATOM     18  H2  ZZL d           5.058 -10.237  -7.339  0.00  0.00     0.074 H 
ATOM     19  H5  ZZL d           4.437 -13.417  -0.720  0.00  0.00     0.086 H 
ATOM     20  H9  ZZL d           6.476  -8.752  -6.615  0.00  0.00     0.116 H 
ATOM     21  H11 ZZL d           1.550 -13.207  -3.917  0.00  0.00     0.087 H 
ATOM     22  H12 ZZL d           5.712 -11.529  -1.726  0.00  0.00     0.085 H 
ENDROOT
BRANCH   6  23
ATOM     23  N08 ZZL d           7.442  -7.974  -2.234  0.00  0.00    -0.188 N 
ATOM     24  H8  ZZL d           8.288  -8.488  -1.948  0.00  0.00     0.184 HD
BRANCH  23  25
ATOM     25  C07 ZZL d           7.274  -6.747  -1.496  0.00  0.00     0.049 A 
ATOM     26  C06 ZZL d           8.340  -5.836  -1.471  0.00  0.00    -0.056 A 
ATOM     27  C05 ZZL d           8.167  -4.594  -0.860  0.00  0.00    -0.064 A 
ATOM     28  H7  ZZL d           9.291  -6.096  -1.923  0.00  0.00     0.087 H 
ATOM     29  C04 ZZL d           6.931  -4.288  -0.284  0.00  0.00     0.041 A 
ATOM     30  H6  ZZL d           8.979  -3.877  -0.833  0.00  0.00     0.085 H 
ATOM     31  C34 ZZL d           5.872  -5.196  -0.315  0.00  0.00    -0.064 A 
ATOM     32  C33 ZZL d           6.041  -6.437  -0.930  0.00  0.00    -0.056 A 
ATOM     33  H14 ZZL d           4.921  -4.937   0.137  0.00  0.00     0.085 H 
ATOM     34  H13 ZZL d           5.224  -7.149  -0.966  0.00  0.00     0.087 H 
BRANCH  29  35
ATOM     35  C02 ZZL d           6.742  -2.942   0.384  0.00  0.00     0.209 C 
ATOM     36  O01 ZZL d           5.828  -2.791   1.119  0.00  0.00    -0.644 OA
ATOM     37  O03 ZZL d           7.640  -1.904   0.126  0.00  0.00    -0.644 OA
ENDBRANCH  29  35
ENDBRANCH  23  25
ENDBRANCH   6  23
BRANCH   2  38
ATOM     38  C16 ZZL d           1.167 -10.997  -5.210  0.00  0.00     0.070 A 
ATOM     39  C17 ZZL d           0.580 -10.009  -4.416  0.00  0.00     0.132 A 
ATOM     40  F18 ZZL d           1.365  -9.117  -3.752  0.00  0.00    -0.205 F 
ATOM     41  C19 ZZL d          -0.813  -9.908  -4.331  0.00  0.00    -0.045 A 
ATOM     42  C20 ZZL d          -1.630 -10.791  -5.045  0.00  0.00    -0.077 A 
ATOM     43  H10 ZZL d          -1.261  -9.142  -3.709  0.00  0.00     0.088 H 
ATOM     44  C21 ZZL d          -1.047 -11.779  -5.845  0.00  0.00    -0.045 A 
ATOM     45  H3  ZZL d          -2.709 -10.709  -4.978  0.00  0.00     0.083 H 
ATOM     46  C22 ZZL d           0.349 -11.883  -5.922  0.00  0.00     0.132 A 
ATOM     47  H4  ZZL d          -1.674 -12.464  -6.404  0.00  0.00     0.088 H 
ATOM     48  F23 ZZL d           0.913 -12.828  -6.727  0.00  0.00    -0.205 F 
ENDBRANCH   2  38
TORSDOF 4
ENDMDL
