MODEL 1
REMARK VINA RESULT:      -8.7      0.000      0.000
REMARK  6 active torsions:
REMARK  status: ('A' for Active; 'I' for Inactive)
REMARK    1  A    between atoms: C10_10  and  C5_5 
REMARK    2  A    between atoms: C7_7  and  C14_14 
REMARK    3  A    between atoms: C8_8  and  N17_17 
REMARK    4  A    between atoms: N17_17  and  S18_18 
REMARK    5  A    between atoms: S18_18  and  C20_20 
REMARK    6  A    between atoms: C19_19  and  C25_25 
ROOT
ATOM      1  C1  CCT d          12.047  31.132  74.072  0.00  0.00    -0.062 A 
ATOM      2  C2  CCT d          11.911  30.024  73.180  0.00  0.00     0.044 A 
ATOM      3  C3  CCT d          10.622  29.446  73.004  0.00  0.00    -0.062 A 
ATOM      4  C4  CCT d           9.499  29.958  73.693  0.00  0.00    -0.070 A 
ATOM      5  C5  CCT d           9.625  31.067  74.582  0.00  0.00    -0.019 A 
ATOM      6  C6  CCT d          10.919  31.645  74.761  0.00  0.00    -0.070 A 
ATOM      7  C12 CCT d          13.041  29.501  72.471  0.00  0.00     0.099 C 
ATOM      8  N13 CCT d          13.960  29.071  71.871  0.00  0.00    -0.191 NA
ATOM      9  H1  CCT d          13.021  31.584  74.224  0.00  0.00     0.085 H 
ATOM     10  H2  CCT d          10.500  28.602  72.333  0.00  0.00     0.085 H 
ATOM     11  H3  CCT d           8.527  29.502  73.544  0.00  0.00     0.084 H 
ATOM     12  H4  CCT d          11.039  32.487  75.434  0.00  0.00     0.084 H 
ENDROOT
BRANCH   5  13
ATOM     13  C10 CCT d           8.431  31.588  75.270  0.00  0.00     0.018 A 
ATOM     14  C9  CCT d           7.930  32.880  75.299  0.00  0.00    -0.038 A 
ATOM     15  C8  CCT d           6.728  33.013  76.079  0.00  0.00     0.068 A 
ATOM     16  H5  CCT d           8.400  33.714  74.780  0.00  0.00     0.089 H 
ATOM     17  C7  CCT d           6.346  31.798  76.629  0.00  0.00     0.109 A 
ATOM     18  S11 CCT d           7.431  30.562  76.196  0.00  0.00    -0.080 SA
BRANCH  15  19
ATOM     19  N17 CCT d           6.020  34.271  76.268  0.00  0.00    -0.279 N 
ATOM     20  H6  CCT d           5.067  34.351  75.976  0.00  0.00     0.179 HD
BRANCH  19  21
ATOM     21  S18 CCT d           6.795  35.598  76.978  0.00  0.00     0.263 S 
ATOM     22  O26 CCT d           7.345  35.142  78.247  0.00  0.00    -0.200 OA
ATOM     23  O27 CCT d           5.752  36.588  77.149  0.00  0.00    -0.200 OA
BRANCH  21  24
ATOM     24  C20 CCT d           8.090  36.311  75.976  0.00  0.00     0.085 A 
ATOM     25  C19 CCT d           9.475  36.002  76.152  0.00  0.00    -0.039 A 
ATOM     26  C24 CCT d          10.432  36.629  75.291  0.00  0.00    -0.076 A 
ATOM     27  C23 CCT d          10.021  37.538  74.278  0.00  0.00    -0.082 A 
ATOM     28  H10 CCT d          11.486  36.407  75.413  0.00  0.00     0.084 H 
ATOM     29  C22 CCT d           8.642  37.838  74.112  0.00  0.00    -0.081 A 
ATOM     30  H9  CCT d          10.759  38.001  73.632  0.00  0.00     0.083 H 
ATOM     31  C21 CCT d           7.690  37.226  74.956  0.00  0.00    -0.060 A 
ATOM     32  H8  CCT d           8.324  38.534  73.344  0.00  0.00     0.083 H 
ATOM     33  H7  CCT d           6.638  37.454  74.826  0.00  0.00     0.085 H 
BRANCH  25  34
ATOM     34  C25 CCT d           9.976  35.045  77.210  0.00  0.00    -0.050 C 
ATOM     35  H11 CCT d          10.711  34.359  76.765  0.00  0.00     0.033 H 
ATOM     36  H12 CCT d           9.131  34.466  77.610  0.00  0.00     0.033 H 
ATOM     37  H13 CCT d          10.450  35.613  78.024  0.00  0.00     0.033 H 
ENDBRANCH  25  34
ENDBRANCH  21  24
ENDBRANCH  19  21
ENDBRANCH  15  19
BRANCH  17  38
ATOM     38  C14 CCT d           5.145  31.597  77.486  0.00  0.00     0.219 C 
ATOM     39  O15 CCT d           5.279  30.863  78.479  0.00  0.00    -0.643 OA
ATOM     40  O16 CCT d           4.061  32.143  77.159  0.00  0.00    -0.643 OA
ENDBRANCH  17  38
ENDBRANCH   5  13
TORSDOF 6
ENDMDL
