MODEL 1
REMARK VINA RESULT:      -7.1      0.000      0.000
REMARK  10 active torsions:
REMARK  status: ('A' for Active; 'I' for Inactive)
REMARK    1  A    between atoms: C2_1  and  O2_7 
REMARK    2  A    between atoms: C3_2  and  O3_8 
REMARK    3  A    between atoms: C4_3  and  O4_9 
REMARK    4  A    between atoms: C5_4  and  C6_5 
REMARK    5  A    between atoms: C6_5  and  O6_11 
REMARK    6  A    between atoms: O4_19  and  C1_6 
REMARK    7  A    between atoms: C5_13  and  C6_12 
REMARK    8  A    between atoms: C6_12  and  O6_17 
REMARK    9  A    between atoms: C4_14  and  O4_19 
REMARK   10  A    between atoms: C3_15  and  O3_20 
ROOT
ATOM      1  C2  BGC d          61.126  47.750  36.325  0.00  0.00     0.110 C 
ATOM      2  C3  BGC d          60.449  48.750  37.275  0.00  0.00     0.092 C 
ATOM      3  C4  BGC d          58.932  48.550  37.305  0.00  0.00     0.090 C 
ATOM      4  C5  BGC d          58.628  47.085  37.617  0.00  0.00     0.089 C 
ATOM      5  C1  BGC d          60.694  46.333  36.673  0.00  0.00     0.159 C 
ATOM      6  O5  BGC d          59.270  46.277  36.624  0.00  0.00    -0.348 OA
ATOM      7  H1  BGC d          60.797  47.971  35.300  0.00  0.00     0.094 H 
ATOM      8  H2  BGC d          60.843  48.587  38.289  0.00  0.00     0.091 H 
ATOM      9  H3  BGC d          58.517  48.804  36.319  0.00  0.00     0.091 H 
ATOM     10  H4  BGC d          59.051  46.850  38.606  0.00  0.00     0.090 H 
ATOM     11  H7  BGC d          61.085  46.023  37.654  0.00  0.00     0.133 H 
ENDROOT
BRANCH   5  12
ATOM     12  O4  BGC d          61.115  45.518  35.678  0.00  0.00    -0.348 OA
BRANCH  12  13
ATOM     13  C4  BGC d          61.060  44.115  35.895  0.00  0.00     0.097 C 
ATOM     14  C5  BGC d          62.478  43.523  35.981  0.00  0.00     0.119 C 
ATOM     15  O5  BGC d          62.381  42.118  36.195  0.00  0.00    -0.195 OA
ATOM     16  H14 BGC d          63.017  43.742  35.048  0.00  0.00     0.094 H 
ATOM     17  N1  BGC d          61.703  41.498  35.075  0.00  0.00     0.042 N 
ATOM     18  C2  BGC d          60.319  41.935  34.870  0.00  0.00     0.135 C 
ATOM     19  H21 BGC d          62.225  41.708  34.238  0.00  0.00     0.315 HD
ATOM     20  H22 BGC d          61.697  40.501  35.225  0.00  0.00     0.315 HD
ATOM     21  C3  BGC d          60.308  43.472  34.721  0.00  0.00     0.088 C 
ATOM     22  H17 BGC d          59.914  41.472  33.958  0.00  0.00     0.084 H 
ATOM     23  H18 BGC d          59.705  41.642  35.734  0.00  0.00     0.084 H 
ATOM     24  H16 BGC d          60.817  43.752  33.787  0.00  0.00     0.089 H 
ATOM     25  H15 BGC d          60.525  43.910  36.835  0.00  0.00     0.091 H 
BRANCH  14  26
ATOM     26  C6  BGC d          63.271  44.034  37.169  0.00  0.00     0.045 C 
ATOM     27  H12 BGC d          63.968  43.250  37.501  0.00  0.00     0.078 H 
ATOM     28  H13 BGC d          62.577  44.278  37.986  0.00  0.00     0.078 H 
BRANCH  26  29
ATOM     29  O6  BGC d          64.011  45.201  36.820  0.00  0.00    -0.398 OA
ATOM     30  H19 BGC d          64.597  44.999  36.101  0.00  0.00     0.209 HD
ENDBRANCH  26  29
ENDBRANCH  14  26
BRANCH  21  31
ATOM     31  O3  BGC d          58.982  43.880  34.647  0.00  0.00    -0.391 OA
ATOM     32  H20 BGC d          58.947  44.812  34.471  0.00  0.00     0.210 HD
ENDBRANCH  21  31
ENDBRANCH  12  13
ENDBRANCH   5  12
BRANCH   1  33
ATOM     33  O2  BGC d          62.537  47.870  36.369  0.00  0.00    -0.388 OA
ATOM     34  H8  BGC d          62.920  47.022  36.562  0.00  0.00     0.210 HD
ENDBRANCH   1  33
BRANCH   2  35
ATOM     35  O3  BGC d          60.741  50.082  36.879  0.00  0.00    -0.390 OA
ATOM     36  H9  BGC d          60.205  50.685  37.381  0.00  0.00     0.210 HD
ENDBRANCH   2  35
BRANCH   4  37
ATOM     37  C6  BGC d          57.148  46.744  37.647  0.00  0.00     0.043 C 
ATOM     38  H5  BGC d          56.841  46.341  36.671  0.00  0.00     0.078 H 
ATOM     39  H6  BGC d          56.564  47.648  37.870  0.00  0.00     0.078 H 
BRANCH  37  40
ATOM     40  O6  BGC d          56.930  45.772  38.656  0.00  0.00    -0.398 OA
ATOM     41  H11 BGC d          57.649  45.794  39.277  0.00  0.00     0.209 HD
ENDBRANCH  37  40
ENDBRANCH   4  37
BRANCH   3  42
ATOM     42  O4  BGC d          58.330  49.384  38.286  0.00  0.00    -0.390 OA
ATOM     43  H10 BGC d          57.502  49.007  38.557  0.00  0.00     0.210 HD
ENDBRANCH   3  42
TORSDOF 10
ENDMDL
MODEL 2
REMARK VINA RESULT:      -6.7      0.806      2.388
REMARK  10 active torsions:
REMARK  status: ('A' for Active; 'I' for Inactive)
REMARK    1  A    between atoms: C2_1  and  O2_7 
REMARK    2  A    between atoms: C3_2  and  O3_8 
REMARK    3  A    between atoms: C4_3  and  O4_9 
REMARK    4  A    between atoms: C5_4  and  C6_5 
REMARK    5  A    between atoms: C6_5  and  O6_11 
REMARK    6  A    between atoms: O4_19  and  C1_6 
REMARK    7  A    between atoms: C5_13  and  C6_12 
REMARK    8  A    between atoms: C6_12  and  O6_17 
REMARK    9  A    between atoms: C4_14  and  O4_19 
REMARK   10  A    between atoms: C3_15  and  O3_20 
ROOT
ATOM      1  C2  BGC d          61.201  47.537  36.241  0.00  0.00     0.110 C 
ATOM      2  C3  BGC d          60.521  48.468  37.257  0.00  0.00     0.092 C 
ATOM      3  C4  BGC d          59.016  48.203  37.336  0.00  0.00     0.090 C 
ATOM      4  C5  BGC d          58.785  46.716  37.597  0.00  0.00     0.089 C 
ATOM      5  C1  BGC d          60.841  46.090  36.546  0.00  0.00     0.159 C 
ATOM      6  O5  BGC d          59.419  45.976  36.548  0.00  0.00    -0.348 OA
ATOM      7  H1  BGC d          60.823  47.785  35.239  0.00  0.00     0.094 H 
ATOM      8  H2  BGC d          60.961  48.281  38.248  0.00  0.00     0.091 H 
ATOM      9  H3  BGC d          58.553  48.479  36.377  0.00  0.00     0.091 H 
ATOM     10  H4  BGC d          59.255  46.459  38.558  0.00  0.00     0.090 H 
ATOM     11  H7  BGC d          61.281  45.757  37.497  0.00  0.00     0.133 H 
ENDROOT
BRANCH   5  12
ATOM     12  O4  BGC d          61.255  45.334  35.502  0.00  0.00    -0.348 OA
BRANCH  12  13
ATOM     13  C4  BGC d          61.892  44.095  35.786  0.00  0.00     0.097 C 
ATOM     14  C5  BGC d          60.848  43.001  36.068  0.00  0.00     0.119 C 
ATOM     15  O5  BGC d          61.524  41.779  36.351  0.00  0.00    -0.195 OA
ATOM     16  H14 BGC d          60.223  43.310  36.919  0.00  0.00     0.094 H 
ATOM     17  N1  BGC d          62.343  41.935  37.536  0.00  0.00     0.042 N 
ATOM     18  C2  BGC d          63.414  42.930  37.422  0.00  0.00     0.135 C 
ATOM     19  H21 BGC d          61.741  42.208  38.297  0.00  0.00     0.315 HD
ATOM     20  H22 BGC d          62.765  41.043  37.744  0.00  0.00     0.315 HD
ATOM     21  C3  BGC d          62.785  44.282  37.021  0.00  0.00     0.088 C 
ATOM     22  H17 BGC d          63.930  43.033  38.387  0.00  0.00     0.084 H 
ATOM     23  H18 BGC d          64.135  42.613  36.653  0.00  0.00     0.084 H 
ATOM     24  H16 BGC d          62.162  44.654  37.847  0.00  0.00     0.089 H 
ATOM     25  H15 BGC d          62.508  43.795  34.925  0.00  0.00     0.091 H 
BRANCH  14  26
ATOM     26  C6  BGC d          59.973  42.683  34.871  0.00  0.00     0.045 C 
ATOM     27  H12 BGC d          59.252  41.900  35.150  0.00  0.00     0.078 H 
ATOM     28  H13 BGC d          60.607  42.321  34.048  0.00  0.00     0.078 H 
BRANCH  26  29
ATOM     29  O6  BGC d          59.263  43.840  34.440  0.00  0.00    -0.398 OA
ATOM     30  H19 BGC d          59.850  44.407  33.954  0.00  0.00     0.209 HD
ENDBRANCH  26  29
ENDBRANCH  14  26
BRANCH  21  31
ATOM     31  O3  BGC d          63.821  45.180  36.802  0.00  0.00    -0.391 OA
ATOM     32  H20 BGC d          64.370  45.225  37.576  0.00  0.00     0.210 HD
ENDBRANCH  21  31
ENDBRANCH  12  13
ENDBRANCH   5  12
BRANCH   1  33
ATOM     33  O2  BGC d          62.606  47.713  36.238  0.00  0.00    -0.388 OA
ATOM     34  H8  BGC d          63.026  46.914  36.533  0.00  0.00     0.210 HD
ENDBRANCH   1  33
BRANCH   2  35
ATOM     35  O3  BGC d          60.743  49.826  36.907  0.00  0.00    -0.390 OA
ATOM     36  H9  BGC d          60.746  49.912  35.961  0.00  0.00     0.210 HD
ENDBRANCH   2  35
BRANCH   4  37
ATOM     37  C6  BGC d          57.322  46.311  37.668  0.00  0.00     0.043 C 
ATOM     38  H5  BGC d          57.190  45.316  37.218  0.00  0.00     0.078 H 
ATOM     39  H6  BGC d          56.708  47.043  37.124  0.00  0.00     0.078 H 
BRANCH  37  40
ATOM     40  O6  BGC d          56.929  46.275  39.030  0.00  0.00    -0.398 OA
ATOM     41  H11 BGC d          56.175  46.840  39.156  0.00  0.00     0.209 HD
ENDBRANCH  37  40
ENDBRANCH   4  37
BRANCH   3  42
ATOM     42  O4  BGC d          58.420  48.971  38.373  0.00  0.00    -0.390 OA
ATOM     43  H10 BGC d          58.628  48.582  39.214  0.00  0.00     0.210 HD
ENDBRANCH   3  42
TORSDOF 10
ENDMDL
MODEL 3
REMARK VINA RESULT:      -6.0      2.182      6.258
REMARK  10 active torsions:
REMARK  status: ('A' for Active; 'I' for Inactive)
REMARK    1  A    between atoms: C2_1  and  O2_7 
REMARK    2  A    between atoms: C3_2  and  O3_8 
REMARK    3  A    between atoms: C4_3  and  O4_9 
REMARK    4  A    between atoms: C5_4  and  C6_5 
REMARK    5  A    between atoms: C6_5  and  O6_11 
REMARK    6  A    between atoms: O4_19  and  C1_6 
REMARK    7  A    between atoms: C5_13  and  C6_12 
REMARK    8  A    between atoms: C6_12  and  O6_17 
REMARK    9  A    between atoms: C4_14  and  O4_19 
REMARK   10  A    between atoms: C3_15  and  O3_20 
ROOT
ATOM      1  C2  BGC d          59.976  43.513  35.001  0.00  0.00     0.110 C 
ATOM      2  C3  BGC d          60.701  42.165  35.134  0.00  0.00     0.092 C 
ATOM      3  C4  BGC d          62.128  42.349  35.656  0.00  0.00     0.090 C 
ATOM      4  C5  BGC d          62.085  43.166  36.947  0.00  0.00     0.089 C 
ATOM      5  C1  BGC d          60.061  44.277  36.315  0.00  0.00     0.159 C 
ATOM      6  O5  BGC d          61.439  44.412  36.662  0.00  0.00    -0.348 OA
ATOM      7  H1  BGC d          60.482  44.102  34.223  0.00  0.00     0.094 H 
ATOM      8  H2  BGC d          60.145  41.540  35.849  0.00  0.00     0.091 H 
ATOM      9  H3  BGC d          62.718  42.891  34.903  0.00  0.00     0.091 H 
ATOM     10  H4  BGC d          61.490  42.610  37.686  0.00  0.00     0.090 H 
ATOM     11  H7  BGC d          59.485  43.780  37.108  0.00  0.00     0.133 H 
ENDROOT
BRANCH   5  12
ATOM     12  O4  BGC d          59.629  45.539  36.086  0.00  0.00    -0.348 OA
BRANCH  12  13
ATOM     13  C4  BGC d          59.840  46.512  37.100  0.00  0.00     0.097 C 
ATOM     14  C5  BGC d          58.509  47.163  37.514  0.00  0.00     0.119 C 
ATOM     15  O5  BGC d          58.764  48.133  38.526  0.00  0.00    -0.195 OA
ATOM     16  H14 BGC d          58.046  47.629  36.631  0.00  0.00     0.094 H 
ATOM     17  N1  BGC d          59.628  49.171  38.004  0.00  0.00     0.042 N 
ATOM     18  C2  BGC d          60.958  48.717  37.587  0.00  0.00     0.135 C 
ATOM     19  H21 BGC d          59.173  49.584  37.204  0.00  0.00     0.315 HD
ATOM     20  H22 BGC d          59.746  49.870  38.721  0.00  0.00     0.315 HD
ATOM     21  C3  BGC d          60.787  47.587  36.548  0.00  0.00     0.088 C 
ATOM     22  H17 BGC d          61.512  49.554  37.136  0.00  0.00     0.084 H 
ATOM     23  H18 BGC d          61.512  48.339  38.459  0.00  0.00     0.084 H 
ATOM     24  H16 BGC d          60.346  48.000  35.630  0.00  0.00     0.089 H 
ATOM     25  H15 BGC d          60.297  46.032  37.979  0.00  0.00     0.091 H 
BRANCH  14  26
ATOM     26  C6  BGC d          57.538  46.190  38.155  0.00  0.00     0.045 C 
ATOM     27  H12 BGC d          57.004  45.642  37.365  0.00  0.00     0.078 H 
ATOM     28  H13 BGC d          56.816  46.752  38.764  0.00  0.00     0.078 H 
BRANCH  26  29
ATOM     29  O6  BGC d          58.227  45.260  38.985  0.00  0.00    -0.398 OA
ATOM     30  H19 BGC d          58.958  45.695  39.408  0.00  0.00     0.209 HD
ENDBRANCH  26  29
ENDBRANCH  14  26
BRANCH  21  31
ATOM     31  O3  BGC d          62.050  47.090  36.254  0.00  0.00    -0.391 OA
ATOM     32  H20 BGC d          62.001  46.147  36.149  0.00  0.00     0.210 HD
ENDBRANCH  21  31
ENDBRANCH  12  13
ENDBRANCH   5  12
BRANCH   1  33
ATOM     33  O2  BGC d          58.626  43.338  34.611  0.00  0.00    -0.388 OA
ATOM     34  H8  BGC d          58.057  43.528  35.347  0.00  0.00     0.210 HD
ENDBRANCH   1  33
BRANCH   2  35
ATOM     35  O3  BGC d          60.740  41.501  33.880  0.00  0.00    -0.390 OA
ATOM     36  H9  BGC d          61.462  41.842  33.364  0.00  0.00     0.210 HD
ENDBRANCH   2  35
BRANCH   4  37
ATOM     37  C6  BGC d          63.447  43.448  37.557  0.00  0.00     0.043 C 
ATOM     38  H5  BGC d          64.136  42.623  37.323  0.00  0.00     0.078 H 
ATOM     39  H6  BGC d          63.351  43.546  38.648  0.00  0.00     0.078 H 
BRANCH  37  40
ATOM     40  O6  BGC d          63.946  44.657  37.010  0.00  0.00    -0.398 OA
ATOM     41  H11 BGC d          64.290  44.491  36.140  0.00  0.00     0.209 HD
ENDBRANCH  37  40
ENDBRANCH   4  37
BRANCH   3  42
ATOM     42  O4  BGC d          62.742  41.091  35.905  0.00  0.00    -0.390 OA
ATOM     43  H10 BGC d          62.711  40.903  36.836  0.00  0.00     0.210 HD
ENDBRANCH   3  42
TORSDOF 10
ENDMDL
MODEL 4
REMARK VINA RESULT:      -5.0      2.497      5.823
REMARK  10 active torsions:
REMARK  status: ('A' for Active; 'I' for Inactive)
REMARK    1  A    between atoms: C2_1  and  O2_7 
REMARK    2  A    between atoms: C3_2  and  O3_8 
REMARK    3  A    between atoms: C4_3  and  O4_9 
REMARK    4  A    between atoms: C5_4  and  C6_5 
REMARK    5  A    between atoms: C6_5  and  O6_11 
REMARK    6  A    between atoms: O4_19  and  C1_6 
REMARK    7  A    between atoms: C5_13  and  C6_12 
REMARK    8  A    between atoms: C6_12  and  O6_17 
REMARK    9  A    between atoms: C4_14  and  O4_19 
REMARK   10  A    between atoms: C3_15  and  O3_20 
ROOT
ATOM      1  C2  BGC d          60.473  44.292  37.971  0.00  0.00     0.110 C 
ATOM      2  C3  BGC d          61.625  43.332  37.638  0.00  0.00     0.092 C 
ATOM      3  C4  BGC d          61.363  42.578  36.333  0.00  0.00     0.090 C 
ATOM      4  C5  BGC d          61.050  43.587  35.229  0.00  0.00     0.089 C 
ATOM      5  C1  BGC d          60.193  45.196  36.779  0.00  0.00     0.159 C 
ATOM      6  O5  BGC d          59.926  44.370  35.647  0.00  0.00    -0.348 OA
ATOM      7  H1  BGC d          59.573  43.694  38.173  0.00  0.00     0.094 H 
ATOM      8  H2  BGC d          62.547  43.922  37.522  0.00  0.00     0.091 H 
ATOM      9  H3  BGC d          60.499  41.912  36.470  0.00  0.00     0.091 H 
ATOM     10  H4  BGC d          61.924  44.244  35.106  0.00  0.00     0.090 H 
ATOM     11  H7  BGC d          61.027  45.889  36.595  0.00  0.00     0.133 H 
ENDROOT
BRANCH   5  12
ATOM     12  O4  BGC d          59.033  45.850  37.022  0.00  0.00    -0.348 OA
BRANCH  12  13
ATOM     13  C4  BGC d          59.091  47.252  37.249  0.00  0.00     0.097 C 
ATOM     14  C5  BGC d          60.549  47.712  37.426  0.00  0.00     0.119 C 
ATOM     15  O5  BGC d          60.564  49.119  37.654  0.00  0.00    -0.195 OA
ATOM     16  H14 BGC d          60.997  47.172  38.272  0.00  0.00     0.094 H 
ATOM     17  N1  BGC d          59.846  49.424  38.874  0.00  0.00     0.042 N 
ATOM     18  C2  BGC d          58.422  49.070  38.860  0.00  0.00     0.135 C 
ATOM     19  H21 BGC d          60.285  48.924  39.630  0.00  0.00     0.315 HD
ATOM     20  H22 BGC d          59.919  50.416  39.041  0.00  0.00     0.315 HD
ATOM     21  C3  BGC d          58.295  47.569  38.523  0.00  0.00     0.088 C 
ATOM     22  H17 BGC d          57.980  49.267  39.847  0.00  0.00     0.084 H 
ATOM     23  H18 BGC d          57.899  49.667  38.098  0.00  0.00     0.084 H 
ATOM     24  H16 BGC d          58.710  46.973  39.349  0.00  0.00     0.089 H 
ATOM     25  H15 BGC d          58.646  47.780  36.392  0.00  0.00     0.091 H 
BRANCH  14  26
ATOM     26  C6  BGC d          61.394  47.520  36.182  0.00  0.00     0.045 C 
ATOM     27  H12 BGC d          61.164  48.321  35.463  0.00  0.00     0.078 H 
ATOM     28  H13 BGC d          61.157  46.545  35.732  0.00  0.00     0.078 H 
BRANCH  26  29
ATOM     29  O6  BGC d          62.782  47.564  36.501  0.00  0.00    -0.398 OA
ATOM     30  H19 BGC d          63.164  48.356  36.143  0.00  0.00     0.209 HD
ENDBRANCH  26  29
ENDBRANCH  14  26
BRANCH  21  31
ATOM     31  O3  BGC d          56.943  47.278  38.397  0.00  0.00    -0.391 OA
ATOM     32  H20 BGC d          56.530  47.931  37.844  0.00  0.00     0.210 HD
ENDBRANCH  21  31
ENDBRANCH  12  13
ENDBRANCH   5  12
BRANCH   1  33
ATOM     33  O2  BGC d          60.758  45.060  39.127  0.00  0.00    -0.388 OA
ATOM     34  H8  BGC d          61.490  45.638  38.950  0.00  0.00     0.210 HD
ENDBRANCH   1  33
BRANCH   2  35
ATOM     35  O3  BGC d          61.810  42.399  38.692  0.00  0.00    -0.390 OA
ATOM     36  H9  BGC d          61.627  41.522  38.374  0.00  0.00     0.210 HD
ENDBRANCH   2  35
BRANCH   4  37
ATOM     37  C6  BGC d          60.739  42.964  33.878  0.00  0.00     0.043 C 
ATOM     38  H5  BGC d          61.636  42.992  33.242  0.00  0.00     0.078 H 
ATOM     39  H6  BGC d          59.927  43.523  33.390  0.00  0.00     0.078 H 
BRANCH  37  40
ATOM     40  O6  BGC d          60.339  41.620  34.083  0.00  0.00    -0.398 OA
ATOM     41  H11 BGC d          61.104  41.057  34.068  0.00  0.00     0.209 HD
ENDBRANCH  37  40
ENDBRANCH   4  37
BRANCH   3  42
ATOM     42  O4  BGC d          62.492  41.797  35.963  0.00  0.00    -0.390 OA
ATOM     43  H10 BGC d          62.821  41.336  36.725  0.00  0.00     0.210 HD
ENDBRANCH   3  42
TORSDOF 10
ENDMDL
MODEL 5
REMARK VINA RESULT:      -4.6      2.673      6.204
REMARK  10 active torsions:
REMARK  status: ('A' for Active; 'I' for Inactive)
REMARK    1  A    between atoms: C2_1  and  O2_7 
REMARK    2  A    between atoms: C3_2  and  O3_8 
REMARK    3  A    between atoms: C4_3  and  O4_9 
REMARK    4  A    between atoms: C5_4  and  C6_5 
REMARK    5  A    between atoms: C6_5  and  O6_11 
REMARK    6  A    between atoms: O4_19  and  C1_6 
REMARK    7  A    between atoms: C5_13  and  C6_12 
REMARK    8  A    between atoms: C6_12  and  O6_17 
REMARK    9  A    between atoms: C4_14  and  O4_19 
REMARK   10  A    between atoms: C3_15  and  O3_20 
ROOT
ATOM      1  C2  BGC d          60.295  44.915  37.997  0.00  0.00     0.110 C 
ATOM      2  C3  BGC d          61.024  43.562  37.979  0.00  0.00     0.092 C 
ATOM      3  C4  BGC d          60.704  42.773  36.707  0.00  0.00     0.090 C 
ATOM      4  C5  BGC d          60.986  43.654  35.490  0.00  0.00     0.089 C 
ATOM      5  C1  BGC d          60.580  45.673  36.709  0.00  0.00     0.159 C 
ATOM      6  O5  BGC d          60.200  44.844  35.611  0.00  0.00    -0.348 OA
ATOM      7  H1  BGC d          59.214  44.723  38.055  0.00  0.00     0.094 H 
ATOM      8  H2  BGC d          62.108  43.752  38.009  0.00  0.00     0.091 H 
ATOM      9  H3  BGC d          59.640  42.496  36.716  0.00  0.00     0.091 H 
ATOM     10  H4  BGC d          62.053  43.920  35.500  0.00  0.00     0.090 H 
ATOM     11  H7  BGC d          61.635  45.978  36.647  0.00  0.00     0.133 H 
ENDROOT
BRANCH   5  12
ATOM     12  O4  BGC d          59.740  46.733  36.660  0.00  0.00    -0.348 OA
BRANCH  12  13
ATOM     13  C4  BGC d          59.532  47.475  37.854  0.00  0.00     0.097 C 
ATOM     14  C5  BGC d          58.091  48.013  37.913  0.00  0.00     0.119 C 
ATOM     15  O5  BGC d          57.924  48.753  39.119  0.00  0.00    -0.195 OA
ATOM     16  H14 BGC d          57.907  48.648  37.034  0.00  0.00     0.094 H 
ATOM     17  N1  BGC d          58.827  49.886  39.128  0.00  0.00     0.042 N 
ATOM     18  C2  BGC d          60.252  49.542  39.103  0.00  0.00     0.135 C 
ATOM     19  H21 BGC d          58.627  50.452  38.318  0.00  0.00     0.315 HD
ATOM     20  H22 BGC d          58.649  50.422  39.964  0.00  0.00     0.315 HD
ATOM     21  C3  BGC d          60.519  48.651  37.870  0.00  0.00     0.088 C 
ATOM     22  H17 BGC d          60.855  50.459  39.035  0.00  0.00     0.084 H 
ATOM     23  H18 BGC d          60.518  48.995  40.020  0.00  0.00     0.084 H 
ATOM     24  H16 BGC d          60.371  49.242  36.955  0.00  0.00     0.089 H 
ATOM     25  H15 BGC d          59.712  46.827  38.724  0.00  0.00     0.091 H 
BRANCH  14  26
ATOM     26  C6  BGC d          57.044  46.920  37.990  0.00  0.00     0.045 C 
ATOM     27  H12 BGC d          56.045  47.379  38.021  0.00  0.00     0.078 H 
ATOM     28  H13 BGC d          57.205  46.331  38.905  0.00  0.00     0.078 H 
BRANCH  26  29
ATOM     29  O6  BGC d          57.127  46.057  36.859  0.00  0.00    -0.398 OA
ATOM     30  H19 BGC d          56.841  46.526  36.084  0.00  0.00     0.209 HD
ENDBRANCH  26  29
ENDBRANCH  14  26
BRANCH  21  31
ATOM     31  O3  BGC d          61.843  48.238  37.928  0.00  0.00    -0.391 OA
ATOM     32  H20 BGC d          62.400  48.986  38.109  0.00  0.00     0.210 HD
ENDBRANCH  21  31
ENDBRANCH  12  13
ENDBRANCH   5  12
BRANCH   1  33
ATOM     33  O2  BGC d          60.665  45.686  39.125  0.00  0.00    -0.388 OA
ATOM     34  H8  BGC d          60.405  46.590  38.989  0.00  0.00     0.210 HD
ENDBRANCH   1  33
BRANCH   2  35
ATOM     35  O3  BGC d          60.663  42.792  39.115  0.00  0.00    -0.390 OA
ATOM     36  H9  BGC d          60.012  43.263  39.623  0.00  0.00     0.210 HD
ENDBRANCH   2  35
BRANCH   4  37
ATOM     37  C6  BGC d          60.679  42.996  34.155  0.00  0.00     0.043 C 
ATOM     38  H5  BGC d          61.605  42.594  33.719  0.00  0.00     0.078 H 
ATOM     39  H6  BGC d          60.243  43.736  33.469  0.00  0.00     0.078 H 
BRANCH  37  40
ATOM     40  O6  BGC d          59.756  41.943  34.373  0.00  0.00    -0.398 OA
ATOM     41  H11 BGC d          59.519  41.554  33.539  0.00  0.00     0.209 HD
ENDBRANCH  37  40
ENDBRANCH   4  37
BRANCH   3  42
ATOM     42  O4  BGC d          61.487  41.589  36.635  0.00  0.00    -0.390 OA
ATOM     43  H10 BGC d          61.425  41.222  35.761  0.00  0.00     0.210 HD
ENDBRANCH   3  42
TORSDOF 10
ENDMDL
MODEL 6
REMARK VINA RESULT:      -4.1      1.650      2.790
REMARK  10 active torsions:
REMARK  status: ('A' for Active; 'I' for Inactive)
REMARK    1  A    between atoms: C2_1  and  O2_7 
REMARK    2  A    between atoms: C3_2  and  O3_8 
REMARK    3  A    between atoms: C4_3  and  O4_9 
REMARK    4  A    between atoms: C5_4  and  C6_5 
REMARK    5  A    between atoms: C6_5  and  O6_11 
REMARK    6  A    between atoms: O4_19  and  C1_6 
REMARK    7  A    between atoms: C5_13  and  C6_12 
REMARK    8  A    between atoms: C6_12  and  O6_17 
REMARK    9  A    between atoms: C4_14  and  O4_19 
REMARK   10  A    between atoms: C3_15  and  O3_20 
ROOT
ATOM      1  C2  BGC d          61.636  46.189  36.482  0.00  0.00     0.110 C 
ATOM      2  C3  BGC d          61.813  47.654  36.910  0.00  0.00     0.092 C 
ATOM      3  C4  BGC d          60.482  48.408  36.883  0.00  0.00     0.090 C 
ATOM      4  C5  BGC d          59.455  47.634  37.708  0.00  0.00     0.089 C 
ATOM      5  C1  BGC d          60.539  45.538  37.311  0.00  0.00     0.159 C 
ATOM      6  O5  BGC d          59.351  46.313  37.164  0.00  0.00    -0.348 OA
ATOM      7  H1  BGC d          61.330  46.173  35.426  0.00  0.00     0.094 H 
ATOM      8  H2  BGC d          62.204  47.671  37.938  0.00  0.00     0.091 H 
ATOM      9  H3  BGC d          60.131  48.480  35.843  0.00  0.00     0.091 H 
ATOM     10  H4  BGC d          59.823  47.572  38.743  0.00  0.00     0.090 H 
ATOM     11  H7  BGC d          60.836  45.438  38.365  0.00  0.00     0.133 H 
ENDROOT
BRANCH   5  12
ATOM     12  O4  BGC d          60.252  44.341  36.748  0.00  0.00    -0.348 OA
BRANCH  12  13
ATOM     13  C4  BGC d          61.211  43.299  36.871  0.00  0.00     0.097 C 
ATOM     14  C5  BGC d          60.769  42.060  36.072  0.00  0.00     0.119 C 
ATOM     15  O5  BGC d          61.751  41.039  36.223  0.00  0.00    -0.195 OA
ATOM     16  H14 BGC d          59.791  41.721  36.443  0.00  0.00     0.094 H 
ATOM     17  N1  BGC d          61.854  40.660  37.618  0.00  0.00     0.042 N 
ATOM     18  C2  BGC d          62.294  41.730  38.519  0.00  0.00     0.135 C 
ATOM     19  H21 BGC d          60.946  40.347  37.924  0.00  0.00     0.315 HD
ATOM     20  H22 BGC d          62.513  39.900  37.689  0.00  0.00     0.315 HD
ATOM     21  C3  BGC d          61.338  42.932  38.356  0.00  0.00     0.088 C 
ATOM     22  H17 BGC d          62.269  41.374  39.559  0.00  0.00     0.084 H 
ATOM     23  H18 BGC d          63.320  42.034  38.260  0.00  0.00     0.084 H 
ATOM     24  H16 BGC d          60.342  42.659  38.733  0.00  0.00     0.089 H 
ATOM     25  H15 BGC d          62.182  43.648  36.490  0.00  0.00     0.091 H 
BRANCH  14  26
ATOM     26  C6  BGC d          60.701  42.302  34.577  0.00  0.00     0.045 C 
ATOM     27  H12 BGC d          59.651  42.448  34.283  0.00  0.00     0.078 H 
ATOM     28  H13 BGC d          61.111  41.428  34.051  0.00  0.00     0.078 H 
BRANCH  26  29
ATOM     29  O6  BGC d          61.452  43.458  34.216  0.00  0.00    -0.398 OA
ATOM     30  H19 BGC d          62.254  43.191  33.783  0.00  0.00     0.209 HD
ENDBRANCH  26  29
ENDBRANCH  14  26
BRANCH  21  31
ATOM     31  O3  BGC d          61.837  43.975  39.125  0.00  0.00    -0.391 OA
ATOM     32  H20 BGC d          62.664  44.268  38.761  0.00  0.00     0.210 HD
ENDBRANCH  21  31
ENDBRANCH  12  13
ENDBRANCH   5  12
BRANCH   1  33
ATOM     33  O2  BGC d          62.849  45.466  36.599  0.00  0.00    -0.388 OA
ATOM     34  H8  BGC d          63.575  46.024  36.346  0.00  0.00     0.210 HD
ENDBRANCH   1  33
BRANCH   2  35
ATOM     35  O3  BGC d          62.742  48.308  36.058  0.00  0.00    -0.390 OA
ATOM     36  H9  BGC d          62.296  48.607  35.274  0.00  0.00     0.210 HD
ENDBRANCH   2  35
BRANCH   4  37
ATOM     37  C6  BGC d          58.072  48.263  37.739  0.00  0.00     0.043 C 
ATOM     38  H5  BGC d          57.732  48.360  38.781  0.00  0.00     0.078 H 
ATOM     39  H6  BGC d          57.365  47.632  37.181  0.00  0.00     0.078 H 
BRANCH  37  40
ATOM     40  O6  BGC d          58.146  49.545  37.139  0.00  0.00    -0.398 OA
ATOM     41  H11 BGC d          59.046  49.728  36.895  0.00  0.00     0.209 HD
ENDBRANCH  37  40
ENDBRANCH   4  37
BRANCH   3  42
ATOM     42  O4  BGC d          60.631  49.719  37.410  0.00  0.00    -0.390 OA
ATOM     43  H10 BGC d          61.227  50.215  36.860  0.00  0.00     0.210 HD
ENDBRANCH   3  42
TORSDOF 10
ENDMDL
