MODEL 1
REMARK VINA RESULT:      -8.1      0.000      0.000
REMARK  17 active torsions:
REMARK  status: ('A' for Active; 'I' for Inactive)
REMARK    1  A    between atoms: C24_4  and  C22_7 
REMARK    2  A    between atoms: C22_7  and  O23_8 
REMARK    3  A    between atoms: O23_8  and  C21_9 
REMARK       I    between atoms: C21_9  and  N20_11 
REMARK    4  A    between atoms: N20_11  and  C19_12 
REMARK    5  A    between atoms: C19_12  and  C32_13 
REMARK    6  A    between atoms: C19_12  and  C17_20 
REMARK    7  A    between atoms: C32_13  and  C38_14 
REMARK    8  A    between atoms: C17_20  and  O18_21 
REMARK    9  A    between atoms: C17_20  and  C16_22 
REMARK   10  A    between atoms: C16_22  and  N11_23 
REMARK   11  A    between atoms: N11_23  and  C12_24 
REMARK   12  A    between atoms: N11_23  and  S8_29 
REMARK   13  A    between atoms: C12_24  and  C13_25 
REMARK   14  A    between atoms: C13_25  and  C14_26 
REMARK   15  A    between atoms: C13_25  and  C15_27 
REMARK   16  A    between atoms: C15_27  and  C18_28 
REMARK   17  A    between atoms: S8_29  and  C5_32 
ROOT
ATOM      1  C17 MOL d          20.913  31.094  15.244  0.00  0.00     0.067 C 
ATOM      2  H18 MOL d          21.082  31.722  16.130  0.00  0.00     0.088 H 
ENDROOT
BRANCH   1   3
ATOM      3  C19 MOL d          22.238  30.987  14.486  0.00  0.00     0.044 C 
ATOM      4  H10 MOL d          22.913  30.353  15.080  0.00  0.00     0.077 H 
BRANCH   3   5
ATOM      5  N20 MOL d          22.012  30.354  13.197  0.00  0.00    -0.329 N 
ATOM      6  C21 MOL d          21.865  29.050  12.984  0.00  0.00     0.361 C 
ATOM      7  O22 MOL d          21.839  28.184  13.843  0.00  0.00    -0.239 OA
ATOM      8  H9  MOL d          21.962  30.953  12.399  0.00  0.00     0.165 HD
BRANCH   6   9
ATOM      9  O23 MOL d          21.767  28.646  11.593  0.00  0.00    -0.302 OA
BRANCH   9  10
ATOM     10  C22 MOL d          22.798  27.848  11.009  0.00  0.00     0.049 C 
ATOM     11  H7  MOL d          22.835  28.011   9.922  0.00  0.00     0.078 H 
ATOM     12  H8  MOL d          23.772  28.101  11.453  0.00  0.00     0.078 H 
BRANCH  10  13
ATOM     13  C24 MOL d          22.445  26.402  11.311  0.00  0.00     0.034 C 
ATOM     14  N29 MOL d          21.056  26.307  11.674  0.00  0.00    -0.354 N 
ATOM     15  C27 MOL d          20.307  25.688  10.779  0.00  0.00     0.218 C 
ATOM     16  H1  MOL d          20.690  26.679  12.527  0.00  0.00     0.162 HD
ATOM     17  O28 MOL d          19.114  25.507  10.860  0.00  0.00    -0.274 OA
ATOM     18  C26 MOL d          21.145  25.197   9.626  0.00  0.00     0.011 C 
ATOM     19  C25 MOL d          22.563  25.495  10.085  0.00  0.00    -0.036 C 
ATOM     20  H5  MOL d          20.905  25.742   8.701  0.00  0.00     0.047 H 
ATOM     21  H6  MOL d          21.001  24.118   9.462  0.00  0.00     0.047 H 
ATOM     22  H3  MOL d          23.080  24.561  10.353  0.00  0.00     0.036 H 
ATOM     23  H4  MOL d          23.121  26.007   9.287  0.00  0.00     0.036 H 
ATOM     24  H2  MOL d          23.089  26.034  12.122  0.00  0.00     0.075 H 
ENDBRANCH  10  13
ENDBRANCH   9  10
ENDBRANCH   6   9
ENDBRANCH   3   5
BRANCH   3  25
ATOM     25  C32 MOL d          22.939  32.328  14.249  0.00  0.00    -0.020 C 
ATOM     26  H11 MOL d          22.597  32.746  13.290  0.00  0.00     0.043 H 
ATOM     27  H12 MOL d          24.026  32.163  14.210  0.00  0.00     0.043 H 
BRANCH  25  28
ATOM     28  C38 MOL d          22.629  33.320  15.360  0.00  0.00    -0.056 A 
ATOM     29  C37 MOL d          22.188  34.597  15.036  0.00  0.00    -0.077 A 
ATOM     30  C36 MOL d          21.895  35.514  16.044  0.00  0.00    -0.082 A 
ATOM     31  H13 MOL d          22.071  34.881  13.996  0.00  0.00     0.084 H 
ATOM     32  C35 MOL d          22.035  35.155  17.379  0.00  0.00    -0.083 A 
ATOM     33  H14 MOL d          21.556  36.511  15.785  0.00  0.00     0.083 H 
ATOM     34  C34 MOL d          22.474  33.877  17.705  0.00  0.00    -0.082 A 
ATOM     35  H15 MOL d          21.804  35.869  18.162  0.00  0.00     0.083 H 
ATOM     36  C33 MOL d          22.761  32.964  16.694  0.00  0.00    -0.077 A 
ATOM     37  H16 MOL d          22.592  33.593  18.744  0.00  0.00     0.083 H 
ATOM     38  H17 MOL d          23.091  31.964  16.953  0.00  0.00     0.084 H 
ENDBRANCH  25  28
ENDBRANCH   3  25
ENDBRANCH   1   3
BRANCH   1  39
ATOM     39  O18 MOL d          20.486  29.796  15.671  0.00  0.00    -0.392 OA
ATOM     40  H19 MOL d          19.665  29.873  16.142  0.00  0.00     0.210 HD
ENDBRANCH   1  39
BRANCH   1  41
ATOM     41  C16 MOL d          19.782  31.725  14.419  0.00  0.00     0.019 C 
ATOM     42  H20 MOL d          20.090  31.797  13.365  0.00  0.00     0.061 H 
ATOM     43  H21 MOL d          19.560  32.731  14.804  0.00  0.00     0.061 H 
BRANCH  41  44
ATOM     44  N11 MOL d          18.572  30.869  14.529  0.00  0.00    -0.204 NA
BRANCH  44  45
ATOM     45  C12 MOL d          17.821  30.800  13.254  0.00  0.00    -0.004 C 
ATOM     46  H22 MOL d          18.164  31.610  12.594  0.00  0.00     0.058 H 
ATOM     47  H23 MOL d          16.749  30.929  13.465  0.00  0.00     0.058 H 
BRANCH  45  48
ATOM     48  C13 MOL d          18.029  29.453  12.540  0.00  0.00    -0.046 C 
ATOM     49  H24 MOL d          18.943  29.536  11.933  0.00  0.00     0.041 H 
BRANCH  48  50
ATOM     50  C14 MOL d          18.215  28.264  13.483  0.00  0.00    -0.072 C 
ATOM     51  H25 MOL d          17.560  27.439  13.166  0.00  0.00     0.028 H 
ATOM     52  H26 MOL d          17.955  28.565  14.508  0.00  0.00     0.028 H 
ATOM     53  H27 MOL d          19.263  27.931  13.452  0.00  0.00     0.028 H 
ENDBRANCH  48  50
BRANCH  48  54
ATOM     54  C15 MOL d          16.844  29.200  11.600  0.00  0.00    -0.064 C 
ATOM     55  H28 MOL d          16.406  30.170  11.325  0.00  0.00     0.033 H 
ATOM     56  H29 MOL d          16.097  28.598  12.139  0.00  0.00     0.033 H 
BRANCH  54  57
ATOM     57  C18 MOL d          17.222  28.464  10.324  0.00  0.00    -0.076 C 
ATOM     58  H30 MOL d          17.264  27.383  10.523  0.00  0.00     0.027 H 
ATOM     59  H31 MOL d          18.208  28.812   9.978  0.00  0.00     0.027 H 
ATOM     60  H32 MOL d          16.469  28.665   9.548  0.00  0.00     0.027 H 
ENDBRANCH  54  57
ENDBRANCH  48  54
ENDBRANCH  45  48
ENDBRANCH  44  45
BRANCH  44  61
ATOM     61  S8  MOL d          17.635  31.176  15.826  0.00  0.00     0.243 S 
ATOM     62  O10 MOL d          18.304  30.630  16.967  0.00  0.00    -0.206 OA
ATOM     63  O9  MOL d          16.356  30.570  15.537  0.00  0.00    -0.206 OA
BRANCH  61  64
ATOM     64  C5  MOL d          17.398  32.791  16.021  0.00  0.00     0.076 A 
ATOM     65  C6  MOL d          16.432  33.413  15.228  0.00  0.00    -0.059 A 
ATOM     66  C7  MOL d          16.131  34.766  15.377  0.00  0.00    -0.052 A 
ATOM     67  H33 MOL d          15.904  32.832  14.481  0.00  0.00     0.086 H 
ATOM     68  C2  MOL d          16.795  35.541  16.306  0.00  0.00     0.074 A 
ATOM     69  H34 MOL d          15.366  35.216  14.754  0.00  0.00     0.087 H 
ATOM     70  C3  MOL d          17.780  34.958  17.106  0.00  0.00     0.036 A 
ATOM     71  N1  MOL d          16.659  36.856  16.597  0.00  0.00    -0.253 NA
ATOM     72  C4  MOL d          18.071  33.591  16.958  0.00  0.00    -0.042 A 
ATOM     73  S1  MOL d          18.537  36.022  18.212  0.00  0.00    -0.081 SA
ATOM     74  H35 MOL d          18.835  33.143  17.584  0.00  0.00     0.088 H 
ATOM     75  C1  MOL d          17.497  37.255  17.568  0.00  0.00     0.041 A 
ATOM     76  H36 MOL d          17.522  38.283  17.927  0.00  0.00     0.126 H 
ENDBRANCH  61  64
ENDBRANCH  44  61
ENDBRANCH  41  44
ENDBRANCH   1  41
TORSDOF 17
ENDMDL
MODEL 2
REMARK VINA RESULT:      -8.0      2.595      6.641
REMARK  17 active torsions:
REMARK  status: ('A' for Active; 'I' for Inactive)
REMARK    1  A    between atoms: C24_4  and  C22_7 
REMARK    2  A    between atoms: C22_7  and  O23_8 
REMARK    3  A    between atoms: O23_8  and  C21_9 
REMARK       I    between atoms: C21_9  and  N20_11 
REMARK    4  A    between atoms: N20_11  and  C19_12 
REMARK    5  A    between atoms: C19_12  and  C32_13 
REMARK    6  A    between atoms: C19_12  and  C17_20 
REMARK    7  A    between atoms: C32_13  and  C38_14 
REMARK    8  A    between atoms: C17_20  and  O18_21 
REMARK    9  A    between atoms: C17_20  and  C16_22 
REMARK   10  A    between atoms: C16_22  and  N11_23 
REMARK   11  A    between atoms: N11_23  and  C12_24 
REMARK   12  A    between atoms: N11_23  and  S8_29 
REMARK   13  A    between atoms: C12_24  and  C13_25 
REMARK   14  A    between atoms: C13_25  and  C14_26 
REMARK   15  A    between atoms: C13_25  and  C15_27 
REMARK   16  A    between atoms: C15_27  and  C18_28 
REMARK   17  A    between atoms: S8_29  and  C5_32 
ROOT
ATOM      1  C17 MOL d          18.486  32.286  14.590  0.00  0.00     0.067 C 
ATOM      2  H18 MOL d          18.200  33.268  14.992  0.00  0.00     0.088 H 
ENDROOT
BRANCH   1   3
ATOM      3  C19 MOL d          17.204  31.478  14.374  0.00  0.00     0.044 C 
ATOM      4  H10 MOL d          16.724  31.851  13.457  0.00  0.00     0.077 H 
BRANCH   3   5
ATOM      5  N20 MOL d          17.539  30.074  14.192  0.00  0.00    -0.329 N 
ATOM      6  C21 MOL d          17.898  29.501  13.047  0.00  0.00     0.361 C 
ATOM      7  O22 MOL d          18.059  30.072  11.981  0.00  0.00    -0.239 OA
ATOM      8  H9  MOL d          17.496  29.488  15.000  0.00  0.00     0.165 HD
BRANCH   6   9
ATOM      9  O23 MOL d          18.070  28.059  13.092  0.00  0.00    -0.302 OA
BRANCH   9  10
ATOM     10  C22 MOL d          17.281  27.223  12.245  0.00  0.00     0.049 C 
ATOM     11  H7  MOL d          16.734  26.481  12.846  0.00  0.00     0.078 H 
ATOM     12  H8  MOL d          16.565  27.830  11.671  0.00  0.00     0.078 H 
BRANCH  10  13
ATOM     13  C24 MOL d          18.250  26.525  11.306  0.00  0.00     0.034 C 
ATOM     14  N29 MOL d          18.810  25.372  11.958  0.00  0.00    -0.354 N 
ATOM     15  C27 MOL d          18.409  24.219  11.451  0.00  0.00     0.218 C 
ATOM     16  H1  MOL d          19.447  25.437  12.726  0.00  0.00     0.162 HD
ATOM     17  O28 MOL d          18.733  23.124  11.846  0.00  0.00    -0.274 OA
ATOM     18  C26 MOL d          17.495  24.441  10.273  0.00  0.00     0.011 C 
ATOM     19  C25 MOL d          17.562  25.946  10.069  0.00  0.00    -0.036 C 
ATOM     20  H5  MOL d          16.469  24.118  10.501  0.00  0.00     0.047 H 
ATOM     21  H6  MOL d          17.858  23.905   9.383  0.00  0.00     0.047 H 
ATOM     22  H3  MOL d          18.145  26.181   9.166  0.00  0.00     0.036 H 
ATOM     23  H4  MOL d          16.548  26.361   9.970  0.00  0.00     0.036 H 
ATOM     24  H2  MOL d          19.038  27.232  11.009  0.00  0.00     0.075 H 
ENDBRANCH  10  13
ENDBRANCH   9  10
ENDBRANCH   6   9
ENDBRANCH   3   5
BRANCH   3  25
ATOM     25  C32 MOL d          16.189  31.587  15.516  0.00  0.00    -0.020 C 
ATOM     26  H11 MOL d          16.566  31.029  16.385  0.00  0.00     0.043 H 
ATOM     27  H12 MOL d          15.233  31.153  15.188  0.00  0.00     0.043 H 
BRANCH  25  28
ATOM     28  C38 MOL d          15.962  33.037  15.918  0.00  0.00    -0.056 A 
ATOM     29  C37 MOL d          15.339  33.324  17.126  0.00  0.00    -0.077 A 
ATOM     30  C36 MOL d          15.129  34.648  17.510  0.00  0.00    -0.082 A 
ATOM     31  H13 MOL d          15.016  32.516  17.773  0.00  0.00     0.084 H 
ATOM     32  C35 MOL d          15.548  35.688  16.690  0.00  0.00    -0.083 A 
ATOM     33  H14 MOL d          14.638  34.866  18.451  0.00  0.00     0.083 H 
ATOM     34  C34 MOL d          16.173  35.403  15.482  0.00  0.00    -0.082 A 
ATOM     35  H15 MOL d          15.387  36.718  16.990  0.00  0.00     0.083 H 
ATOM     36  C33 MOL d          16.384  34.079  15.105  0.00  0.00    -0.077 A 
ATOM     37  H16 MOL d          16.497  36.210  14.834  0.00  0.00     0.083 H 
ATOM     38  H17 MOL d          16.884  33.861  14.168  0.00  0.00     0.084 H 
ENDBRANCH  25  28
ENDBRANCH   3  25
ENDBRANCH   1   3
BRANCH   1  39
ATOM     39  O18 MOL d          19.162  32.475  13.344  0.00  0.00    -0.392 OA
ATOM     40  H19 MOL d          19.944  31.936  13.323  0.00  0.00     0.210 HD
ENDBRANCH   1  39
BRANCH   1  41
ATOM     41  C16 MOL d          19.466  31.632  15.575  0.00  0.00     0.019 C 
ATOM     42  H20 MOL d          19.844  30.690  15.151  0.00  0.00     0.061 H 
ATOM     43  H21 MOL d          18.952  31.426  16.525  0.00  0.00     0.061 H 
BRANCH  41  44
ATOM     44  N11 MOL d          20.600  32.564  15.813  0.00  0.00    -0.204 NA
BRANCH  44  45
ATOM     45  C12 MOL d          20.184  33.983  15.716  0.00  0.00    -0.004 C 
ATOM     46  H22 MOL d          19.086  34.034  15.732  0.00  0.00     0.058 H 
ATOM     47  H23 MOL d          20.557  34.398  14.768  0.00  0.00     0.058 H 
BRANCH  45  48
ATOM     48  C13 MOL d          20.739  34.822  16.880  0.00  0.00    -0.046 C 
ATOM     49  H24 MOL d          21.093  34.125  17.653  0.00  0.00     0.041 H 
BRANCH  48  50
ATOM     50  C14 MOL d          21.917  35.721  16.501  0.00  0.00    -0.072 C 
ATOM     51  H25 MOL d          22.678  35.681  17.293  0.00  0.00     0.028 H 
ATOM     52  H26 MOL d          21.564  36.757  16.384  0.00  0.00     0.028 H 
ATOM     53  H27 MOL d          22.354  35.373  15.554  0.00  0.00     0.028 H 
ENDBRANCH  48  50
BRANCH  48  54
ATOM     54  C15 MOL d          19.603  35.665  17.471  0.00  0.00    -0.064 C 
ATOM     55  H28 MOL d          18.989  36.049  16.643  0.00  0.00     0.033 H 
ATOM     56  H29 MOL d          20.046  36.509  18.021  0.00  0.00     0.033 H 
BRANCH  54  57
ATOM     57  C18 MOL d          18.700  34.894  18.421  0.00  0.00    -0.076 C 
ATOM     58  H30 MOL d          19.307  34.198  19.019  0.00  0.00     0.027 H 
ATOM     59  H31 MOL d          17.956  34.327  17.841  0.00  0.00     0.027 H 
ATOM     60  H32 MOL d          18.184  35.599  19.090  0.00  0.00     0.027 H 
ENDBRANCH  54  57
ENDBRANCH  48  54
ENDBRANCH  45  48
ENDBRANCH  44  45
BRANCH  44  61
ATOM     61  S8  MOL d          21.954  32.219  14.975  0.00  0.00     0.243 S 
ATOM     62  O10 MOL d          23.042  32.250  15.904  0.00  0.00    -0.206 OA
ATOM     63  O9  MOL d          22.032  33.213  13.931  0.00  0.00    -0.206 OA
BRANCH  61  64
ATOM     64  C5  MOL d          21.853  30.740  14.263  0.00  0.00     0.076 A 
ATOM     65  C6  MOL d          21.343  29.682  15.018  0.00  0.00    -0.059 A 
ATOM     66  C7  MOL d          21.170  28.413  14.466  0.00  0.00    -0.052 A 
ATOM     67  H33 MOL d          21.075  29.851  16.054  0.00  0.00     0.086 H 
ATOM     68  C2  MOL d          21.516  28.158  13.155  0.00  0.00     0.074 A 
ATOM     69  H34 MOL d          20.759  27.617  15.075  0.00  0.00     0.087 H 
ATOM     70  C3  MOL d          22.045  29.188  12.374  0.00  0.00     0.036 A 
ATOM     71  N1  MOL d          21.435  27.010  12.442  0.00  0.00    -0.253 NA
ATOM     72  C4  MOL d          22.208  30.468  12.932  0.00  0.00    -0.042 A 
ATOM     73  S1  MOL d          22.444  28.746  10.768  0.00  0.00    -0.081 SA
ATOM     74  H35 MOL d          22.617  31.263  12.320  0.00  0.00     0.088 H 
ATOM     75  C1  MOL d          21.881  27.156  11.184  0.00  0.00     0.041 A 
ATOM     76  H36 MOL d          21.889  26.333  10.471  0.00  0.00     0.126 H 
ENDBRANCH  61  64
ENDBRANCH  44  61
ENDBRANCH  41  44
ENDBRANCH   1  41
TORSDOF 17
ENDMDL
MODEL 3
REMARK VINA RESULT:      -8.0      2.675      8.651
REMARK  17 active torsions:
REMARK  status: ('A' for Active; 'I' for Inactive)
REMARK    1  A    between atoms: C24_4  and  C22_7 
REMARK    2  A    between atoms: C22_7  and  O23_8 
REMARK    3  A    between atoms: O23_8  and  C21_9 
REMARK       I    between atoms: C21_9  and  N20_11 
REMARK    4  A    between atoms: N20_11  and  C19_12 
REMARK    5  A    between atoms: C19_12  and  C32_13 
REMARK    6  A    between atoms: C19_12  and  C17_20 
REMARK    7  A    between atoms: C32_13  and  C38_14 
REMARK    8  A    between atoms: C17_20  and  O18_21 
REMARK    9  A    between atoms: C17_20  and  C16_22 
REMARK   10  A    between atoms: C16_22  and  N11_23 
REMARK   11  A    between atoms: N11_23  and  C12_24 
REMARK   12  A    between atoms: N11_23  and  S8_29 
REMARK   13  A    between atoms: C12_24  and  C13_25 
REMARK   14  A    between atoms: C13_25  and  C14_26 
REMARK   15  A    between atoms: C13_25  and  C15_27 
REMARK   16  A    between atoms: C15_27  and  C18_28 
REMARK   17  A    between atoms: S8_29  and  C5_32 
ROOT
ATOM      1  C17 MOL d          17.722  31.258  14.399  0.00  0.00     0.067 C 
ATOM      2  H18 MOL d          16.647  31.490  14.389  0.00  0.00     0.088 H 
ENDROOT
BRANCH   1   3
ATOM      3  C19 MOL d          18.446  32.432  15.062  0.00  0.00     0.044 C 
ATOM      4  H10 MOL d          18.964  32.995  14.271  0.00  0.00     0.077 H 
BRANCH   3   5
ATOM      5  N20 MOL d          17.475  33.306  15.701  0.00  0.00    -0.329 N 
ATOM      6  C21 MOL d          16.253  32.958  16.093  0.00  0.00     0.361 C 
ATOM      7  O22 MOL d          15.774  31.837  16.031  0.00  0.00    -0.239 OA
ATOM      8  H9  MOL d          17.751  34.253  15.859  0.00  0.00     0.165 HD
BRANCH   6   9
ATOM      9  O23 MOL d          15.424  34.037  16.600  0.00  0.00    -0.302 OA
BRANCH   9  10
ATOM     10  C22 MOL d          15.226  34.180  18.008  0.00  0.00     0.049 C 
ATOM     11  H7  MOL d          14.173  33.994  18.264  0.00  0.00     0.078 H 
ATOM     12  H8  MOL d          15.868  33.474  18.555  0.00  0.00     0.078 H 
BRANCH  10  13
ATOM     13  C24 MOL d          15.606  35.609  18.352  0.00  0.00     0.034 C 
ATOM     14  N29 MOL d          17.022  35.690  18.592  0.00  0.00    -0.354 N 
ATOM     15  C27 MOL d          17.688  36.359  17.667  0.00  0.00     0.218 C 
ATOM     16  H1  MOL d          17.464  35.275  19.388  0.00  0.00     0.162 HD
ATOM     17  O28 MOL d          18.883  36.540  17.648  0.00  0.00    -0.274 OA
ATOM     18  C26 MOL d          16.748  36.907  16.622  0.00  0.00     0.011 C 
ATOM     19  C25 MOL d          15.378  36.579  17.192  0.00  0.00    -0.036 C 
ATOM     20  H5  MOL d          16.902  36.412  15.652  0.00  0.00     0.047 H 
ATOM     21  H6  MOL d          16.878  37.993  16.504  0.00  0.00     0.047 H 
ATOM     22  H3  MOL d          14.888  37.495  17.555  0.00  0.00     0.036 H 
ATOM     23  H4  MOL d          14.749  36.107  16.422  0.00  0.00     0.036 H 
ATOM     24  H2  MOL d          15.038  35.931  19.237  0.00  0.00     0.075 H 
ENDBRANCH  10  13
ENDBRANCH   9  10
ENDBRANCH   6   9
ENDBRANCH   3   5
BRANCH   3  25
ATOM     25  C32 MOL d          19.488  32.023  16.108  0.00  0.00    -0.020 C 
ATOM     26  H11 MOL d          19.606  30.929  16.086  0.00  0.00     0.043 H 
ATOM     27  H12 MOL d          19.138  32.334  17.103  0.00  0.00     0.043 H 
BRANCH  25  28
ATOM     28  C38 MOL d          20.836  32.672  15.831  0.00  0.00    -0.056 A 
ATOM     29  C37 MOL d          20.921  34.054  15.720  0.00  0.00    -0.077 A 
ATOM     30  C36 MOL d          22.150  34.663  15.472  0.00  0.00    -0.082 A 
ATOM     31  H13 MOL d          20.029  34.661  15.828  0.00  0.00     0.084 H 
ATOM     32  C35 MOL d          23.299  33.892  15.340  0.00  0.00    -0.083 A 
ATOM     33  H14 MOL d          22.210  35.742  15.381  0.00  0.00     0.083 H 
ATOM     34  C34 MOL d          23.216  32.510  15.453  0.00  0.00    -0.082 A 
ATOM     35  H15 MOL d          24.255  34.367  15.150  0.00  0.00     0.083 H 
ATOM     36  C33 MOL d          21.986  31.907  15.706  0.00  0.00    -0.077 A 
ATOM     37  H16 MOL d          24.106  31.902  15.345  0.00  0.00     0.083 H 
ATOM     38  H17 MOL d          21.928  30.829  15.806  0.00  0.00     0.084 H 
ENDBRANCH  25  28
ENDBRANCH   3  25
ENDBRANCH   1   3
BRANCH   1  39
ATOM     39  O18 MOL d          17.930  30.063  15.157  0.00  0.00    -0.392 OA
ATOM     40  H19 MOL d          17.719  30.226  16.068  0.00  0.00     0.210 HD
ENDBRANCH   1  39
BRANCH   1  41
ATOM     41  C16 MOL d          18.170  30.997  12.954  0.00  0.00     0.019 C 
ATOM     42  H20 MOL d          18.980  31.692  12.687  0.00  0.00     0.061 H 
ATOM     43  H21 MOL d          17.321  31.145  12.271  0.00  0.00     0.061 H 
BRANCH  41  44
ATOM     44  N11 MOL d          18.658  29.597  12.849  0.00  0.00    -0.204 NA
BRANCH  44  45
ATOM     45  C12 MOL d          20.008  29.522  12.244  0.00  0.00    -0.004 C 
ATOM     46  H22 MOL d          20.161  30.403  11.605  0.00  0.00     0.058 H 
ATOM     47  H23 MOL d          20.074  28.609  11.633  0.00  0.00     0.058 H 
BRANCH  45  48
ATOM     48  C13 MOL d          21.113  29.485  13.315  0.00  0.00    -0.046 C 
ATOM     49  H24 MOL d          21.175  30.488  13.763  0.00  0.00     0.041 H 
BRANCH  48  50
ATOM     50  C14 MOL d          20.856  28.493  14.450  0.00  0.00    -0.072 C 
ATOM     51  H25 MOL d          20.302  28.994  15.257  0.00  0.00     0.028 H 
ATOM     52  H26 MOL d          21.816  28.124  14.839  0.00  0.00     0.028 H 
ATOM     53  H27 MOL d          20.264  27.647  14.070  0.00  0.00     0.028 H 
ENDBRANCH  48  50
BRANCH  48  54
ATOM     54  C15 MOL d          22.452  29.173  12.637  0.00  0.00    -0.064 C 
ATOM     55  H28 MOL d          23.251  29.271  13.386  0.00  0.00     0.033 H 
ATOM     56  H29 MOL d          22.613  29.905  11.831  0.00  0.00     0.033 H 
BRANCH  54  57
ATOM     57  C18 MOL d          22.523  27.777  12.038  0.00  0.00    -0.076 C 
ATOM     58  H30 MOL d          22.596  27.852  10.943  0.00  0.00     0.027 H 
ATOM     59  H31 MOL d          21.616  27.215  12.308  0.00  0.00     0.027 H 
ATOM     60  H32 MOL d          23.409  27.255  12.430  0.00  0.00     0.027 H 
ENDBRANCH  54  57
ENDBRANCH  48  54
ENDBRANCH  45  48
ENDBRANCH  44  45
BRANCH  44  61
ATOM     61  S8  MOL d          17.591  28.549  12.202  0.00  0.00     0.243 S 
ATOM     62  O10 MOL d          16.639  29.321  11.463  0.00  0.00    -0.206 OA
ATOM     63  O9  MOL d          17.032  27.820  13.316  0.00  0.00    -0.206 OA
BRANCH  61  64
ATOM     64  C5  MOL d          18.341  27.469  11.214  0.00  0.00     0.076 A 
ATOM     65  C6  MOL d          18.191  27.629   9.834  0.00  0.00    -0.059 A 
ATOM     66  C7  MOL d          18.843  26.791   8.931  0.00  0.00    -0.052 A 
ATOM     67  H33 MOL d          17.554  28.420   9.458  0.00  0.00     0.086 H 
ATOM     68  C2  MOL d          19.649  25.761   9.375  0.00  0.00     0.074 A 
ATOM     69  H34 MOL d          18.717  26.949   7.867  0.00  0.00     0.087 H 
ATOM     70  C3  MOL d          19.809  25.561  10.748  0.00  0.00     0.036 A 
ATOM     71  N1  MOL d          20.354  24.845   8.672  0.00  0.00    -0.253 NA
ATOM     72  C4  MOL d          19.157  26.415  11.653  0.00  0.00    -0.042 A 
ATOM     73  S1  MOL d          20.824  24.249  11.173  0.00  0.00    -0.081 SA
ATOM     74  H35 MOL d          19.288  26.256  12.717  0.00  0.00     0.088 H 
ATOM     75  C1  MOL d          21.017  23.989   9.466  0.00  0.00     0.041 A 
ATOM     76  H36 MOL d          21.635  23.186   9.068  0.00  0.00     0.126 H 
ENDBRANCH  61  64
ENDBRANCH  44  61
ENDBRANCH  41  44
ENDBRANCH   1  41
TORSDOF 17
ENDMDL
MODEL 4
REMARK VINA RESULT:      -7.7      1.958      2.803
REMARK  17 active torsions:
REMARK  status: ('A' for Active; 'I' for Inactive)
REMARK    1  A    between atoms: C24_4  and  C22_7 
REMARK    2  A    between atoms: C22_7  and  O23_8 
REMARK    3  A    between atoms: O23_8  and  C21_9 
REMARK       I    between atoms: C21_9  and  N20_11 
REMARK    4  A    between atoms: N20_11  and  C19_12 
REMARK    5  A    between atoms: C19_12  and  C32_13 
REMARK    6  A    between atoms: C19_12  and  C17_20 
REMARK    7  A    between atoms: C32_13  and  C38_14 
REMARK    8  A    between atoms: C17_20  and  O18_21 
REMARK    9  A    between atoms: C17_20  and  C16_22 
REMARK   10  A    between atoms: C16_22  and  N11_23 
REMARK   11  A    between atoms: N11_23  and  C12_24 
REMARK   12  A    between atoms: N11_23  and  S8_29 
REMARK   13  A    between atoms: C12_24  and  C13_25 
REMARK   14  A    between atoms: C13_25  and  C14_26 
REMARK   15  A    between atoms: C13_25  and  C15_27 
REMARK   16  A    between atoms: C15_27  and  C18_28 
REMARK   17  A    between atoms: S8_29  and  C5_32 
ROOT
ATOM      1  C17 MOL d          20.679  29.208  13.968  0.00  0.00     0.067 C 
ATOM      2  H18 MOL d          20.123  30.123  14.221  0.00  0.00     0.088 H 
ENDROOT
BRANCH   1   3
ATOM      3  C19 MOL d          21.993  29.628  13.304  0.00  0.00     0.044 C 
ATOM      4  H10 MOL d          22.810  29.395  14.003  0.00  0.00     0.077 H 
BRANCH   3   5
ATOM      5  N20 MOL d          22.186  28.864  12.083  0.00  0.00    -0.329 N 
ATOM      6  C21 MOL d          23.232  28.093  11.803  0.00  0.00     0.361 C 
ATOM      7  O22 MOL d          24.167  27.858  12.550  0.00  0.00    -0.239 OA
ATOM      8  H9  MOL d          21.467  28.924  11.390  0.00  0.00     0.165 HD
BRANCH   6   9
ATOM      9  O23 MOL d          23.254  27.522  10.468  0.00  0.00    -0.302 OA
BRANCH   9  10
ATOM     10  C22 MOL d          24.170  26.470  10.159  0.00  0.00     0.049 C 
ATOM     11  H7  MOL d          24.424  26.488   9.089  0.00  0.00     0.078 H 
ATOM     12  H8  MOL d          25.087  26.578  10.756  0.00  0.00     0.078 H 
BRANCH  10  13
ATOM     13  C24 MOL d          23.466  25.170  10.510  0.00  0.00     0.034 C 
ATOM     14  N29 MOL d          22.042  25.351  10.417  0.00  0.00    -0.354 N 
ATOM     15  C27 MOL d          21.481  24.699   9.413  0.00  0.00     0.218 C 
ATOM     16  H1  MOL d          21.523  25.919  11.055  0.00  0.00     0.162 HD
ATOM     17  O28 MOL d          20.306  24.715   9.129  0.00  0.00    -0.274 OA
ATOM     18  C26 MOL d          22.506  23.890   8.660  0.00  0.00     0.011 C 
ATOM     19  C25 MOL d          23.757  24.051   9.509  0.00  0.00    -0.036 C 
ATOM     20  H5  MOL d          22.661  24.290   7.647  0.00  0.00     0.047 H 
ATOM     21  H6  MOL d          22.207  22.833   8.595  0.00  0.00     0.047 H 
ATOM     22  H3  MOL d          23.978  23.114  10.042  0.00  0.00     0.036 H 
ATOM     23  H4  MOL d          24.614  24.323   8.874  0.00  0.00     0.036 H 
ATOM     24  H2  MOL d          23.759  24.863  11.524  0.00  0.00     0.075 H 
ENDBRANCH  10  13
ENDBRANCH   9  10
ENDBRANCH   6   9
ENDBRANCH   3   5
BRANCH   3  25
ATOM     25  C32 MOL d          22.078  31.119  12.961  0.00  0.00    -0.020 C 
ATOM     26  H11 MOL d          21.133  31.433  12.495  0.00  0.00     0.043 H 
ATOM     27  H12 MOL d          22.906  31.276  12.254  0.00  0.00     0.043 H 
BRANCH  25  28
ATOM     28  C38 MOL d          22.322  31.960  14.204  0.00  0.00    -0.056 A 
ATOM     29  C37 MOL d          22.257  31.366  15.459  0.00  0.00    -0.077 A 
ATOM     30  C36 MOL d          22.483  32.123  16.606  0.00  0.00    -0.082 A 
ATOM     31  H13 MOL d          22.031  30.309  15.544  0.00  0.00     0.084 H 
ATOM     32  C35 MOL d          22.781  33.477  16.504  0.00  0.00    -0.083 A 
ATOM     33  H14 MOL d          22.426  31.656  17.582  0.00  0.00     0.083 H 
ATOM     34  C34 MOL d          22.849  34.073  15.250  0.00  0.00    -0.082 A 
ATOM     35  H15 MOL d          22.960  34.065  17.397  0.00  0.00     0.083 H 
ATOM     36  C33 MOL d          22.627  33.311  14.106  0.00  0.00    -0.077 A 
ATOM     37  H16 MOL d          23.075  35.129  15.162  0.00  0.00     0.083 H 
ATOM     38  H17 MOL d          22.692  33.776  13.130  0.00  0.00     0.084 H 
ENDBRANCH  25  28
ENDBRANCH   3  25
ENDBRANCH   1   3
BRANCH   1  39
ATOM     39  O18 MOL d          20.947  28.482  15.171  0.00  0.00    -0.392 OA
ATOM     40  H19 MOL d          21.816  28.703  15.486  0.00  0.00     0.210 HD
ENDBRANCH   1  39
BRANCH   1  41
ATOM     41  C16 MOL d          19.787  28.340  13.070  0.00  0.00     0.019 C 
ATOM     42  H20 MOL d          19.955  27.277  13.299  0.00  0.00     0.061 H 
ATOM     43  H21 MOL d          20.029  28.529  12.014  0.00  0.00     0.061 H 
BRANCH  41  44
ATOM     44  N11 MOL d          18.364  28.687  13.327  0.00  0.00    -0.204 NA
BRANCH  44  45
ATOM     45  C12 MOL d          17.451  27.566  13.005  0.00  0.00    -0.004 C 
ATOM     46  H22 MOL d          16.455  27.973  12.777  0.00  0.00     0.058 H 
ATOM     47  H23 MOL d          17.383  26.901  13.879  0.00  0.00     0.058 H 
BRANCH  45  48
ATOM     48  C13 MOL d          17.946  26.753  11.797  0.00  0.00    -0.046 C 
ATOM     49  H24 MOL d          19.014  26.979  11.659  0.00  0.00     0.041 H 
BRANCH  48  50
ATOM     50  C14 MOL d          17.818  25.238  11.963  0.00  0.00    -0.072 C 
ATOM     51  H25 MOL d          18.772  24.827  12.323  0.00  0.00     0.028 H 
ATOM     52  H26 MOL d          17.564  24.783  10.994  0.00  0.00     0.028 H 
ATOM     53  H27 MOL d          17.025  25.015  12.692  0.00  0.00     0.028 H 
ENDBRANCH  48  50
BRANCH  48  54
ATOM     54  C15 MOL d          17.188  27.210  10.545  0.00  0.00    -0.064 C 
ATOM     55  H28 MOL d          16.633  28.127  10.791  0.00  0.00     0.033 H 
ATOM     56  H29 MOL d          16.480  26.418  10.259  0.00  0.00     0.033 H 
BRANCH  54  57
ATOM     57  C18 MOL d          18.090  27.500   9.356  0.00  0.00    -0.076 C 
ATOM     58  H30 MOL d          18.894  28.186   9.664  0.00  0.00     0.027 H 
ATOM     59  H31 MOL d          17.500  27.966   8.552  0.00  0.00     0.027 H 
ATOM     60  H32 MOL d          18.530  26.560   8.990  0.00  0.00     0.027 H 
ENDBRANCH  54  57
ENDBRANCH  48  54
ENDBRANCH  45  48
ENDBRANCH  44  45
BRANCH  44  61
ATOM     61  S8  MOL d          17.889  30.118  12.708  0.00  0.00     0.243 S 
ATOM     62  O10 MOL d          16.591  29.919  12.139  0.00  0.00    -0.206 OA
ATOM     63  O9  MOL d          18.908  30.491  11.756  0.00  0.00    -0.206 OA
BRANCH  61  64
ATOM     64  C5  MOL d          17.830  31.279  13.871  0.00  0.00     0.076 A 
ATOM     65  C6  MOL d          18.931  32.128  14.006  0.00  0.00    -0.059 A 
ATOM     66  C7  MOL d          18.933  33.174  14.927  0.00  0.00    -0.052 A 
ATOM     67  H33 MOL d          19.802  31.970  13.381  0.00  0.00     0.086 H 
ATOM     68  C2  MOL d          17.847  33.395  15.750  0.00  0.00     0.074 A 
ATOM     69  H34 MOL d          19.798  33.823  14.998  0.00  0.00     0.087 H 
ATOM     70  C3  MOL d          16.734  32.556  15.655  0.00  0.00     0.036 A 
ATOM     71  N1  MOL d          17.656  34.338  16.702  0.00  0.00    -0.253 NA
ATOM     72  C4  MOL d          16.734  31.509  14.717  0.00  0.00    -0.042 A 
ATOM     73  S1  MOL d          15.457  32.926  16.733  0.00  0.00    -0.081 SA
ATOM     74  H35 MOL d          15.867  30.863  14.647  0.00  0.00     0.088 H 
ATOM     75  C1  MOL d          16.460  34.224  17.302  0.00  0.00     0.041 A 
ATOM     76  H36 MOL d          16.141  34.901  18.094  0.00  0.00     0.126 H 
ENDBRANCH  61  64
ENDBRANCH  44  61
ENDBRANCH  41  44
ENDBRANCH   1  41
TORSDOF 17
ENDMDL
MODEL 5
REMARK VINA RESULT:      -7.6      2.248      4.690
REMARK  17 active torsions:
REMARK  status: ('A' for Active; 'I' for Inactive)
REMARK    1  A    between atoms: C24_4  and  C22_7 
REMARK    2  A    between atoms: C22_7  and  O23_8 
REMARK    3  A    between atoms: O23_8  and  C21_9 
REMARK       I    between atoms: C21_9  and  N20_11 
REMARK    4  A    between atoms: N20_11  and  C19_12 
REMARK    5  A    between atoms: C19_12  and  C32_13 
REMARK    6  A    between atoms: C19_12  and  C17_20 
REMARK    7  A    between atoms: C32_13  and  C38_14 
REMARK    8  A    between atoms: C17_20  and  O18_21 
REMARK    9  A    between atoms: C17_20  and  C16_22 
REMARK   10  A    between atoms: C16_22  and  N11_23 
REMARK   11  A    between atoms: N11_23  and  C12_24 
REMARK   12  A    between atoms: N11_23  and  S8_29 
REMARK   13  A    between atoms: C12_24  and  C13_25 
REMARK   14  A    between atoms: C13_25  and  C14_26 
REMARK   15  A    between atoms: C13_25  and  C15_27 
REMARK   16  A    between atoms: C15_27  and  C18_28 
REMARK   17  A    between atoms: S8_29  and  C5_32 
ROOT
ATOM      1  C17 MOL d          18.541  32.377  14.288  0.00  0.00     0.067 C 
ATOM      2  H18 MOL d          18.144  33.360  14.581  0.00  0.00     0.088 H 
ENDROOT
BRANCH   1   3
ATOM      3  C19 MOL d          17.364  31.402  14.213  0.00  0.00     0.044 C 
ATOM      4  H10 MOL d          16.763  31.671  13.331  0.00  0.00     0.077 H 
BRANCH   3   5
ATOM      5  N20 MOL d          17.865  30.048  14.043  0.00  0.00    -0.329 N 
ATOM      6  C21 MOL d          18.073  29.433  12.883  0.00  0.00     0.361 C 
ATOM      7  O22 MOL d          17.932  29.927  11.777  0.00  0.00    -0.239 OA
ATOM      8  H9  MOL d          18.071  29.532  14.875  0.00  0.00     0.165 HD
BRANCH   6   9
ATOM      9  O23 MOL d          18.467  28.037  12.972  0.00  0.00    -0.302 OA
BRANCH   9  10
ATOM     10  C22 MOL d          17.522  27.011  12.666  0.00  0.00     0.049 C 
ATOM     11  H7  MOL d          17.565  26.216  13.425  0.00  0.00     0.078 H 
ATOM     12  H8  MOL d          16.505  27.429  12.630  0.00  0.00     0.078 H 
BRANCH  10  13
ATOM     13  C24 MOL d          17.911  26.459  11.306  0.00  0.00     0.034 C 
ATOM     14  N29 MOL d          19.331  26.592  11.117  0.00  0.00    -0.354 N 
ATOM     15  C27 MOL d          19.983  25.443  11.115  0.00  0.00     0.218 C 
ATOM     16  H1  MOL d          19.784  27.475  10.999  0.00  0.00     0.162 HD
ATOM     17  O28 MOL d          21.178  25.309  10.992  0.00  0.00    -0.274 OA
ATOM     18  C26 MOL d          19.028  24.284  11.263  0.00  0.00     0.011 C 
ATOM     19  C25 MOL d          17.666  24.955  11.185  0.00  0.00    -0.036 C 
ATOM     20  H5  MOL d          19.166  23.779  12.230  0.00  0.00     0.047 H 
ATOM     21  H6  MOL d          19.159  23.557  10.448  0.00  0.00     0.047 H 
ATOM     22  H3  MOL d          17.185  24.725  10.222  0.00  0.00     0.036 H 
ATOM     23  H4  MOL d          17.024  24.607  12.008  0.00  0.00     0.036 H 
ATOM     24  H2  MOL d          17.358  27.001  10.525  0.00  0.00     0.075 H 
ENDBRANCH  10  13
ENDBRANCH   9  10
ENDBRANCH   6   9
ENDBRANCH   3   5
BRANCH   3  25
ATOM     25  C32 MOL d          16.443  31.427  15.436  0.00  0.00    -0.020 C 
ATOM     26  H11 MOL d          16.953  30.936  16.278  0.00  0.00     0.043 H 
ATOM     27  H12 MOL d          15.518  30.882  15.200  0.00  0.00     0.043 H 
BRANCH  25  28
ATOM     28  C38 MOL d          16.090  32.853  15.835  0.00  0.00    -0.056 A 
ATOM     29  C37 MOL d          15.420  33.085  17.030  0.00  0.00    -0.077 A 
ATOM     30  C36 MOL d          15.095  34.385  17.410  0.00  0.00    -0.082 A 
ATOM     31  H13 MOL d          15.150  32.251  17.668  0.00  0.00     0.084 H 
ATOM     32  C35 MOL d          15.445  35.459  16.600  0.00  0.00    -0.083 A 
ATOM     33  H14 MOL d          14.568  34.560  18.341  0.00  0.00     0.083 H 
ATOM     34  C34 MOL d          16.117  35.229  15.406  0.00  0.00    -0.082 A 
ATOM     35  H15 MOL d          15.194  36.471  16.898  0.00  0.00     0.083 H 
ATOM     36  C33 MOL d          16.443  33.928  15.032  0.00  0.00    -0.077 A 
ATOM     37  H16 MOL d          16.388  36.061  14.766  0.00  0.00     0.083 H 
ATOM     38  H17 MOL d          16.979  33.753  14.106  0.00  0.00     0.084 H 
ENDBRANCH  25  28
ENDBRANCH   3  25
ENDBRANCH   1   3
BRANCH   1  39
ATOM     39  O18 MOL d          19.165  32.494  13.006  0.00  0.00    -0.392 OA
ATOM     40  H19 MOL d          19.110  33.394  12.709  0.00  0.00     0.210 HD
ENDBRANCH   1  39
BRANCH   1  41
ATOM     41  C16 MOL d          19.612  31.969  15.311  0.00  0.00     0.019 C 
ATOM     42  H20 MOL d          19.280  31.073  15.856  0.00  0.00     0.061 H 
ATOM     43  H21 MOL d          19.775  32.791  16.022  0.00  0.00     0.061 H 
BRANCH  41  44
ATOM     44  N11 MOL d          20.877  31.675  14.588  0.00  0.00    -0.204 NA
BRANCH  44  45
ATOM     45  C12 MOL d          21.244  30.242  14.667  0.00  0.00    -0.004 C 
ATOM     46  H22 MOL d          20.323  29.641  14.704  0.00  0.00     0.058 H 
ATOM     47  H23 MOL d          21.828  30.075  15.585  0.00  0.00     0.058 H 
BRANCH  45  48
ATOM     48  C13 MOL d          22.081  29.798  13.455  0.00  0.00    -0.046 C 
ATOM     49  H24 MOL d          23.067  30.277  13.538  0.00  0.00     0.041 H 
BRANCH  48  50
ATOM     50  C14 MOL d          22.313  28.288  13.371  0.00  0.00    -0.072 C 
ATOM     51  H25 MOL d          23.206  28.088  12.762  0.00  0.00     0.028 H 
ATOM     52  H26 MOL d          21.438  27.808  12.908  0.00  0.00     0.028 H 
ATOM     53  H27 MOL d          22.462  27.883  14.383  0.00  0.00     0.028 H 
ENDBRANCH  48  50
BRANCH  48  54
ATOM     54  C15 MOL d          21.404  30.297  12.173  0.00  0.00    -0.064 C 
ATOM     55  H28 MOL d          21.847  31.267  11.902  0.00  0.00     0.033 H 
ATOM     56  H29 MOL d          20.331  30.427  12.375  0.00  0.00     0.033 H 
BRANCH  54  57
ATOM     57  C18 MOL d          21.560  29.352  10.992  0.00  0.00    -0.076 C 
ATOM     58  H30 MOL d          21.503  29.925  10.055  0.00  0.00     0.027 H 
ATOM     59  H31 MOL d          20.754  28.603  11.013  0.00  0.00     0.027 H 
ATOM     60  H32 MOL d          22.534  28.845  11.053  0.00  0.00     0.027 H 
ENDBRANCH  54  57
ENDBRANCH  48  54
ENDBRANCH  45  48
ENDBRANCH  44  45
BRANCH  44  61
ATOM     61  S8  MOL d          22.109  32.686  14.928  0.00  0.00     0.243 S 
ATOM     62  O10 MOL d          22.634  33.145  13.679  0.00  0.00    -0.206 OA
ATOM     63  O9  MOL d          23.039  31.916  15.721  0.00  0.00    -0.206 OA
BRANCH  61  64
ATOM     64  C5  MOL d          21.601  33.959  15.837  0.00  0.00     0.076 A 
ATOM     65  C6  MOL d          22.311  35.158  15.740  0.00  0.00    -0.059 A 
ATOM     66  C7  MOL d          21.906  36.299  16.432  0.00  0.00    -0.052 A 
ATOM     67  H33 MOL d          23.194  35.202  15.114  0.00  0.00     0.086 H 
ATOM     68  C2  MOL d          20.796  36.274  17.251  0.00  0.00     0.074 A 
ATOM     69  H34 MOL d          22.472  37.218  16.325  0.00  0.00     0.087 H 
ATOM     70  C3  MOL d          20.071  35.088  17.385  0.00  0.00     0.036 A 
ATOM     71  N1  MOL d          20.250  37.257  18.004  0.00  0.00    -0.253 NA
ATOM     72  C4  MOL d          20.477  33.944  16.678  0.00  0.00    -0.042 A 
ATOM     73  S1  MOL d          18.722  35.181  18.435  0.00  0.00    -0.081 SA
ATOM     74  H35 MOL d          19.909  33.028  16.784  0.00  0.00     0.088 H 
ATOM     75  C1  MOL d          19.165  36.843  18.679  0.00  0.00     0.041 A 
ATOM     76  H36 MOL d          18.601  37.504  19.335  0.00  0.00     0.126 H 
ENDBRANCH  61  64
ENDBRANCH  44  61
ENDBRANCH  41  44
ENDBRANCH   1  41
TORSDOF 17
ENDMDL
MODEL 6
REMARK VINA RESULT:      -7.4      2.180      5.251
REMARK  17 active torsions:
REMARK  status: ('A' for Active; 'I' for Inactive)
REMARK    1  A    between atoms: C24_4  and  C22_7 
REMARK    2  A    between atoms: C22_7  and  O23_8 
REMARK    3  A    between atoms: O23_8  and  C21_9 
REMARK       I    between atoms: C21_9  and  N20_11 
REMARK    4  A    between atoms: N20_11  and  C19_12 
REMARK    5  A    between atoms: C19_12  and  C32_13 
REMARK    6  A    between atoms: C19_12  and  C17_20 
REMARK    7  A    between atoms: C32_13  and  C38_14 
REMARK    8  A    between atoms: C17_20  and  O18_21 
REMARK    9  A    between atoms: C17_20  and  C16_22 
REMARK   10  A    between atoms: C16_22  and  N11_23 
REMARK   11  A    between atoms: N11_23  and  C12_24 
REMARK   12  A    between atoms: N11_23  and  S8_29 
REMARK   13  A    between atoms: C12_24  and  C13_25 
REMARK   14  A    between atoms: C13_25  and  C14_26 
REMARK   15  A    between atoms: C13_25  and  C15_27 
REMARK   16  A    between atoms: C15_27  and  C18_28 
REMARK   17  A    between atoms: S8_29  and  C5_32 
ROOT
ATOM      1  C17 MOL d          19.356  31.255  12.197  0.00  0.00     0.067 C 
ATOM      2  H18 MOL d          18.366  31.184  11.725  0.00  0.00     0.088 H 
ENDROOT
BRANCH   1   3
ATOM      3  C19 MOL d          19.896  29.833  12.368  0.00  0.00     0.044 C 
ATOM      4  H10 MOL d          19.521  29.447  13.327  0.00  0.00     0.077 H 
BRANCH   3   5
ATOM      5  N20 MOL d          19.395  28.991  11.294  0.00  0.00    -0.329 N 
ATOM      6  C21 MOL d          18.159  28.514  11.189  0.00  0.00     0.361 C 
ATOM      7  O22 MOL d          17.233  28.754  11.946  0.00  0.00    -0.239 OA
ATOM      8  H9  MOL d          20.039  28.749  10.568  0.00  0.00     0.165 HD
BRANCH   6   9
ATOM      9  O23 MOL d          17.929  27.598  10.085  0.00  0.00    -0.302 OA
BRANCH   9  10
ATOM     10  C22 MOL d          19.040  27.044   9.378  0.00  0.00     0.049 C 
ATOM     11  H7  MOL d          19.275  27.660   8.497  0.00  0.00     0.078 H 
ATOM     12  H8  MOL d          19.920  26.991  10.035  0.00  0.00     0.078 H 
BRANCH  10  13
ATOM     13  C24 MOL d          18.622  25.649   8.946  0.00  0.00     0.034 C 
ATOM     14  N29 MOL d          19.636  24.701   9.324  0.00  0.00    -0.354 N 
ATOM     15  C27 MOL d          19.269  23.875  10.287  0.00  0.00     0.218 C 
ATOM     16  H1  MOL d          20.540  24.671   8.896  0.00  0.00     0.162 HD
ATOM     17  O28 MOL d          19.957  23.010  10.778  0.00  0.00    -0.274 OA
ATOM     18  C26 MOL d          17.839  24.129  10.695  0.00  0.00     0.011 C 
ATOM     19  C25 MOL d          17.372  25.153   9.673  0.00  0.00    -0.036 C 
ATOM     20  H5  MOL d          17.784  24.534  11.716  0.00  0.00     0.047 H 
ATOM     21  H6  MOL d          17.240  23.208  10.633  0.00  0.00     0.047 H 
ATOM     22  H3  MOL d          16.677  24.687   8.959  0.00  0.00     0.036 H 
ATOM     23  H4  MOL d          16.870  25.992  10.179  0.00  0.00     0.036 H 
ATOM     24  H2  MOL d          18.461  25.640   7.859  0.00  0.00     0.075 H 
ENDBRANCH  10  13
ENDBRANCH   9  10
ENDBRANCH   6   9
ENDBRANCH   3   5
BRANCH   3  25
ATOM     25  C32 MOL d          21.424  29.736  12.386  0.00  0.00    -0.020 C 
ATOM     26  H11 MOL d          21.775  29.807  13.426  0.00  0.00     0.043 H 
ATOM     27  H12 MOL d          21.843  30.566  11.799  0.00  0.00     0.043 H 
BRANCH  25  28
ATOM     28  C38 MOL d          21.902  28.419  11.791  0.00  0.00    -0.056 A 
ATOM     29  C37 MOL d          22.819  28.431  10.747  0.00  0.00    -0.077 A 
ATOM     30  C36 MOL d          23.269  27.233  10.196  0.00  0.00    -0.082 A 
ATOM     31  H13 MOL d          23.185  29.375  10.361  0.00  0.00     0.084 H 
ATOM     32  C35 MOL d          22.809  26.019  10.691  0.00  0.00    -0.083 A 
ATOM     33  H14 MOL d          23.980  27.248   9.378  0.00  0.00     0.083 H 
ATOM     34  C34 MOL d          21.894  26.005  11.737  0.00  0.00    -0.082 A 
ATOM     35  H15 MOL d          23.162  25.087  10.263  0.00  0.00     0.083 H 
ATOM     36  C33 MOL d          21.451  27.204  12.287  0.00  0.00    -0.077 A 
ATOM     37  H16 MOL d          21.526  25.061  12.124  0.00  0.00     0.083 H 
ATOM     38  H17 MOL d          20.746  27.189  13.111  0.00  0.00     0.084 H 
ENDBRANCH  25  28
ENDBRANCH   3  25
ENDBRANCH   1   3
BRANCH   1  39
ATOM     39  O18 MOL d          20.222  32.009  11.343  0.00  0.00    -0.392 OA
ATOM     40  H19 MOL d          19.749  32.753  10.991  0.00  0.00     0.210 HD
ENDBRANCH   1  39
BRANCH   1  41
ATOM     41  C16 MOL d          19.202  32.017  13.521  0.00  0.00     0.019 C 
ATOM     42  H20 MOL d          18.556  32.894  13.370  0.00  0.00     0.061 H 
ATOM     43  H21 MOL d          20.189  32.347  13.875  0.00  0.00     0.061 H 
BRANCH  41  44
ATOM     44  N11 MOL d          18.588  31.111  14.527  0.00  0.00    -0.204 NA
BRANCH  44  45
ATOM     45  C12 MOL d          17.155  31.413  14.747  0.00  0.00    -0.004 C 
ATOM     46  H22 MOL d          16.716  30.624  15.376  0.00  0.00     0.058 H 
ATOM     47  H23 MOL d          16.642  31.434  13.774  0.00  0.00     0.058 H 
BRANCH  45  48
ATOM     48  C13 MOL d          16.957  32.772  15.443  0.00  0.00    -0.046 C 
ATOM     49  H24 MOL d          17.810  32.926  16.120  0.00  0.00     0.041 H 
BRANCH  48  50
ATOM     50  C14 MOL d          16.910  33.966  14.489  0.00  0.00    -0.072 C 
ATOM     51  H25 MOL d          17.821  33.978  13.873  0.00  0.00     0.028 H 
ATOM     52  H26 MOL d          16.848  34.897  15.070  0.00  0.00     0.028 H 
ATOM     53  H27 MOL d          16.028  33.880  13.837  0.00  0.00     0.028 H 
ENDBRANCH  48  50
BRANCH  48  54
ATOM     54  C15 MOL d          15.675  32.719  16.282  0.00  0.00    -0.064 C 
ATOM     55  H28 MOL d          15.607  31.726  16.751  0.00  0.00     0.033 H 
ATOM     56  H29 MOL d          14.815  32.868  15.612  0.00  0.00     0.033 H 
BRANCH  54  57
ATOM     57  C18 MOL d          15.618  33.772  17.377  0.00  0.00    -0.076 C 
ATOM     58  H30 MOL d          15.841  34.760  16.948  0.00  0.00     0.027 H 
ATOM     59  H31 MOL d          16.359  33.534  18.155  0.00  0.00     0.027 H 
ATOM     60  H32 MOL d          14.611  33.784  17.822  0.00  0.00     0.027 H 
ENDBRANCH  54  57
ENDBRANCH  48  54
ENDBRANCH  45  48
ENDBRANCH  44  45
BRANCH  44  61
ATOM     61  S8  MOL d          19.441  30.942  15.905  0.00  0.00     0.243 S 
ATOM     62  O10 MOL d          20.215  29.746  15.776  0.00  0.00    -0.206 OA
ATOM     63  O9  MOL d          18.464  30.910  16.969  0.00  0.00    -0.206 OA
BRANCH  61  64
ATOM     64  C5  MOL d          20.425  32.235  16.158  0.00  0.00     0.076 A 
ATOM     65  C6  MOL d          21.784  32.091  15.870  0.00  0.00    -0.059 A 
ATOM     66  C7  MOL d          22.671  33.158  16.001  0.00  0.00    -0.052 A 
ATOM     67  H33 MOL d          22.156  31.130  15.536  0.00  0.00     0.086 H 
ATOM     68  C2  MOL d          22.235  34.392  16.440  0.00  0.00     0.074 A 
ATOM     69  H34 MOL d          23.718  33.017  15.756  0.00  0.00     0.087 H 
ATOM     70  C3  MOL d          20.886  34.569  16.754  0.00  0.00     0.036 A 
ATOM     71  N1  MOL d          22.927  35.538  16.639  0.00  0.00    -0.253 NA
ATOM     72  C4  MOL d          19.994  33.492  16.609  0.00  0.00    -0.042 A 
ATOM     73  S1  MOL d          20.469  36.139  17.294  0.00  0.00    -0.081 SA
ATOM     74  H35 MOL d          18.948  33.637  16.853  0.00  0.00     0.088 H 
ATOM     75  C1  MOL d          22.147  36.536  17.084  0.00  0.00     0.041 A 
ATOM     76  H36 MOL d          22.540  37.529  17.298  0.00  0.00     0.126 H 
ENDBRANCH  61  64
ENDBRANCH  44  61
ENDBRANCH  41  44
ENDBRANCH   1  41
TORSDOF 17
ENDMDL
MODEL 7
REMARK VINA RESULT:      -7.4      2.050      5.842
REMARK  17 active torsions:
REMARK  status: ('A' for Active; 'I' for Inactive)
REMARK    1  A    between atoms: C24_4  and  C22_7 
REMARK    2  A    between atoms: C22_7  and  O23_8 
REMARK    3  A    between atoms: O23_8  and  C21_9 
REMARK       I    between atoms: C21_9  and  N20_11 
REMARK    4  A    between atoms: N20_11  and  C19_12 
REMARK    5  A    between atoms: C19_12  and  C32_13 
REMARK    6  A    between atoms: C19_12  and  C17_20 
REMARK    7  A    between atoms: C32_13  and  C38_14 
REMARK    8  A    between atoms: C17_20  and  O18_21 
REMARK    9  A    between atoms: C17_20  and  C16_22 
REMARK   10  A    between atoms: C16_22  and  N11_23 
REMARK   11  A    between atoms: N11_23  and  C12_24 
REMARK   12  A    between atoms: N11_23  and  S8_29 
REMARK   13  A    between atoms: C12_24  and  C13_25 
REMARK   14  A    between atoms: C13_25  and  C14_26 
REMARK   15  A    between atoms: C13_25  and  C15_27 
REMARK   16  A    between atoms: C15_27  and  C18_28 
REMARK   17  A    between atoms: S8_29  and  C5_32 
ROOT
ATOM      1  C17 MOL d          18.587  29.792  13.435  0.00  0.00     0.067 C 
ATOM      2  H18 MOL d          19.599  29.934  13.840  0.00  0.00     0.088 H 
ENDROOT
BRANCH   1   3
ATOM      3  C19 MOL d          18.723  29.147  12.053  0.00  0.00     0.044 C 
ATOM      4  H10 MOL d          19.114  29.911  11.365  0.00  0.00     0.077 H 
BRANCH   3   5
ATOM      5  N20 MOL d          19.670  28.046  12.121  0.00  0.00    -0.329 N 
ATOM      6  C21 MOL d          20.989  28.144  11.990  0.00  0.00     0.361 C 
ATOM      7  O22 MOL d          21.619  29.179  11.849  0.00  0.00    -0.239 OA
ATOM      8  H9  MOL d          19.295  27.134  12.281  0.00  0.00     0.165 HD
BRANCH   6   9
ATOM      9  O23 MOL d          21.716  26.886  11.979  0.00  0.00    -0.302 OA
BRANCH   9  10
ATOM     10  C22 MOL d          22.812  26.706  11.080  0.00  0.00     0.049 C 
ATOM     11  H7  MOL d          22.561  27.112  10.089  0.00  0.00     0.078 H 
ATOM     12  H8  MOL d          23.708  27.212  11.468  0.00  0.00     0.078 H 
BRANCH  10  13
ATOM     13  C24 MOL d          23.051  25.209  10.989  0.00  0.00     0.034 C 
ATOM     14  N29 MOL d          21.819  24.540  10.671  0.00  0.00    -0.354 N 
ATOM     15  C27 MOL d          21.789  24.014   9.459  0.00  0.00     0.218 C 
ATOM     16  H1  MOL d          21.052  24.478  11.310  0.00  0.00     0.162 HD
ATOM     17  O28 MOL d          20.856  23.423   8.968  0.00  0.00    -0.274 OA
ATOM     18  C26 MOL d          23.104  24.224   8.751  0.00  0.00     0.011 C 
ATOM     19  C25 MOL d          23.981  24.828   9.836  0.00  0.00    -0.036 C 
ATOM     20  H5  MOL d          22.991  24.915   7.903  0.00  0.00     0.047 H 
ATOM     21  H6  MOL d          23.518  23.269   8.394  0.00  0.00     0.047 H 
ATOM     22  H3  MOL d          24.725  24.092  10.176  0.00  0.00     0.036 H 
ATOM     23  H4  MOL d          24.497  25.721   9.453  0.00  0.00     0.036 H 
ATOM     24  H2  MOL d          23.460  24.850  11.944  0.00  0.00     0.075 H 
ENDBRANCH  10  13
ENDBRANCH   9  10
ENDBRANCH   6   9
ENDBRANCH   3   5
BRANCH   3  25
ATOM     25  C32 MOL d          17.408  28.618  11.471  0.00  0.00    -0.020 C 
ATOM     26  H11 MOL d          17.125  29.237  10.607  0.00  0.00     0.043 H 
ATOM     27  H12 MOL d          16.625  28.681  12.241  0.00  0.00     0.043 H 
BRANCH  25  28
ATOM     28  C38 MOL d          17.545  27.171  11.021  0.00  0.00    -0.056 A 
ATOM     29  C37 MOL d          17.545  26.872   9.664  0.00  0.00    -0.077 A 
ATOM     30  C36 MOL d          17.674  25.552   9.237  0.00  0.00    -0.082 A 
ATOM     31  H13 MOL d          17.444  27.669   8.936  0.00  0.00     0.084 H 
ATOM     32  C35 MOL d          17.811  24.527  10.165  0.00  0.00    -0.083 A 
ATOM     33  H14 MOL d          17.668  25.324   8.177  0.00  0.00     0.083 H 
ATOM     34  C34 MOL d          17.814  24.824  11.523  0.00  0.00    -0.082 A 
ATOM     35  H15 MOL d          17.915  23.500   9.832  0.00  0.00     0.083 H 
ATOM     36  C33 MOL d          17.689  26.145  11.944  0.00  0.00    -0.077 A 
ATOM     37  H16 MOL d          17.915  24.029  12.252  0.00  0.00     0.083 H 
ATOM     38  H17 MOL d          17.705  26.374  13.003  0.00  0.00     0.084 H 
ENDBRANCH  25  28
ENDBRANCH   3  25
ENDBRANCH   1   3
BRANCH   1  39
ATOM     39  O18 MOL d          17.856  28.928  14.310  0.00  0.00    -0.392 OA
ATOM     40  H19 MOL d          17.047  28.664  13.889  0.00  0.00     0.210 HD
ENDBRANCH   1  39
BRANCH   1  41
ATOM     41  C16 MOL d          17.886  31.158  13.409  0.00  0.00     0.019 C 
ATOM     42  H20 MOL d          16.811  31.025  13.602  0.00  0.00     0.061 H 
ATOM     43  H21 MOL d          18.026  31.627  12.425  0.00  0.00     0.061 H 
BRANCH  41  44
ATOM     44  N11 MOL d          18.480  32.022  14.463  0.00  0.00    -0.204 NA
BRANCH  44  45
ATOM     45  C12 MOL d          17.971  33.411  14.397  0.00  0.00    -0.004 C 
ATOM     46  H22 MOL d          17.946  33.731  13.345  0.00  0.00     0.058 H 
ATOM     47  H23 MOL d          18.649  34.066  14.963  0.00  0.00     0.058 H 
BRANCH  45  48
ATOM     48  C13 MOL d          16.555  33.530  14.987  0.00  0.00    -0.046 C 
ATOM     49  H24 MOL d          15.850  33.127  14.245  0.00  0.00     0.041 H 
BRANCH  48  50
ATOM     50  C14 MOL d          16.347  32.748  16.285  0.00  0.00    -0.072 C 
ATOM     51  H25 MOL d          16.760  31.735  16.172  0.00  0.00     0.028 H 
ATOM     52  H26 MOL d          15.271  32.684  16.506  0.00  0.00     0.028 H 
ATOM     53  H27 MOL d          16.861  33.264  17.110  0.00  0.00     0.028 H 
ENDBRANCH  48  50
BRANCH  48  54
ATOM     54  C15 MOL d          16.231  35.012  15.208  0.00  0.00    -0.064 C 
ATOM     55  H28 MOL d          15.513  35.330  14.438  0.00  0.00     0.033 H 
ATOM     56  H29 MOL d          17.161  35.590  15.104  0.00  0.00     0.033 H 
BRANCH  54  57
ATOM     57  C18 MOL d          15.633  35.310  16.574  0.00  0.00    -0.076 C 
ATOM     58  H30 MOL d          15.641  34.395  17.185  0.00  0.00     0.027 H 
ATOM     59  H31 MOL d          14.596  35.659  16.453  0.00  0.00     0.027 H 
ATOM     60  H32 MOL d          16.227  36.090  17.073  0.00  0.00     0.027 H 
ENDBRANCH  54  57
ENDBRANCH  48  54
ENDBRANCH  45  48
ENDBRANCH  44  45
BRANCH  44  61
ATOM     61  S8  MOL d          20.101  31.923  14.593  0.00  0.00     0.243 S 
ATOM     62  O10 MOL d          20.650  32.375  13.351  0.00  0.00    -0.206 OA
ATOM     63  O9  MOL d          20.386  30.542  14.904  0.00  0.00    -0.206 OA
BRANCH  61  64
ATOM     64  C5  MOL d          20.657  32.849  15.833  0.00  0.00     0.076 A 
ATOM     65  C6  MOL d          21.937  32.585  16.326  0.00  0.00    -0.059 A 
ATOM     66  C7  MOL d          22.502  33.363  17.335  0.00  0.00    -0.052 A 
ATOM     67  H33 MOL d          22.503  31.757  15.915  0.00  0.00     0.086 H 
ATOM     68  C2  MOL d          21.803  34.414  17.893  0.00  0.00     0.074 A 
ATOM     69  H34 MOL d          23.503  33.140  17.686  0.00  0.00     0.087 H 
ATOM     70  C3  MOL d          20.514  34.698  17.437  0.00  0.00     0.036 A 
ATOM     71  N1  MOL d          22.165  35.275  18.874  0.00  0.00    -0.253 NA
ATOM     72  C4  MOL d          19.954  33.916  16.413  0.00  0.00    -0.042 A 
ATOM     73  S1  MOL d          19.747  36.018  18.213  0.00  0.00    -0.081 SA
ATOM     74  H35 MOL d          18.953  34.143  16.062  0.00  0.00     0.088 H 
ATOM     75  C1  MOL d          21.201  36.167  19.152  0.00  0.00     0.041 A 
ATOM     76  H36 MOL d          21.322  36.933  19.917  0.00  0.00     0.126 H 
ENDBRANCH  61  64
ENDBRANCH  44  61
ENDBRANCH  41  44
ENDBRANCH   1  41
TORSDOF 17
ENDMDL
MODEL 8
REMARK VINA RESULT:      -7.0      1.822      5.454
REMARK  17 active torsions:
REMARK  status: ('A' for Active; 'I' for Inactive)
REMARK    1  A    between atoms: C24_4  and  C22_7 
REMARK    2  A    between atoms: C22_7  and  O23_8 
REMARK    3  A    between atoms: O23_8  and  C21_9 
REMARK       I    between atoms: C21_9  and  N20_11 
REMARK    4  A    between atoms: N20_11  and  C19_12 
REMARK    5  A    between atoms: C19_12  and  C32_13 
REMARK    6  A    between atoms: C19_12  and  C17_20 
REMARK    7  A    between atoms: C32_13  and  C38_14 
REMARK    8  A    between atoms: C17_20  and  O18_21 
REMARK    9  A    between atoms: C17_20  and  C16_22 
REMARK   10  A    between atoms: C16_22  and  N11_23 
REMARK   11  A    between atoms: N11_23  and  C12_24 
REMARK   12  A    between atoms: N11_23  and  S8_29 
REMARK   13  A    between atoms: C12_24  and  C13_25 
REMARK   14  A    between atoms: C13_25  and  C14_26 
REMARK   15  A    between atoms: C13_25  and  C15_27 
REMARK   16  A    between atoms: C15_27  and  C18_28 
REMARK   17  A    between atoms: S8_29  and  C5_32 
ROOT
ATOM      1  C17 MOL d          21.612  29.663  13.577  0.00  0.00     0.067 C 
ATOM      2  H18 MOL d          21.352  30.481  12.889  0.00  0.00     0.088 H 
ENDROOT
BRANCH   1   3
ATOM      3  C19 MOL d          21.800  28.393  12.744  0.00  0.00     0.044 C 
ATOM      4  H10 MOL d          22.440  27.708  13.319  0.00  0.00     0.077 H 
BRANCH   3   5
ATOM      5  N20 MOL d          20.509  27.759  12.527  0.00  0.00    -0.329 N 
ATOM      6  C21 MOL d          19.529  28.229  11.761  0.00  0.00     0.361 C 
ATOM      7  O22 MOL d          19.579  29.236  11.074  0.00  0.00    -0.239 OA
ATOM      8  H9  MOL d          20.344  26.892  12.996  0.00  0.00     0.165 HD
BRANCH   6   9
ATOM      9  O23 MOL d          18.288  27.475  11.794  0.00  0.00    -0.302 OA
BRANCH   9  10
ATOM     10  C22 MOL d          17.429  27.470  10.652  0.00  0.00     0.049 C 
ATOM     11  H7  MOL d          16.390  27.662  10.958  0.00  0.00     0.078 H 
ATOM     12  H8  MOL d          17.748  28.238   9.933  0.00  0.00     0.078 H 
BRANCH  10  13
ATOM     13  C24 MOL d          17.547  26.088  10.032  0.00  0.00     0.034 C 
ATOM     14  N29 MOL d          18.646  26.066   9.105  0.00  0.00    -0.354 N 
ATOM     15  C27 MOL d          19.670  25.331   9.501  0.00  0.00     0.218 C 
ATOM     16  H1  MOL d          18.636  26.563   8.237  0.00  0.00     0.162 HD
ATOM     17  O28 MOL d          20.706  25.179   8.897  0.00  0.00    -0.274 OA
ATOM     18  C26 MOL d          19.373  24.665  10.820  0.00  0.00     0.011 C 
ATOM     19  C25 MOL d          17.911  25.010  11.053  0.00  0.00    -0.036 C 
ATOM     20  H5  MOL d          20.008  25.072  11.621  0.00  0.00     0.047 H 
ATOM     21  H6  MOL d          19.517  23.576  10.756  0.00  0.00     0.047 H 
ATOM     22  H3  MOL d          17.282  24.119  10.904  0.00  0.00     0.036 H 
ATOM     23  H4  MOL d          17.769  25.392  12.076  0.00  0.00     0.036 H 
ATOM     24  H2  MOL d          16.602  25.836   9.530  0.00  0.00     0.075 H 
ENDBRANCH  10  13
ENDBRANCH   9  10
ENDBRANCH   6   9
ENDBRANCH   3   5
BRANCH   3  25
ATOM     25  C32 MOL d          22.460  28.623  11.382  0.00  0.00    -0.020 C 
ATOM     26  H11 MOL d          23.264  29.366  11.494  0.00  0.00     0.043 H 
ATOM     27  H12 MOL d          21.706  29.002  10.677  0.00  0.00     0.043 H 
BRANCH  25  28
ATOM     28  C38 MOL d          23.051  27.334  10.828  0.00  0.00    -0.056 A 
ATOM     29  C37 MOL d          22.929  26.157  11.555  0.00  0.00    -0.077 A 
ATOM     30  C36 MOL d          23.460  24.968  11.059  0.00  0.00    -0.082 A 
ATOM     31  H13 MOL d          22.418  26.162  12.511  0.00  0.00     0.084 H 
ATOM     32  C35 MOL d          24.110  24.951   9.830  0.00  0.00    -0.083 A 
ATOM     33  H14 MOL d          23.367  24.053  11.632  0.00  0.00     0.083 H 
ATOM     34  C34 MOL d          24.231  26.128   9.101  0.00  0.00    -0.082 A 
ATOM     35  H15 MOL d          24.521  24.025   9.443  0.00  0.00     0.083 H 
ATOM     36  C33 MOL d          23.695  27.312   9.599  0.00  0.00    -0.077 A 
ATOM     37  H16 MOL d          24.742  26.124   8.145  0.00  0.00     0.083 H 
ATOM     38  H17 MOL d          23.780  28.225   9.022  0.00  0.00     0.084 H 
ENDBRANCH  25  28
ENDBRANCH   3  25
ENDBRANCH   1   3
BRANCH   1  39
ATOM     39  O18 MOL d          22.831  29.994  14.248  0.00  0.00    -0.392 OA
ATOM     40  H19 MOL d          22.981  30.930  14.188  0.00  0.00     0.210 HD
ENDBRANCH   1  39
BRANCH   1  41
ATOM     41  C16 MOL d          20.499  29.550  14.628  0.00  0.00     0.019 C 
ATOM     42  H20 MOL d          20.926  29.218  15.585  0.00  0.00     0.061 H 
ATOM     43  H21 MOL d          19.745  28.824  14.292  0.00  0.00     0.061 H 
BRANCH  41  44
ATOM     44  N11 MOL d          19.864  30.884  14.800  0.00  0.00    -0.204 NA
BRANCH  44  45
ATOM     45  C12 MOL d          20.134  31.460  16.138  0.00  0.00    -0.004 C 
ATOM     46  H22 MOL d          20.279  30.640  16.856  0.00  0.00     0.058 H 
ATOM     47  H23 MOL d          19.269  32.067  16.444  0.00  0.00     0.058 H 
BRANCH  45  48
ATOM     48  C13 MOL d          21.391  32.348  16.135  0.00  0.00    -0.046 C 
ATOM     49  H24 MOL d          22.266  31.687  16.214  0.00  0.00     0.041 H 
BRANCH  48  50
ATOM     50  C14 MOL d          21.565  33.187  14.869  0.00  0.00    -0.072 C 
ATOM     51  H25 MOL d          22.529  32.945  14.398  0.00  0.00     0.028 H 
ATOM     52  H26 MOL d          21.543  34.255  15.131  0.00  0.00     0.028 H 
ATOM     53  H27 MOL d          20.748  32.965  14.166  0.00  0.00     0.028 H 
ENDBRANCH  48  50
BRANCH  48  54
ATOM     54  C15 MOL d          21.359  33.258  17.369  0.00  0.00    -0.064 C 
ATOM     55  H28 MOL d          21.411  32.627  18.268  0.00  0.00     0.033 H 
ATOM     56  H29 MOL d          20.410  33.815  17.365  0.00  0.00     0.033 H 
BRANCH  54  57
ATOM     57  C18 MOL d          22.503  34.259  17.419  0.00  0.00    -0.076 C 
ATOM     58  H30 MOL d          22.230  35.156  16.844  0.00  0.00     0.027 H 
ATOM     59  H31 MOL d          23.407  33.806  16.985  0.00  0.00     0.027 H 
ATOM     60  H32 MOL d          22.699  34.540  18.465  0.00  0.00     0.027 H 
ENDBRANCH  54  57
ENDBRANCH  48  54
ENDBRANCH  45  48
ENDBRANCH  44  45
BRANCH  44  61
ATOM     61  S8  MOL d          18.298  30.957  14.359  0.00  0.00     0.243 S 
ATOM     62  O10 MOL d          17.776  29.627  14.439  0.00  0.00    -0.206 OA
ATOM     63  O9  MOL d          18.291  31.522  13.030  0.00  0.00    -0.206 OA
BRANCH  61  64
ATOM     64  C5  MOL d          17.448  31.964  15.343  0.00  0.00     0.076 A 
ATOM     65  C6  MOL d          16.143  31.600  15.685  0.00  0.00    -0.059 A 
ATOM     66  C7  MOL d          15.380  32.370  16.561  0.00  0.00    -0.052 A 
ATOM     67  H33 MOL d          15.715  30.700  15.259  0.00  0.00     0.086 H 
ATOM     68  C2  MOL d          15.888  33.531  17.108  0.00  0.00     0.074 A 
ATOM     69  H34 MOL d          14.376  32.053  16.816  0.00  0.00     0.087 H 
ATOM     70  C3  MOL d          17.183  33.935  16.777  0.00  0.00     0.036 A 
ATOM     71  N1  MOL d          15.315  34.412  17.962  0.00  0.00    -0.253 NA
ATOM     72  C4  MOL d          17.950  33.150  15.901  0.00  0.00    -0.042 A 
ATOM     73  S1  MOL d          17.694  35.395  17.511  0.00  0.00    -0.081 SA
ATOM     74  H35 MOL d          18.955  33.468  15.649  0.00  0.00     0.088 H 
ATOM     75  C1  MOL d          16.129  35.435  18.264  0.00  0.00     0.041 A 
ATOM     76  H36 MOL d          15.829  36.238  18.937  0.00  0.00     0.126 H 
ENDBRANCH  61  64
ENDBRANCH  44  61
ENDBRANCH  41  44
ENDBRANCH   1  41
TORSDOF 17
ENDMDL
MODEL 9
REMARK VINA RESULT:      -6.8      2.418      7.023
REMARK  17 active torsions:
REMARK  status: ('A' for Active; 'I' for Inactive)
REMARK    1  A    between atoms: C24_4  and  C22_7 
REMARK    2  A    between atoms: C22_7  and  O23_8 
REMARK    3  A    between atoms: O23_8  and  C21_9 
REMARK       I    between atoms: C21_9  and  N20_11 
REMARK    4  A    between atoms: N20_11  and  C19_12 
REMARK    5  A    between atoms: C19_12  and  C32_13 
REMARK    6  A    between atoms: C19_12  and  C17_20 
REMARK    7  A    between atoms: C32_13  and  C38_14 
REMARK    8  A    between atoms: C17_20  and  O18_21 
REMARK    9  A    between atoms: C17_20  and  C16_22 
REMARK   10  A    between atoms: C16_22  and  N11_23 
REMARK   11  A    between atoms: N11_23  and  C12_24 
REMARK   12  A    between atoms: N11_23  and  S8_29 
REMARK   13  A    between atoms: C12_24  and  C13_25 
REMARK   14  A    between atoms: C13_25  and  C14_26 
REMARK   15  A    between atoms: C13_25  and  C15_27 
REMARK   16  A    between atoms: C15_27  and  C18_28 
REMARK   17  A    between atoms: S8_29  and  C5_32 
ROOT
ATOM      1  C17 MOL d          20.978  28.437  11.737  0.00  0.00     0.067 C 
ATOM      2  H18 MOL d          21.067  27.634  10.991  0.00  0.00     0.088 H 
ENDROOT
BRANCH   1   3
ATOM      3  C19 MOL d          22.386  28.961  12.029  0.00  0.00     0.044 C 
ATOM      4  H10 MOL d          22.726  29.517  11.142  0.00  0.00     0.077 H 
BRANCH   3   5
ATOM      5  N20 MOL d          22.341  29.870  13.163  0.00  0.00    -0.329 N 
ATOM      6  C21 MOL d          21.833  31.098  13.159  0.00  0.00     0.361 C 
ATOM      7  O22 MOL d          21.273  31.637  12.219  0.00  0.00    -0.239 OA
ATOM      8  H9  MOL d          22.727  29.540  14.025  0.00  0.00     0.165 HD
BRANCH   6   9
ATOM      9  O23 MOL d          22.009  31.857  14.385  0.00  0.00    -0.302 OA
BRANCH   9  10
ATOM     10  C22 MOL d          22.210  33.270  14.324  0.00  0.00     0.049 C 
ATOM     11  H7  MOL d          22.698  33.544  13.378  0.00  0.00     0.078 H 
ATOM     12  H8  MOL d          21.246  33.794  14.406  0.00  0.00     0.078 H 
BRANCH  10  13
ATOM     13  C24 MOL d          23.103  33.629  15.499  0.00  0.00     0.034 C 
ATOM     14  N29 MOL d          22.907  35.009  15.852  0.00  0.00    -0.354 N 
ATOM     15  C27 MOL d          22.304  35.187  17.015  0.00  0.00     0.218 C 
ATOM     16  H1  MOL d          23.201  35.767  15.270  0.00  0.00     0.162 HD
ATOM     17  O28 MOL d          22.020  36.253  17.507  0.00  0.00    -0.274 OA
ATOM     18  C26 MOL d          22.030  33.864  17.684  0.00  0.00     0.011 C 
ATOM     19  C25 MOL d          22.736  32.870  16.775  0.00  0.00    -0.036 C 
ATOM     20  H5  MOL d          20.950  33.659  17.731  0.00  0.00     0.047 H 
ATOM     21  H6  MOL d          22.452  33.839  18.700  0.00  0.00     0.047 H 
ATOM     22  H3  MOL d          23.645  32.488  17.264  0.00  0.00     0.036 H 
ATOM     23  H4  MOL d          22.066  32.030  16.538  0.00  0.00     0.036 H 
ATOM     24  H2  MOL d          24.151  33.436  15.228  0.00  0.00     0.075 H 
ENDBRANCH  10  13
ENDBRANCH   9  10
ENDBRANCH   6   9
ENDBRANCH   3   5
BRANCH   3  25
ATOM     25  C32 MOL d          23.418  27.869  12.325  0.00  0.00    -0.020 C 
ATOM     26  H11 MOL d          23.096  27.304  13.213  0.00  0.00     0.043 H 
ATOM     27  H12 MOL d          24.391  28.340  12.523  0.00  0.00     0.043 H 
BRANCH  25  28
ATOM     28  C38 MOL d          23.561  26.910  11.153  0.00  0.00    -0.056 A 
ATOM     29  C37 MOL d          23.121  25.598  11.282  0.00  0.00    -0.077 A 
ATOM     30  C36 MOL d          23.241  24.710  10.215  0.00  0.00    -0.082 A 
ATOM     31  H13 MOL d          22.682  25.265  12.215  0.00  0.00     0.084 H 
ATOM     32  C35 MOL d          23.796  25.132   9.012  0.00  0.00    -0.083 A 
ATOM     33  H14 MOL d          22.900  23.687  10.322  0.00  0.00     0.083 H 
ATOM     34  C34 MOL d          24.234  26.444   8.881  0.00  0.00    -0.082 A 
ATOM     35  H15 MOL d          23.886  24.441   8.182  0.00  0.00     0.083 H 
ATOM     36  C33 MOL d          24.108  27.329   9.948  0.00  0.00    -0.077 A 
ATOM     37  H16 MOL d          24.674  26.779   7.948  0.00  0.00     0.083 H 
ATOM     38  H17 MOL d          24.440  28.355   9.838  0.00  0.00     0.084 H 
ENDBRANCH  25  28
ENDBRANCH   3  25
ENDBRANCH   1   3
BRANCH   1  39
ATOM     39  O18 MOL d          20.167  29.484  11.194  0.00  0.00    -0.392 OA
ATOM     40  H19 MOL d          19.271  29.374  11.489  0.00  0.00     0.210 HD
ENDBRANCH   1  39
BRANCH   1  41
ATOM     41  C16 MOL d          20.266  27.867  12.972  0.00  0.00     0.019 C 
ATOM     42  H20 MOL d          20.077  28.674  13.695  0.00  0.00     0.061 H 
ATOM     43  H21 MOL d          20.896  27.097  13.440  0.00  0.00     0.061 H 
BRANCH  41  44
ATOM     44  N11 MOL d          18.975  27.265  12.547  0.00  0.00    -0.204 NA
BRANCH  44  45
ATOM     45  C12 MOL d          18.978  26.898  11.111  0.00  0.00    -0.004 C 
ATOM     46  H22 MOL d          20.011  26.941  10.735  0.00  0.00     0.058 H 
ATOM     47  H23 MOL d          18.357  27.618  10.559  0.00  0.00     0.058 H 
BRANCH  45  48
ATOM     48  C13 MOL d          18.423  25.481  10.882  0.00  0.00    -0.046 C 
ATOM     49  H24 MOL d          17.770  25.238  11.733  0.00  0.00     0.041 H 
BRANCH  48  50
ATOM     50  C14 MOL d          17.589  25.331   9.609  0.00  0.00    -0.072 C 
ATOM     51  H25 MOL d          17.163  24.319   9.567  0.00  0.00     0.028 H 
ATOM     52  H26 MOL d          18.230  25.496   8.730  0.00  0.00     0.028 H 
ATOM     53  H27 MOL d          16.775  26.071   9.615  0.00  0.00     0.028 H 
ENDBRANCH  48  50
BRANCH  48  54
ATOM     54  C15 MOL d          19.590  24.487  10.866  0.00  0.00    -0.064 C 
ATOM     55  H28 MOL d          20.475  24.983  11.290  0.00  0.00     0.033 H 
ATOM     56  H29 MOL d          19.791  24.204   9.822  0.00  0.00     0.033 H 
BRANCH  54  57
ATOM     57  C18 MOL d          19.324  23.220  11.664  0.00  0.00    -0.076 C 
ATOM     58  H30 MOL d          20.264  22.664  11.795  0.00  0.00     0.027 H 
ATOM     59  H31 MOL d          18.599  22.591  11.124  0.00  0.00     0.027 H 
ATOM     60  H32 MOL d          18.915  23.486  12.650  0.00  0.00     0.027 H 
ENDBRANCH  54  57
ENDBRANCH  48  54
ENDBRANCH  45  48
ENDBRANCH  44  45
BRANCH  44  61
ATOM     61  S8  MOL d          17.650  28.094  13.008  0.00  0.00     0.243 S 
ATOM     62  O10 MOL d          16.821  27.187  13.740  0.00  0.00    -0.206 OA
ATOM     63  O9  MOL d          17.058  28.594  11.789  0.00  0.00    -0.206 OA
BRANCH  61  64
ATOM     64  C5  MOL d          18.051  29.385  13.944  0.00  0.00     0.076 A 
ATOM     65  C6  MOL d          18.874  29.162  15.050  0.00  0.00    -0.059 A 
ATOM     66  C7  MOL d          19.306  30.213  15.857  0.00  0.00    -0.052 A 
ATOM     67  H33 MOL d          19.183  28.151  15.286  0.00  0.00     0.086 H 
ATOM     68  C2  MOL d          18.919  31.512  15.597  0.00  0.00     0.074 A 
ATOM     69  H34 MOL d          19.955  30.008  16.701  0.00  0.00     0.087 H 
ATOM     70  C3  MOL d          18.083  31.771  14.508  0.00  0.00     0.036 A 
ATOM     71  N1  MOL d          19.219  32.657  16.254  0.00  0.00    -0.253 NA
ATOM     72  C4  MOL d          17.658  30.709  13.693  0.00  0.00    -0.042 A 
ATOM     73  S1  MOL d          17.665  33.418  14.294  0.00  0.00    -0.081 SA
ATOM     74  H35 MOL d          17.011  30.917  12.848  0.00  0.00     0.088 H 
ATOM     75  C1  MOL d          18.640  33.733  15.697  0.00  0.00     0.041 A 
ATOM     76  H36 MOL d          18.773  34.737  16.098  0.00  0.00     0.126 H 
ENDBRANCH  61  64
ENDBRANCH  44  61
ENDBRANCH  41  44
ENDBRANCH   1  41
TORSDOF 17
ENDMDL
MODEL 10
REMARK VINA RESULT:      -6.2      2.377      6.658
REMARK  17 active torsions:
REMARK  status: ('A' for Active; 'I' for Inactive)
REMARK    1  A    between atoms: C24_4  and  C22_7 
REMARK    2  A    between atoms: C22_7  and  O23_8 
REMARK    3  A    between atoms: O23_8  and  C21_9 
REMARK       I    between atoms: C21_9  and  N20_11 
REMARK    4  A    between atoms: N20_11  and  C19_12 
REMARK    5  A    between atoms: C19_12  and  C32_13 
REMARK    6  A    between atoms: C19_12  and  C17_20 
REMARK    7  A    between atoms: C32_13  and  C38_14 
REMARK    8  A    between atoms: C17_20  and  O18_21 
REMARK    9  A    between atoms: C17_20  and  C16_22 
REMARK   10  A    between atoms: C16_22  and  N11_23 
REMARK   11  A    between atoms: N11_23  and  C12_24 
REMARK   12  A    between atoms: N11_23  and  S8_29 
REMARK   13  A    between atoms: C12_24  and  C13_25 
REMARK   14  A    between atoms: C13_25  and  C14_26 
REMARK   15  A    between atoms: C13_25  and  C15_27 
REMARK   16  A    between atoms: C15_27  and  C18_28 
REMARK   17  A    between atoms: S8_29  and  C5_32 
ROOT
ATOM      1  C17 MOL d          21.316  28.229  12.917  0.00  0.00     0.067 C 
ATOM      2  H18 MOL d          21.576  27.242  13.324  0.00  0.00     0.088 H 
ENDROOT
BRANCH   1   3
ATOM      3  C19 MOL d          22.595  29.069  12.875  0.00  0.00     0.044 C 
ATOM      4  H10 MOL d          22.545  29.709  11.981  0.00  0.00     0.077 H 
BRANCH   3   5
ATOM      5  N20 MOL d          22.660  29.915  14.056  0.00  0.00    -0.329 N 
ATOM      6  C21 MOL d          22.395  31.217  14.098  0.00  0.00     0.361 C 
ATOM      7  O22 MOL d          22.001  31.897  13.165  0.00  0.00    -0.239 OA
ATOM      8  H9  MOL d          22.928  29.477  14.914  0.00  0.00     0.165 HD
BRANCH   6   9
ATOM      9  O23 MOL d          22.644  31.869  15.371  0.00  0.00    -0.302 OA
BRANCH   9  10
ATOM     10  C22 MOL d          21.565  32.082  16.283  0.00  0.00     0.049 C 
ATOM     11  H7  MOL d          20.719  31.426  16.031  0.00  0.00     0.078 H 
ATOM     12  H8  MOL d          21.893  31.879  17.313  0.00  0.00     0.078 H 
BRANCH  10  13
ATOM     13  C24 MOL d          21.160  33.539  16.139  0.00  0.00     0.034 C 
ATOM     14  N29 MOL d          20.386  33.942  17.282  0.00  0.00    -0.354 N 
ATOM     15  C27 MOL d          21.003  34.803  18.073  0.00  0.00     0.218 C 
ATOM     16  H1  MOL d          19.464  33.601  17.463  0.00  0.00     0.162 HD
ATOM     17  O28 MOL d          20.557  35.266  19.097  0.00  0.00    -0.274 OA
ATOM     18  C26 MOL d          22.355  35.169  17.515  0.00  0.00     0.011 C 
ATOM     19  C25 MOL d          22.357  34.490  16.155  0.00  0.00    -0.036 C 
ATOM     20  H5  MOL d          23.164  34.782  18.152  0.00  0.00     0.047 H 
ATOM     21  H6  MOL d          22.459  36.260  17.413  0.00  0.00     0.047 H 
ATOM     22  H3  MOL d          22.256  35.240  15.356  0.00  0.00     0.036 H 
ATOM     23  H4  MOL d          23.292  33.927  16.014  0.00  0.00     0.036 H 
ATOM     24  H2  MOL d          20.585  33.664  15.210  0.00  0.00     0.075 H 
ENDBRANCH  10  13
ENDBRANCH   9  10
ENDBRANCH   6   9
ENDBRANCH   3   5
BRANCH   3  25
ATOM     25  C32 MOL d          23.886  28.249  12.796  0.00  0.00    -0.020 C 
ATOM     26  H11 MOL d          23.948  27.594  13.677  0.00  0.00     0.043 H 
ATOM     27  H12 MOL d          24.746  28.935  12.788  0.00  0.00     0.043 H 
BRANCH  25  28
ATOM     28  C38 MOL d          23.923  27.394  11.539  0.00  0.00    -0.056 A 
ATOM     29  C37 MOL d          24.015  26.012  11.652  0.00  0.00    -0.077 A 
ATOM     30  C36 MOL d          24.045  25.215  10.509  0.00  0.00    -0.082 A 
ATOM     31  H13 MOL d          24.064  25.552  12.633  0.00  0.00     0.084 H 
ATOM     32  C35 MOL d          23.976  25.796   9.249  0.00  0.00    -0.083 A 
ATOM     33  H14 MOL d          24.122  24.138  10.604  0.00  0.00     0.083 H 
ATOM     34  C34 MOL d          23.882  27.178   9.134  0.00  0.00    -0.082 A 
ATOM     35  H15 MOL d          23.997  25.175   8.360  0.00  0.00     0.083 H 
ATOM     36  C33 MOL d          23.848  27.969  10.279  0.00  0.00    -0.077 A 
ATOM     37  H16 MOL d          23.834  27.639   8.154  0.00  0.00     0.083 H 
ATOM     38  H17 MOL d          23.761  29.046  10.185  0.00  0.00     0.084 H 
ENDBRANCH  25  28
ENDBRANCH   3  25
ENDBRANCH   1   3
BRANCH   1  39
ATOM     39  O18 MOL d          20.795  28.062  11.595  0.00  0.00    -0.392 OA
ATOM     40  H19 MOL d          21.420  27.577  11.069  0.00  0.00     0.210 HD
ENDBRANCH   1  39
BRANCH   1  41
ATOM     41  C16 MOL d          20.212  28.834  13.796  0.00  0.00     0.019 C 
ATOM     42  H20 MOL d          20.436  29.893  13.994  0.00  0.00     0.061 H 
ATOM     43  H21 MOL d          20.157  28.288  14.749  0.00  0.00     0.061 H 
BRANCH  41  44
ATOM     44  N11 MOL d          18.913  28.723  13.081  0.00  0.00    -0.204 NA
BRANCH  44  45
ATOM     45  C12 MOL d          18.873  27.546  12.181  0.00  0.00    -0.004 C 
ATOM     46  H22 MOL d          19.902  27.209  11.989  0.00  0.00     0.058 H 
ATOM     47  H23 MOL d          18.401  27.841  11.232  0.00  0.00     0.058 H 
BRANCH  45  48
ATOM     48  C13 MOL d          18.075  26.383  12.796  0.00  0.00    -0.046 C 
ATOM     49  H24 MOL d          18.778  25.763  13.370  0.00  0.00     0.041 H 
BRANCH  48  50
ATOM     50  C14 MOL d          16.965  26.820  13.754  0.00  0.00    -0.072 C 
ATOM     51  H25 MOL d          17.238  27.779  14.217  0.00  0.00     0.028 H 
ATOM     52  H26 MOL d          16.836  26.058  14.536  0.00  0.00     0.028 H 
ATOM     53  H27 MOL d          16.024  26.937  13.196  0.00  0.00     0.028 H 
ENDBRANCH  48  50
BRANCH  48  54
ATOM     54  C15 MOL d          17.488  25.531  11.665  0.00  0.00    -0.064 C 
ATOM     55  H28 MOL d          16.447  25.284  11.920  0.00  0.00     0.033 H 
ATOM     56  H29 MOL d          18.076  24.604  11.587  0.00  0.00     0.033 H 
BRANCH  54  57
ATOM     57  C18 MOL d          17.499  26.221  10.310  0.00  0.00    -0.076 C 
ATOM     58  H30 MOL d          17.965  27.213  10.408  0.00  0.00     0.027 H 
ATOM     59  H31 MOL d          16.466  26.336   9.948  0.00  0.00     0.027 H 
ATOM     60  H32 MOL d          18.073  25.615   9.594  0.00  0.00     0.027 H 
ENDBRANCH  54  57
ENDBRANCH  48  54
ENDBRANCH  45  48
ENDBRANCH  44  45
BRANCH  44  61
ATOM     61  S8  MOL d          18.399  30.101  12.381  0.00  0.00     0.243 S 
ATOM     62  O10 MOL d          17.280  29.762  11.557  0.00  0.00    -0.206 OA
ATOM     63  O9  MOL d          19.536  30.621  11.659  0.00  0.00    -0.206 OA
BRANCH  61  64
ATOM     64  C5  MOL d          17.961  31.215  13.509  0.00  0.00     0.076 A 
ATOM     65  C6  MOL d          18.671  32.416  13.554  0.00  0.00    -0.059 A 
ATOM     66  C7  MOL d          18.321  33.433  14.441  0.00  0.00    -0.052 A 
ATOM     67  H33 MOL d          19.511  32.561  12.885  0.00  0.00     0.086 H 
ATOM     68  C2  MOL d          17.268  33.277  15.318  0.00  0.00     0.074 A 
ATOM     69  H34 MOL d          18.885  34.360  14.441  0.00  0.00     0.087 H 
ATOM     70  C3  MOL d          16.545  32.082  15.313  0.00  0.00     0.036 A 
ATOM     71  N1  MOL d          16.779  34.128  16.250  0.00  0.00    -0.253 NA
ATOM     72  C4  MOL d          16.896  31.064  14.410  0.00  0.00    -0.042 A 
ATOM     73  S1  MOL d          15.269  32.004  16.452  0.00  0.00    -0.081 SA
ATOM     74  H35 MOL d          16.329  30.140  14.410  0.00  0.00     0.088 H 
ATOM     75  C1  MOL d          15.739  33.609  16.922  0.00  0.00     0.041 A 
ATOM     76  H36 MOL d          15.224  34.158  17.710  0.00  0.00     0.126 H 
ENDBRANCH  61  64
ENDBRANCH  44  61
ENDBRANCH  41  44
ENDBRANCH   1  41
TORSDOF 17
ENDMDL
