MODEL 1
REMARK VINA RESULT:      -5.3      0.000      0.000
REMARK  13 active torsions:
REMARK  status: ('A' for Active; 'I' for Inactive)
REMARK    1  A    between atoms: C_1  and  CH3_3 
REMARK       I    between atoms: N_4  and  C_1 
REMARK    2  A    between atoms: CA_5  and  N_4 
REMARK    3  A    between atoms: C_6  and  CA_5 
REMARK    4  A    between atoms: CA_5  and  CB_8 
REMARK       I    between atoms: N_25  and  C_6 
REMARK    5  A    between atoms: CB_8  and  CG_9 
REMARK    6  A    between atoms: CZ_14  and  OH_15 
REMARK    7  A    between atoms: OH_15  and  P_16 
REMARK    8  A    between atoms: CA_22  and  C_23 
REMARK    9  A    between atoms: CA_22  and  N_25 
REMARK       I    between atoms: C_23  and  N_26 
REMARK   10  A    between atoms: N_26  and  CA_27 
REMARK   11  A    between atoms: CA_27  and  C_28 
REMARK   12  A    between atoms: CA_27  and  CB_30 
REMARK       I    between atoms: C_28  and  N_34 
REMARK   13  A    between atoms: CB_30  and  CG_31 
REMARK       I    between atoms: CG_31  and  ND2_33 
ROOT
ATOM      1  C   ACT d         -13.598  14.292   1.157  0.00  0.00     0.241 C 
ATOM      2  O   ACT d         -13.647  13.152   1.636  0.00  0.00    -0.271 OA
ATOM      3  N   ACT d         -13.803  15.417   1.893  0.00  0.00    -0.341 N 
ATOM      4  H16 ACT d         -13.822  16.327   1.477  0.00  0.00     0.163 HD
ENDROOT
BRANCH   1   5
ATOM      5  CA  ACT d         -13.328  14.526  -0.343  0.00  0.00     0.093 C 
ATOM      6  H5  ACT d         -13.878  15.410  -0.697  0.00  0.00     0.088 H 
BRANCH   5   7
ATOM      7  N   ACT d         -11.855  14.737  -0.579  0.00  0.00    -0.348 N 
ATOM      8  C   ACT d         -11.468  15.850  -1.138  0.00  0.00     0.214 C 
ATOM      9  O   ACT d         -12.212  16.794  -1.435  0.00  0.00    -0.274 OA
ATOM     10  H4  ACT d         -11.189  14.040  -0.313  0.00  0.00     0.163 HD
BRANCH   8  11
ATOM     11  CH3 ACT d          -9.992  15.942  -1.402  0.00  0.00    -0.003 C 
ATOM     12  H1  ACT d          -9.494  15.036  -1.024  0.00  0.00     0.040 H 
ATOM     13  H2  ACT d          -9.582  16.825  -0.891  0.00  0.00     0.040 H 
ATOM     14  H3  ACT d          -9.818  16.031  -2.484  0.00  0.00     0.040 H 
ENDBRANCH   8  11
ENDBRANCH   5   7
BRANCH   5  15
ATOM     15  CB  ACT d         -13.845  13.271  -1.053  0.00  0.00    -0.014 C 
ATOM     16  H6  ACT d         -14.590  13.547  -1.813  0.00  0.00     0.043 H 
ATOM     17  H7  ACT d         -14.300  12.586  -0.323  0.00  0.00     0.043 H 
BRANCH  15  18
ATOM     18  CG  ACT d         -12.619  12.592  -1.730  0.00  0.00    -0.056 A 
ATOM     19  CD1 ACT d         -12.328  12.920  -3.040  0.00  0.00    -0.074 A 
ATOM     20  CE1 ACT d         -11.291  12.328  -3.718  0.00  0.00    -0.050 A 
ATOM     21  H8  ACT d         -12.933  13.664  -3.545  0.00  0.00     0.084 H 
ATOM     22  CZ  ACT d         -10.543  11.311  -3.127  0.00  0.00     0.082 A 
ATOM     23  H10 ACT d         -11.052  12.654  -4.723  0.00  0.00     0.087 H 
ATOM     24  CE2 ACT d         -10.851  10.981  -1.805  0.00  0.00    -0.050 A 
ATOM     25  CD2 ACT d         -11.873  11.611  -1.070  0.00  0.00    -0.074 A 
ATOM     26  H11 ACT d         -10.274  10.201  -1.321  0.00  0.00     0.087 H 
ATOM     27  H9  ACT d         -12.073  11.348  -0.038  0.00  0.00     0.084 H 
BRANCH  22  28
ATOM     28  OH  ACT d          -9.545  10.704  -3.900  0.00  0.00    -0.240 OA
BRANCH  28  29
ATOM     29  P   ACT d          -9.721   9.280  -4.682  0.00  0.00     0.427 P 
ATOM     30  O1P ACT d         -10.057   9.810  -6.107  0.00  0.00    -0.617 OA
ATOM     31  O2P ACT d          -8.387   8.614  -4.656  0.00  0.00    -0.617 OA
ATOM     32  O3P ACT d         -10.887   8.639  -4.126  0.00  0.00    -0.617 OA
ENDBRANCH  28  29
ENDBRANCH  22  28
ENDBRANCH  15  18
ENDBRANCH   5  15
ENDBRANCH   1   5
BRANCH   3  33
ATOM     33  CA  ACT d         -13.989  15.221   3.296  0.00  0.00     0.114 A 
ATOM     34  CB  ACT d         -14.843  16.198   4.029  0.00  0.00    -0.030 A 
ATOM     35  CG  ACT d         -15.375  14.812   3.765  0.00  0.00    -0.030 A 
ATOM     36  H12 ACT d         -14.578  16.496   5.055  0.00  0.00     0.037 H 
ATOM     37  H13 ACT d         -15.271  17.060   3.496  0.00  0.00     0.037 H 
ATOM     38  H14 ACT d         -16.183  14.661   3.034  0.00  0.00     0.037 H 
ATOM     39  H15 ACT d         -15.491  14.097   4.592  0.00  0.00     0.037 H 
BRANCH  33  40
ATOM     40  C   ACT d         -12.894  14.451   4.006  0.00  0.00     0.246 C 
ATOM     41  O   ACT d         -13.186  13.496   4.759  0.00  0.00    -0.271 OA
ATOM     42  N   ACT d         -11.625  14.841   3.808  0.00  0.00    -0.345 N 
ATOM     43  H17 ACT d         -11.443  15.578   3.158  0.00  0.00     0.163 HD
BRANCH  42  44
ATOM     44  CA  ACT d         -10.513  14.235   4.498  0.00  0.00     0.097 C 
ATOM     45  H18 ACT d         -10.876  13.809   5.445  0.00  0.00     0.088 H 
BRANCH  44  46
ATOM     46  C   ACT d          -9.457  15.322   4.833  0.00  0.00     0.238 C 
ATOM     47  O   ACT d          -9.577  16.464   4.348  0.00  0.00    -0.271 OA
ATOM     48  N   ACT d          -8.407  14.987   5.599  0.00  0.00    -0.368 N 
ATOM     49  H23 ACT d          -7.715  15.672   5.827  0.00  0.00     0.159 HD
ATOM     50  H24 ACT d          -8.317  14.052   5.942  0.00  0.00     0.159 HD
ENDBRANCH  44  46
BRANCH  44  51
ATOM     51  CB  ACT d          -9.929  13.086   3.652  0.00  0.00     0.036 C 
ATOM     52  H19 ACT d          -9.069  13.471   3.084  0.00  0.00     0.051 H 
ATOM     53  H20 ACT d         -10.703  12.736   2.954  0.00  0.00     0.051 H 
BRANCH  51  54
ATOM     54  CG  ACT d          -9.463  11.900   4.499  0.00  0.00     0.217 C 
ATOM     55  OD1 ACT d         -10.258  11.354   5.254  0.00  0.00    -0.274 OA
ATOM     56  ND2 ACT d          -8.178  11.519   4.335  0.00  0.00    -0.370 N 
ATOM     57  H21 ACT d          -7.812  10.751   4.860  0.00  0.00     0.159 HD
ATOM     58  H22 ACT d          -7.590  12.007   3.688  0.00  0.00     0.159 HD
ENDBRANCH  51  54
ENDBRANCH  44  51
ENDBRANCH  42  44
ENDBRANCH  33  40
ENDBRANCH   3  33
TORSDOF 13
ENDMDL
MODEL 2
REMARK VINA RESULT:      -5.2      3.309      7.483
REMARK  13 active torsions:
REMARK  status: ('A' for Active; 'I' for Inactive)
REMARK    1  A    between atoms: C_1  and  CH3_3 
REMARK       I    between atoms: N_4  and  C_1 
REMARK    2  A    between atoms: CA_5  and  N_4 
REMARK    3  A    between atoms: C_6  and  CA_5 
REMARK    4  A    between atoms: CA_5  and  CB_8 
REMARK       I    between atoms: N_25  and  C_6 
REMARK    5  A    between atoms: CB_8  and  CG_9 
REMARK    6  A    between atoms: CZ_14  and  OH_15 
REMARK    7  A    between atoms: OH_15  and  P_16 
REMARK    8  A    between atoms: CA_22  and  C_23 
REMARK    9  A    between atoms: CA_22  and  N_25 
REMARK       I    between atoms: C_23  and  N_26 
REMARK   10  A    between atoms: N_26  and  CA_27 
REMARK   11  A    between atoms: CA_27  and  C_28 
REMARK   12  A    between atoms: CA_27  and  CB_30 
REMARK       I    between atoms: C_28  and  N_34 
REMARK   13  A    between atoms: CB_30  and  CG_31 
REMARK       I    between atoms: CG_31  and  ND2_33 
ROOT
ATOM      1  C   ACT d         -13.604  14.726  -2.291  0.00  0.00     0.241 C 
ATOM      2  O   ACT d         -14.350  13.800  -2.631  0.00  0.00    -0.271 OA
ATOM      3  N   ACT d         -12.565  15.163  -3.052  0.00  0.00    -0.341 N 
ATOM      4  H16 ACT d         -11.933  15.870  -2.733  0.00  0.00     0.163 HD
ENDROOT
BRANCH   1   5
ATOM      5  CA  ACT d         -13.780  15.449  -0.939  0.00  0.00     0.093 C 
ATOM      6  H5  ACT d         -14.639  16.135  -0.983  0.00  0.00     0.088 H 
BRANCH   5   7
ATOM      7  N   ACT d         -14.009  14.445   0.160  0.00  0.00    -0.348 N 
ATOM      8  C   ACT d         -15.016  14.626   0.968  0.00  0.00     0.214 C 
ATOM      9  O   ACT d         -15.856  15.530   0.867  0.00  0.00    -0.274 OA
ATOM     10  H4  ACT d         -13.403  13.657   0.268  0.00  0.00     0.163 HD
BRANCH   8  11
ATOM     11  CH3 ACT d         -15.123  13.619   2.078  0.00  0.00    -0.003 C 
ATOM     12  H1  ACT d         -14.929  12.612   1.679  0.00  0.00     0.040 H 
ATOM     13  H2  ACT d         -16.134  13.653   2.509  0.00  0.00     0.040 H 
ATOM     14  H3  ACT d         -14.384  13.854   2.858  0.00  0.00     0.040 H 
ENDBRANCH   8  11
ENDBRANCH   5   7
BRANCH   5  15
ATOM     15  CB  ACT d         -12.488  16.242  -0.727  0.00  0.00    -0.014 C 
ATOM     16  H6  ACT d         -12.723  17.289  -0.484  0.00  0.00     0.043 H 
ATOM     17  H7  ACT d         -11.869  16.206  -1.636  0.00  0.00     0.043 H 
BRANCH  15  18
ATOM     18  CG  ACT d         -11.733  15.576   0.459  0.00  0.00    -0.056 A 
ATOM     19  CD1 ACT d         -11.776  16.193   1.694  0.00  0.00    -0.074 A 
ATOM     20  CE1 ACT d         -11.097  15.689   2.776  0.00  0.00    -0.050 A 
ATOM     21  H8  ACT d         -12.362  17.097   1.812  0.00  0.00     0.084 H 
ATOM     22  CZ  ACT d         -10.271  14.575   2.642  0.00  0.00     0.082 A 
ATOM     23  H10 ACT d         -11.204  16.164   3.744  0.00  0.00     0.087 H 
ATOM     24  CE2 ACT d         -10.227  13.963   1.387  0.00  0.00    -0.050 A 
ATOM     25  CD2 ACT d         -10.957  14.428   0.276  0.00  0.00    -0.074 A 
ATOM     26  H11 ACT d          -9.600  13.088   1.262  0.00  0.00     0.087 H 
ATOM     27  H9  ACT d         -10.919  13.917  -0.680  0.00  0.00     0.084 H 
BRANCH  22  28
ATOM     28  OH  ACT d          -9.554  14.157   3.770  0.00  0.00    -0.240 OA
BRANCH  28  29
ATOM     29  P   ACT d          -9.891  12.810   4.632  0.00  0.00     0.427 P 
ATOM     30  O1P ACT d         -11.441  12.935   4.707  0.00  0.00    -0.617 OA
ATOM     31  O2P ACT d          -9.485  11.652   3.785  0.00  0.00    -0.617 OA
ATOM     32  O3P ACT d          -9.334  13.005   5.948  0.00  0.00    -0.617 OA
ENDBRANCH  28  29
ENDBRANCH  22  28
ENDBRANCH  15  18
ENDBRANCH   5  15
ENDBRANCH   1   5
BRANCH   3  33
ATOM     33  CA  ACT d         -12.429  14.549  -4.335  0.00  0.00     0.114 A 
ATOM     34  CB  ACT d         -13.336  15.006  -5.426  0.00  0.00    -0.030 A 
ATOM     35  CG  ACT d         -11.883  15.408  -5.464  0.00  0.00    -0.030 A 
ATOM     36  H12 ACT d         -13.723  14.281  -6.157  0.00  0.00     0.037 H 
ATOM     37  H13 ACT d         -14.108  15.762  -5.215  0.00  0.00     0.037 H 
ATOM     38  H14 ACT d         -11.594  16.452  -5.273  0.00  0.00     0.037 H 
ATOM     39  H15 ACT d         -11.208  14.972  -6.215  0.00  0.00     0.037 H 
BRANCH  33  40
ATOM     40  C   ACT d         -11.839  13.154  -4.342  0.00  0.00     0.246 C 
ATOM     41  O   ACT d         -11.921  12.441  -5.366  0.00  0.00    -0.271 OA
ATOM     42  N   ACT d         -11.250  12.718  -3.216  0.00  0.00    -0.345 N 
ATOM     43  H17 ACT d         -11.167  13.345  -2.442  0.00  0.00     0.163 HD
BRANCH  42  44
ATOM     44  CA  ACT d         -10.730  11.379  -3.083  0.00  0.00     0.097 C 
ATOM     45  H18 ACT d         -11.122  10.767  -3.908  0.00  0.00     0.088 H 
BRANCH  44  46
ATOM     46  C   ACT d         -11.226  10.762  -1.748  0.00  0.00     0.238 C 
ATOM     47  O   ACT d         -10.880   9.604  -1.442  0.00  0.00    -0.271 OA
ATOM     48  N   ACT d         -12.060  11.477  -0.977  0.00  0.00    -0.368 N 
ATOM     49  H23 ACT d         -12.391  11.097  -0.113  0.00  0.00     0.159 HD
ATOM     50  H24 ACT d         -12.351  12.388  -1.267  0.00  0.00     0.159 HD
ENDBRANCH  44  46
BRANCH  44  51
ATOM     51  CB  ACT d          -9.193  11.396  -3.190  0.00  0.00     0.036 C 
ATOM     52  H19 ACT d          -8.770  11.433  -2.175  0.00  0.00     0.051 H 
ATOM     53  H20 ACT d          -8.890  12.295  -3.747  0.00  0.00     0.051 H 
BRANCH  51  54
ATOM     54  CG  ACT d          -8.632  10.165  -3.907  0.00  0.00     0.217 C 
ATOM     55  OD1 ACT d          -8.021   9.323  -3.261  0.00  0.00    -0.274 OA
ATOM     56  ND2 ACT d          -8.874  10.087  -5.233  0.00  0.00    -0.370 N 
ATOM     57  H21 ACT d          -8.534   9.308  -5.758  0.00  0.00     0.159 HD
ATOM     58  H22 ACT d          -9.393  10.810  -5.690  0.00  0.00     0.159 HD
ENDBRANCH  51  54
ENDBRANCH  44  51
ENDBRANCH  42  44
ENDBRANCH  33  40
ENDBRANCH   3  33
TORSDOF 13
ENDMDL
MODEL 3
REMARK VINA RESULT:      -5.1      3.510      7.720
REMARK  13 active torsions:
REMARK  status: ('A' for Active; 'I' for Inactive)
REMARK    1  A    between atoms: C_1  and  CH3_3 
REMARK       I    between atoms: N_4  and  C_1 
REMARK    2  A    between atoms: CA_5  and  N_4 
REMARK    3  A    between atoms: C_6  and  CA_5 
REMARK    4  A    between atoms: CA_5  and  CB_8 
REMARK       I    between atoms: N_25  and  C_6 
REMARK    5  A    between atoms: CB_8  and  CG_9 
REMARK    6  A    between atoms: CZ_14  and  OH_15 
REMARK    7  A    between atoms: OH_15  and  P_16 
REMARK    8  A    between atoms: CA_22  and  C_23 
REMARK    9  A    between atoms: CA_22  and  N_25 
REMARK       I    between atoms: C_23  and  N_26 
REMARK   10  A    between atoms: N_26  and  CA_27 
REMARK   11  A    between atoms: CA_27  and  C_28 
REMARK   12  A    between atoms: CA_27  and  CB_30 
REMARK       I    between atoms: C_28  and  N_34 
REMARK   13  A    between atoms: CB_30  and  CG_31 
REMARK       I    between atoms: CG_31  and  ND2_33 
ROOT
ATOM      1  C   ACT d         -12.687  14.254  -3.285  0.00  0.00     0.241 C 
ATOM      2  O   ACT d         -13.370  13.347  -3.776  0.00  0.00    -0.271 OA
ATOM      3  N   ACT d         -11.424  14.543  -3.699  0.00  0.00    -0.341 N 
ATOM      4  H16 ACT d         -10.864  15.238  -3.248  0.00  0.00     0.163 HD
ENDROOT
BRANCH   1   5
ATOM      5  CA  ACT d         -13.214  15.122  -2.123  0.00  0.00     0.093 C 
ATOM      6  H5  ACT d         -14.036  15.765  -2.471  0.00  0.00     0.088 H 
BRANCH   5   7
ATOM      7  N   ACT d         -13.715  14.246  -1.005  0.00  0.00    -0.348 N 
ATOM      8  C   ACT d         -14.915  14.456  -0.540  0.00  0.00     0.214 C 
ATOM      9  O   ACT d         -15.718  15.284  -0.991  0.00  0.00    -0.274 OA
ATOM     10  H4  ACT d         -13.141  13.520  -0.628  0.00  0.00     0.163 HD
BRANCH   8  11
ATOM     11  CH3 ACT d         -15.301  13.585   0.622  0.00  0.00    -0.003 C 
ATOM     12  H1  ACT d         -16.302  13.873   0.978  0.00  0.00     0.040 H 
ATOM     13  H2  ACT d         -14.572  13.714   1.435  0.00  0.00     0.040 H 
ATOM     14  H3  ACT d         -15.313  12.533   0.303  0.00  0.00     0.040 H 
ENDBRANCH   8  11
ENDBRANCH   5   7
BRANCH   5  15
ATOM     15  CB  ACT d         -12.027  15.984  -1.684  0.00  0.00    -0.014 C 
ATOM     16  H6  ACT d         -12.336  17.036  -1.594  0.00  0.00     0.043 H 
ATOM     17  H7  ACT d         -11.211  15.904  -2.417  0.00  0.00     0.043 H 
BRANCH  15  18
ATOM     18  CG  ACT d         -11.558  15.445  -0.302  0.00  0.00    -0.056 A 
ATOM     19  CD1 ACT d         -11.793  16.219   0.818  0.00  0.00    -0.074 A 
ATOM     20  CE1 ACT d         -11.367  15.831   2.065  0.00  0.00    -0.050 A 
ATOM     21  H8  ACT d         -12.326  17.156   0.709  0.00  0.00     0.084 H 
ATOM     22  CZ  ACT d         -10.609  14.673   2.229  0.00  0.00     0.082 A 
ATOM     23  H10 ACT d         -11.623  16.432   2.929  0.00  0.00     0.087 H 
ATOM     24  CE2 ACT d         -10.371  13.901   1.089  0.00  0.00    -0.050 A 
ATOM     25  CD2 ACT d         -10.843  14.249  -0.191  0.00  0.00    -0.074 A 
ATOM     26  H11 ACT d          -9.794  12.990   1.195  0.00  0.00     0.087 H 
ATOM     27  H9  ACT d         -10.660  13.617  -1.053  0.00  0.00     0.084 H 
BRANCH  22  28
ATOM     28  OH  ACT d         -10.150  14.374   3.518  0.00  0.00    -0.240 OA
BRANCH  28  29
ATOM     29  P   ACT d         -10.443  12.969   4.301  0.00  0.00     0.427 P 
ATOM     30  O1P ACT d          -9.607  13.216   5.591  0.00  0.00    -0.617 OA
ATOM     31  O2P ACT d         -11.904  12.948   4.602  0.00  0.00    -0.617 OA
ATOM     32  O3P ACT d          -9.824  11.922   3.526  0.00  0.00    -0.617 OA
ENDBRANCH  28  29
ENDBRANCH  22  28
ENDBRANCH  15  18
ENDBRANCH   5  15
ENDBRANCH   1   5
BRANCH   3  33
ATOM     33  CA  ACT d         -10.947  13.792  -4.818  0.00  0.00     0.114 A 
ATOM     34  CB  ACT d         -11.351  14.240  -6.181  0.00  0.00    -0.030 A 
ATOM     35  CG  ACT d          -9.931  14.466  -5.726  0.00  0.00    -0.030 A 
ATOM     36  H12 ACT d         -11.564  13.494  -6.961  0.00  0.00     0.037 H 
ATOM     37  H13 ACT d         -12.032  15.097  -6.296  0.00  0.00     0.037 H 
ATOM     38  H14 ACT d          -9.579  15.483  -5.502  0.00  0.00     0.037 H 
ATOM     39  H15 ACT d          -9.110  13.881  -6.166  0.00  0.00     0.037 H 
BRANCH  33  40
ATOM     40  C   ACT d         -10.596  12.345  -4.541  0.00  0.00     0.246 C 
ATOM     41  O   ACT d         -11.061  11.436  -5.264  0.00  0.00    -0.271 OA
ATOM     42  N   ACT d          -9.794  12.084  -3.496  0.00  0.00    -0.345 N 
ATOM     43  H17 ACT d          -9.411  12.850  -2.980  0.00  0.00     0.163 HD
BRANCH  42  44
ATOM     44  CA  ACT d          -9.465  10.740  -3.090  0.00  0.00     0.097 C 
ATOM     45  H18 ACT d          -8.768  10.790  -2.240  0.00  0.00     0.088 H 
BRANCH  44  46
ATOM     46  C   ACT d          -8.749  10.007  -4.256  0.00  0.00     0.238 C 
ATOM     47  O   ACT d          -8.969   8.794  -4.446  0.00  0.00    -0.271 OA
ATOM     48  N   ACT d          -7.867  10.690  -5.003  0.00  0.00    -0.368 N 
ATOM     49  H23 ACT d          -7.395  10.236  -5.759  0.00  0.00     0.159 HD
ATOM     50  H24 ACT d          -7.682  11.652  -4.803  0.00  0.00     0.159 HD
ENDBRANCH  44  46
BRANCH  44  51
ATOM     51  CB  ACT d         -10.735  10.002  -2.622  0.00  0.00     0.036 C 
ATOM     52  H19 ACT d         -10.449   9.000  -2.270  0.00  0.00     0.051 H 
ATOM     53  H20 ACT d         -11.422   9.910  -3.476  0.00  0.00     0.051 H 
BRANCH  51  54
ATOM     54  CG  ACT d         -11.462  10.729  -1.488  0.00  0.00     0.217 C 
ATOM     55  OD1 ACT d         -10.876  10.924  -0.430  0.00  0.00    -0.274 OA
ATOM     56  ND2 ACT d         -12.724  11.129  -1.750  0.00  0.00    -0.370 N 
ATOM     57  H21 ACT d         -13.253  11.608  -1.050  0.00  0.00     0.159 HD
ATOM     58  H22 ACT d         -13.132  10.945  -2.645  0.00  0.00     0.159 HD
ENDBRANCH  51  54
ENDBRANCH  44  51
ENDBRANCH  42  44
ENDBRANCH  33  40
ENDBRANCH   3  33
TORSDOF 13
ENDMDL
MODEL 4
REMARK VINA RESULT:      -4.8      3.945      8.044
REMARK  13 active torsions:
REMARK  status: ('A' for Active; 'I' for Inactive)
REMARK    1  A    between atoms: C_1  and  CH3_3 
REMARK       I    between atoms: N_4  and  C_1 
REMARK    2  A    between atoms: CA_5  and  N_4 
REMARK    3  A    between atoms: C_6  and  CA_5 
REMARK    4  A    between atoms: CA_5  and  CB_8 
REMARK       I    between atoms: N_25  and  C_6 
REMARK    5  A    between atoms: CB_8  and  CG_9 
REMARK    6  A    between atoms: CZ_14  and  OH_15 
REMARK    7  A    between atoms: OH_15  and  P_16 
REMARK    8  A    between atoms: CA_22  and  C_23 
REMARK    9  A    between atoms: CA_22  and  N_25 
REMARK       I    between atoms: C_23  and  N_26 
REMARK   10  A    between atoms: N_26  and  CA_27 
REMARK   11  A    between atoms: CA_27  and  C_28 
REMARK   12  A    between atoms: CA_27  and  CB_30 
REMARK       I    between atoms: C_28  and  N_34 
REMARK   13  A    between atoms: CB_30  and  CG_31 
REMARK       I    between atoms: CG_31  and  ND2_33 
ROOT
ATOM      1  C   ACT d         -12.797  15.064  -1.526  0.00  0.00     0.241 C 
ATOM      2  O   ACT d         -11.916  15.931  -1.476  0.00  0.00    -0.271 OA
ATOM      3  N   ACT d         -12.566  13.753  -1.249  0.00  0.00    -0.341 N 
ATOM      4  H16 ACT d         -13.275  13.055  -1.356  0.00  0.00     0.163 HD
ENDROOT
BRANCH   1   5
ATOM      5  CA  ACT d         -14.242  15.406  -1.942  0.00  0.00     0.093 C 
ATOM      6  H5  ACT d         -14.563  16.345  -1.469  0.00  0.00     0.088 H 
BRANCH   5   7
ATOM      7  N   ACT d         -14.330  15.556  -3.439  0.00  0.00    -0.348 N 
ATOM      8  C   ACT d         -14.056  14.522  -4.185  0.00  0.00     0.214 C 
ATOM      9  O   ACT d         -13.790  13.389  -3.762  0.00  0.00    -0.274 OA
ATOM     10  H4  ACT d         -14.593  16.428  -3.851  0.00  0.00     0.163 HD
BRANCH   8  11
ATOM     11  CH3 ACT d         -14.096  14.785  -5.664  0.00  0.00    -0.003 C 
ATOM     12  H1  ACT d         -13.084  14.684  -6.082  0.00  0.00     0.040 H 
ATOM     13  H2  ACT d         -14.469  15.803  -5.846  0.00  0.00     0.040 H 
ATOM     14  H3  ACT d         -14.766  14.058  -6.147  0.00  0.00     0.040 H 
ENDBRANCH   8  11
ENDBRANCH   5   7
BRANCH   5  15
ATOM     15  CB  ACT d         -15.101  14.244  -1.434  0.00  0.00    -0.014 C 
ATOM     16  H6  ACT d         -14.559  13.294  -1.551  0.00  0.00     0.043 H 
ATOM     17  H7  ACT d         -16.045  14.199  -1.996  0.00  0.00     0.043 H 
BRANCH  15  18
ATOM     18  CG  ACT d         -15.387  14.513   0.072  0.00  0.00    -0.056 A 
ATOM     19  CD1 ACT d         -15.488  15.824   0.496  0.00  0.00    -0.074 A 
ATOM     20  CE1 ACT d         -15.692  16.140   1.817  0.00  0.00    -0.050 A 
ATOM     21  H8  ACT d         -15.403  16.622  -0.232  0.00  0.00     0.084 H 
ATOM     22  CZ  ACT d         -15.727  15.143   2.790  0.00  0.00     0.082 A 
ATOM     23  H10 ACT d         -15.829  17.176   2.105  0.00  0.00     0.087 H 
ATOM     24  CE2 ACT d         -15.616  13.822   2.351  0.00  0.00    -0.050 A 
ATOM     25  CD2 ACT d         -15.460  13.469   0.997  0.00  0.00    -0.074 A 
ATOM     26  H11 ACT d         -15.651  13.029   3.090  0.00  0.00     0.087 H 
ATOM     27  H9  ACT d         -15.399  12.432   0.686  0.00  0.00     0.084 H 
BRANCH  22  28
ATOM     28  OH  ACT d         -15.870  15.543   4.125  0.00  0.00    -0.240 OA
BRANCH  28  29
ATOM     29  P   ACT d         -14.886  15.071   5.341  0.00  0.00     0.427 P 
ATOM     30  O1P ACT d         -15.622  13.770   5.776  0.00  0.00    -0.617 OA
ATOM     31  O2P ACT d         -13.565  14.761   4.722  0.00  0.00    -0.617 OA
ATOM     32  O3P ACT d         -15.009  16.058   6.385  0.00  0.00    -0.617 OA
ENDBRANCH  28  29
ENDBRANCH  22  28
ENDBRANCH  15  18
ENDBRANCH   5  15
ENDBRANCH   1   5
BRANCH   3  33
ATOM     33  CA  ACT d         -11.249  13.431  -0.798  0.00  0.00     0.114 A 
ATOM     34  CB  ACT d         -10.899  13.753   0.615  0.00  0.00    -0.030 A 
ATOM     35  CG  ACT d         -11.116  12.313   0.223  0.00  0.00    -0.030 A 
ATOM     36  H12 ACT d          -9.887  14.107   0.862  0.00  0.00     0.037 H 
ATOM     37  H13 ACT d         -11.632  14.262   1.259  0.00  0.00     0.037 H 
ATOM     38  H14 ACT d         -12.009  11.775   0.572  0.00  0.00     0.037 H 
ATOM     39  H15 ACT d         -10.265  11.619   0.175  0.00  0.00     0.037 H 
BRANCH  33  40
ATOM     40  C   ACT d         -10.182  13.356  -1.871  0.00  0.00     0.246 C 
ATOM     41  O   ACT d          -9.182  14.105  -1.816  0.00  0.00    -0.271 OA
ATOM     42  N   ACT d         -10.363  12.480  -2.872  0.00  0.00    -0.345 N 
ATOM     43  H17 ACT d         -11.155  11.871  -2.842  0.00  0.00     0.163 HD
BRANCH  42  44
ATOM     44  CA  ACT d          -9.455  12.383  -3.989  0.00  0.00     0.097 C 
ATOM     45  H18 ACT d          -9.017  13.375  -4.172  0.00  0.00     0.088 H 
BRANCH  44  46
ATOM     46  C   ACT d         -10.241  11.962  -5.259  0.00  0.00     0.238 C 
ATOM     47  O   ACT d          -9.649  11.352  -6.172  0.00  0.00    -0.271 OA
ATOM     48  N   ACT d         -11.531  12.313  -5.366  0.00  0.00    -0.368 N 
ATOM     49  H23 ACT d         -12.055  12.052  -6.177  0.00  0.00     0.159 HD
ATOM     50  H24 ACT d         -11.969  12.836  -4.635  0.00  0.00     0.159 HD
ENDBRANCH  44  46
BRANCH  44  51
ATOM     51  CB  ACT d          -8.308  11.410  -3.655  0.00  0.00     0.036 C 
ATOM     52  H19 ACT d          -7.869  11.702  -2.690  0.00  0.00     0.051 H 
ATOM     53  H20 ACT d          -7.544  11.485  -4.444  0.00  0.00     0.051 H 
BRANCH  51  54
ATOM     54  CG  ACT d          -8.770   9.954  -3.560  0.00  0.00     0.217 C 
ATOM     55  OD1 ACT d          -9.431   9.598  -2.592  0.00  0.00    -0.274 OA
ATOM     56  ND2 ACT d          -8.420   9.151  -4.588  0.00  0.00    -0.370 N 
ATOM     57  H21 ACT d          -8.691   8.188  -4.584  0.00  0.00     0.159 HD
ATOM     58  H22 ACT d          -7.889   9.518  -5.352  0.00  0.00     0.159 HD
ENDBRANCH  51  54
ENDBRANCH  44  51
ENDBRANCH  42  44
ENDBRANCH  33  40
ENDBRANCH   3  33
TORSDOF 13
ENDMDL
MODEL 5
REMARK VINA RESULT:      -4.8      3.514      7.608
REMARK  13 active torsions:
REMARK  status: ('A' for Active; 'I' for Inactive)
REMARK    1  A    between atoms: C_1  and  CH3_3 
REMARK       I    between atoms: N_4  and  C_1 
REMARK    2  A    between atoms: CA_5  and  N_4 
REMARK    3  A    between atoms: C_6  and  CA_5 
REMARK    4  A    between atoms: CA_5  and  CB_8 
REMARK       I    between atoms: N_25  and  C_6 
REMARK    5  A    between atoms: CB_8  and  CG_9 
REMARK    6  A    between atoms: CZ_14  and  OH_15 
REMARK    7  A    between atoms: OH_15  and  P_16 
REMARK    8  A    between atoms: CA_22  and  C_23 
REMARK    9  A    between atoms: CA_22  and  N_25 
REMARK       I    between atoms: C_23  and  N_26 
REMARK   10  A    between atoms: N_26  and  CA_27 
REMARK   11  A    between atoms: CA_27  and  C_28 
REMARK   12  A    between atoms: CA_27  and  CB_30 
REMARK       I    between atoms: C_28  and  N_34 
REMARK   13  A    between atoms: CB_30  and  CG_31 
REMARK       I    between atoms: CG_31  and  ND2_33 
ROOT
ATOM      1  C   ACT d         -12.169  14.435  -1.281  0.00  0.00     0.241 C 
ATOM      2  O   ACT d         -10.989  14.733  -1.056  0.00  0.00    -0.271 OA
ATOM      3  N   ACT d         -12.563  13.192  -1.666  0.00  0.00    -0.341 N 
ATOM      4  H16 ACT d         -13.512  12.986  -1.904  0.00  0.00     0.163 HD
ENDROOT
BRANCH   1   5
ATOM      5  CA  ACT d         -13.298  15.480  -1.169  0.00  0.00     0.093 C 
ATOM      6  H5  ACT d         -12.894  16.444  -0.827  0.00  0.00     0.088 H 
BRANCH   5   7
ATOM      7  N   ACT d         -13.962  15.673  -2.507  0.00  0.00    -0.348 N 
ATOM      8  C   ACT d         -13.328  16.347  -3.425  0.00  0.00     0.214 C 
ATOM      9  O   ACT d         -12.178  16.794  -3.313  0.00  0.00    -0.274 OA
ATOM     10  H4  ACT d         -14.869  15.292  -2.687  0.00  0.00     0.163 HD
BRANCH   8  11
ATOM     11  CH3 ACT d         -14.097  16.554  -4.699  0.00  0.00    -0.003 C 
ATOM     12  H1  ACT d         -13.460  17.071  -5.432  0.00  0.00     0.040 H 
ATOM     13  H2  ACT d         -14.989  17.162  -4.495  0.00  0.00     0.040 H 
ATOM     14  H3  ACT d         -14.404  15.578  -5.104  0.00  0.00     0.040 H 
ENDBRANCH   8  11
ENDBRANCH   5   7
BRANCH   5  15
ATOM     15  CB  ACT d         -14.270  14.922  -0.125  0.00  0.00    -0.014 C 
ATOM     16  H6  ACT d         -14.660  13.948  -0.454  0.00  0.00     0.043 H 
ATOM     17  H7  ACT d         -15.107  15.621   0.023  0.00  0.00     0.043 H 
BRANCH  15  18
ATOM     18  CG  ACT d         -13.471  14.757   1.200  0.00  0.00    -0.056 A 
ATOM     19  CD1 ACT d         -12.665  15.799   1.614  0.00  0.00    -0.074 A 
ATOM     20  CE1 ACT d         -11.895  15.709   2.748  0.00  0.00    -0.050 A 
ATOM     21  H8  ACT d         -12.641  16.712   1.030  0.00  0.00     0.084 H 
ATOM     22  CZ  ACT d         -11.841  14.524   3.479  0.00  0.00     0.082 A 
ATOM     23  H10 ACT d         -11.323  16.569   3.077  0.00  0.00     0.087 H 
ATOM     24  CE2 ACT d         -12.654  13.473   3.047  0.00  0.00    -0.050 A 
ATOM     25  CD2 ACT d         -13.493  13.559   1.920  0.00  0.00    -0.074 A 
ATOM     26  H11 ACT d         -12.637  12.545   3.607  0.00  0.00     0.087 H 
ATOM     27  H9  ACT d         -14.129  12.732   1.623  0.00  0.00     0.084 H 
BRANCH  22  28
ATOM     28  OH  ACT d         -10.982  14.480   4.584  0.00  0.00    -0.240 OA
BRANCH  28  29
ATOM     29  P   ACT d          -9.777  13.392   4.775  0.00  0.00     0.427 P 
ATOM     30  O1P ACT d          -9.532  13.018   3.284  0.00  0.00    -0.617 OA
ATOM     31  O2P ACT d          -8.617  14.140   5.341  0.00  0.00    -0.617 OA
ATOM     32  O3P ACT d         -10.343  12.258   5.464  0.00  0.00    -0.617 OA
ENDBRANCH  28  29
ENDBRANCH  22  28
ENDBRANCH  15  18
ENDBRANCH   5  15
ENDBRANCH   1   5
BRANCH   3  33
ATOM     33  CA  ACT d         -11.537  12.198  -1.709  0.00  0.00     0.114 A 
ATOM     34  CB  ACT d         -10.855  11.843  -0.432  0.00  0.00    -0.030 A 
ATOM     35  CG  ACT d         -11.830  10.865  -1.039  0.00  0.00    -0.030 A 
ATOM     36  H12 ACT d          -9.780  11.614  -0.431  0.00  0.00     0.037 H 
ATOM     37  H13 ACT d         -11.118  12.374   0.495  0.00  0.00     0.037 H 
ATOM     38  H14 ACT d         -12.806  10.690  -0.562  0.00  0.00     0.037 H 
ATOM     39  H15 ACT d         -11.468   9.929  -1.487  0.00  0.00     0.037 H 
BRANCH  33  40
ATOM     40  C   ACT d         -10.840  12.026  -3.043  0.00  0.00     0.246 C 
ATOM     41  O   ACT d         -11.452  12.264  -4.108  0.00  0.00    -0.271 OA
ATOM     42  N   ACT d          -9.566  11.599  -3.033  0.00  0.00    -0.345 N 
ATOM     43  H17 ACT d          -9.109  11.471  -2.154  0.00  0.00     0.163 HD
BRANCH  42  44
ATOM     44  CA  ACT d          -8.834  11.320  -4.244  0.00  0.00     0.097 C 
ATOM     45  H18 ACT d          -9.494  11.506  -5.104  0.00  0.00     0.088 H 
BRANCH  44  46
ATOM     46  C   ACT d          -8.422   9.824  -4.267  0.00  0.00     0.238 C 
ATOM     47  O   ACT d          -8.594   9.157  -5.306  0.00  0.00    -0.271 OA
ATOM     48  N   ACT d          -7.938   9.271  -3.144  0.00  0.00    -0.368 N 
ATOM     49  H23 ACT d          -7.667   8.308  -3.138  0.00  0.00     0.159 HD
ATOM     50  H24 ACT d          -7.848   9.821  -2.315  0.00  0.00     0.159 HD
ENDBRANCH  44  46
BRANCH  44  51
ATOM     51  CB  ACT d          -7.623  12.267  -4.359  0.00  0.00     0.036 C 
ATOM     52  H19 ACT d          -7.214  12.191  -5.378  0.00  0.00     0.051 H 
ATOM     53  H20 ACT d          -6.860  11.951  -3.632  0.00  0.00     0.051 H 
BRANCH  51  54
ATOM     54  CG  ACT d          -7.982  13.729  -4.085  0.00  0.00     0.217 C 
ATOM     55  OD1 ACT d          -7.957  14.146  -2.934  0.00  0.00    -0.274 OA
ATOM     56  ND2 ACT d          -8.291  14.478  -5.165  0.00  0.00    -0.370 N 
ATOM     57  H21 ACT d          -8.534  15.441  -5.053  0.00  0.00     0.159 HD
ATOM     58  H22 ACT d          -8.277  14.070  -6.079  0.00  0.00     0.159 HD
ENDBRANCH  51  54
ENDBRANCH  44  51
ENDBRANCH  42  44
ENDBRANCH  33  40
ENDBRANCH   3  33
TORSDOF 13
ENDMDL
MODEL 6
REMARK VINA RESULT:      -4.5      1.595      2.521
REMARK  13 active torsions:
REMARK  status: ('A' for Active; 'I' for Inactive)
REMARK    1  A    between atoms: C_1  and  CH3_3 
REMARK       I    between atoms: N_4  and  C_1 
REMARK    2  A    between atoms: CA_5  and  N_4 
REMARK    3  A    between atoms: C_6  and  CA_5 
REMARK    4  A    between atoms: CA_5  and  CB_8 
REMARK       I    between atoms: N_25  and  C_6 
REMARK    5  A    between atoms: CB_8  and  CG_9 
REMARK    6  A    between atoms: CZ_14  and  OH_15 
REMARK    7  A    between atoms: OH_15  and  P_16 
REMARK    8  A    between atoms: CA_22  and  C_23 
REMARK    9  A    between atoms: CA_22  and  N_25 
REMARK       I    between atoms: C_23  and  N_26 
REMARK   10  A    between atoms: N_26  and  CA_27 
REMARK   11  A    between atoms: CA_27  and  C_28 
REMARK   12  A    between atoms: CA_27  and  CB_30 
REMARK       I    between atoms: C_28  and  N_34 
REMARK   13  A    between atoms: CB_30  and  CG_31 
REMARK       I    between atoms: CG_31  and  ND2_33 
ROOT
ATOM      1  C   ACT d         -13.463  14.483   1.217  0.00  0.00     0.241 C 
ATOM      2  O   ACT d         -13.607  13.528   1.990  0.00  0.00    -0.271 OA
ATOM      3  N   ACT d         -12.688  15.563   1.503  0.00  0.00    -0.341 N 
ATOM      4  H16 ACT d         -12.633  16.354   0.894  0.00  0.00     0.163 HD
ENDROOT
BRANCH   1   5
ATOM      5  CA  ACT d         -14.191  14.537  -0.143  0.00  0.00     0.093 C 
ATOM      6  H5  ACT d         -15.168  15.029  -0.033  0.00  0.00     0.088 H 
BRANCH   5   7
ATOM      7  N   ACT d         -13.366  15.302  -1.144  0.00  0.00    -0.348 N 
ATOM      8  C   ACT d         -13.974  16.121  -1.956  0.00  0.00     0.214 C 
ATOM      9  O   ACT d         -15.185  16.380  -1.930  0.00  0.00    -0.274 OA
ATOM     10  H4  ACT d         -12.373  15.185  -1.185  0.00  0.00     0.163 HD
BRANCH   8  11
ATOM     11  CH3 ACT d         -13.083  16.783  -2.968  0.00  0.00    -0.003 C 
ATOM     12  H1  ACT d         -13.527  16.682  -3.969  0.00  0.00     0.040 H 
ATOM     13  H2  ACT d         -12.094  16.303  -2.956  0.00  0.00     0.040 H 
ATOM     14  H3  ACT d         -12.976  17.849  -2.720  0.00  0.00     0.040 H 
ENDBRANCH   8  11
ENDBRANCH   5   7
BRANCH   5  15
ATOM     15  CB  ACT d         -14.386  13.077  -0.561  0.00  0.00    -0.014 C 
ATOM     16  H6  ACT d         -15.228  12.994  -1.264  0.00  0.00     0.043 H 
ATOM     17  H7  ACT d         -14.584  12.454   0.324  0.00  0.00     0.043 H 
BRANCH  15  18
ATOM     18  CG  ACT d         -13.068  12.620  -1.251  0.00  0.00    -0.056 A 
ATOM     19  CD1 ACT d         -12.984  12.706  -2.627  0.00  0.00    -0.074 A 
ATOM     20  CE1 ACT d         -11.871  12.279  -3.310  0.00  0.00    -0.050 A 
ATOM     21  H8  ACT d         -13.818  13.122  -3.182  0.00  0.00     0.084 H 
ATOM     22  CZ  ACT d         -10.815  11.667  -2.637  0.00  0.00     0.082 A 
ATOM     23  H10 ACT d         -11.815  12.419  -4.383  0.00  0.00     0.087 H 
ATOM     24  CE2 ACT d         -10.914  11.577  -1.247  0.00  0.00    -0.050 A 
ATOM     25  CD2 ACT d         -12.019  12.057  -0.519  0.00  0.00    -0.074 A 
ATOM     26  H11 ACT d         -10.099  11.115  -0.701  0.00  0.00     0.087 H 
ATOM     27  H9  ACT d         -12.055  11.992   0.563  0.00  0.00     0.084 H 
BRANCH  22  28
ATOM     28  OH  ACT d          -9.744  11.193  -3.404  0.00  0.00    -0.240 OA
BRANCH  28  29
ATOM     29  P   ACT d          -9.794   9.849  -4.332  0.00  0.00     0.427 P 
ATOM     30  O1P ACT d          -8.406   9.241  -3.978  0.00  0.00    -0.617 OA
ATOM     31  O2P ACT d         -10.903   9.007  -3.798  0.00  0.00    -0.617 OA
ATOM     32  O3P ACT d          -9.784  10.288  -5.706  0.00  0.00    -0.617 OA
ENDBRANCH  28  29
ENDBRANCH  22  28
ENDBRANCH  15  18
ENDBRANCH   5  15
ENDBRANCH   1   5
BRANCH   3  33
ATOM     33  CA  ACT d         -11.955  15.498   2.729  0.00  0.00     0.114 A 
ATOM     34  CB  ACT d         -12.100  16.629   3.688  0.00  0.00    -0.030 A 
ATOM     35  CG  ACT d         -12.753  15.308   4.008  0.00  0.00    -0.030 A 
ATOM     36  H12 ACT d         -11.231  16.966   4.273  0.00  0.00     0.037 H 
ATOM     37  H13 ACT d         -12.722  17.497   3.422  0.00  0.00     0.037 H 
ATOM     38  H14 ACT d         -13.848  15.209   3.967  0.00  0.00     0.037 H 
ATOM     39  H15 ACT d         -12.358  14.678   4.818  0.00  0.00     0.037 H 
BRANCH  33  40
ATOM     40  C   ACT d         -10.702  14.647   2.705  0.00  0.00     0.246 C 
ATOM     41  O   ACT d         -10.012  14.573   1.664  0.00  0.00    -0.271 OA
ATOM     42  N   ACT d         -10.379  13.977   3.823  0.00  0.00    -0.345 N 
ATOM     43  H17 ACT d         -10.937  14.109   4.642  0.00  0.00     0.163 HD
BRANCH  42  44
ATOM     44  CA  ACT d          -9.258  13.072   3.886  0.00  0.00     0.097 C 
ATOM     45  H18 ACT d          -9.124  12.608   2.898  0.00  0.00     0.088 H 
BRANCH  44  46
ATOM     46  C   ACT d          -9.557  11.946   4.911  0.00  0.00     0.238 C 
ATOM     47  O   ACT d         -10.500  12.083   5.715  0.00  0.00    -0.271 OA
ATOM     48  N   ACT d          -8.756  10.870   4.939  0.00  0.00    -0.368 N 
ATOM     49  H23 ACT d          -8.932  10.133   5.592  0.00  0.00     0.159 HD
ATOM     50  H24 ACT d          -7.984  10.805   4.308  0.00  0.00     0.159 HD
ENDBRANCH  44  46
BRANCH  44  51
ATOM     51  CB  ACT d          -7.970  13.850   4.225  0.00  0.00     0.036 C 
ATOM     52  H19 ACT d          -7.720  14.501   3.374  0.00  0.00     0.051 H 
ATOM     53  H20 ACT d          -7.156  13.128   4.386  0.00  0.00     0.051 H 
BRANCH  51  54
ATOM     54  CG  ACT d          -8.109  14.716   5.478  0.00  0.00     0.217 C 
ATOM     55  OD1 ACT d          -7.856  14.229   6.573  0.00  0.00    -0.274 OA
ATOM     56  ND2 ACT d          -8.495  15.995   5.279  0.00  0.00    -0.370 N 
ATOM     57  H21 ACT d          -8.604  16.612   6.058  0.00  0.00     0.159 HD
ATOM     58  H22 ACT d          -8.671  16.325   4.351  0.00  0.00     0.159 HD
ENDBRANCH  51  54
ENDBRANCH  44  51
ENDBRANCH  42  44
ENDBRANCH  33  40
ENDBRANCH   3  33
TORSDOF 13
ENDMDL
MODEL 7
REMARK VINA RESULT:      -4.5      3.473      7.689
REMARK  13 active torsions:
REMARK  status: ('A' for Active; 'I' for Inactive)
REMARK    1  A    between atoms: C_1  and  CH3_3 
REMARK       I    between atoms: N_4  and  C_1 
REMARK    2  A    between atoms: CA_5  and  N_4 
REMARK    3  A    between atoms: C_6  and  CA_5 
REMARK    4  A    between atoms: CA_5  and  CB_8 
REMARK       I    between atoms: N_25  and  C_6 
REMARK    5  A    between atoms: CB_8  and  CG_9 
REMARK    6  A    between atoms: CZ_14  and  OH_15 
REMARK    7  A    between atoms: OH_15  and  P_16 
REMARK    8  A    between atoms: CA_22  and  C_23 
REMARK    9  A    between atoms: CA_22  and  N_25 
REMARK       I    between atoms: C_23  and  N_26 
REMARK   10  A    between atoms: N_26  and  CA_27 
REMARK   11  A    between atoms: CA_27  and  C_28 
REMARK   12  A    between atoms: CA_27  and  CB_30 
REMARK       I    between atoms: C_28  and  N_34 
REMARK   13  A    between atoms: CB_30  and  CG_31 
REMARK       I    between atoms: CG_31  and  ND2_33 
ROOT
ATOM      1  C   ACT d         -14.389  13.719  -2.038  0.00  0.00     0.241 C 
ATOM      2  O   ACT d         -15.262  13.368  -2.841  0.00  0.00    -0.271 OA
ATOM      3  N   ACT d         -13.438  14.646  -2.329  0.00  0.00    -0.341 N 
ATOM      4  H16 ACT d         -12.702  14.871  -1.690  0.00  0.00     0.163 HD
ENDROOT
BRANCH   1   5
ATOM      5  CA  ACT d         -14.292  13.096  -0.630  0.00  0.00     0.093 C 
ATOM      6  H5  ACT d         -14.993  12.253  -0.537  0.00  0.00     0.088 H 
BRANCH   5   7
ATOM      7  N   ACT d         -12.893  12.600  -0.376  0.00  0.00    -0.348 N 
ATOM      8  C   ACT d         -12.349  11.797  -1.247  0.00  0.00     0.214 C 
ATOM      9  O   ACT d         -12.867  11.455  -2.319  0.00  0.00    -0.274 OA
ATOM     10  H4  ACT d         -12.392  12.880   0.443  0.00  0.00     0.163 HD
BRANCH   8  11
ATOM     11  CH3 ACT d         -10.983  11.295  -0.875  0.00  0.00    -0.003 C 
ATOM     12  H1  ACT d         -10.245  11.668  -1.600  0.00  0.00     0.040 H 
ATOM     13  H2  ACT d         -10.982  10.195  -0.884  0.00  0.00     0.040 H 
ATOM     14  H3  ACT d         -10.723  11.652   0.132  0.00  0.00     0.040 H 
ENDBRANCH   8  11
ENDBRANCH   5   7
BRANCH   5  15
ATOM     15  CB  ACT d         -14.686  14.213   0.341  0.00  0.00    -0.014 C 
ATOM     16  H6  ACT d         -15.708  14.048   0.712  0.00  0.00     0.043 H 
ATOM     17  H7  ACT d         -14.633  15.188  -0.165  0.00  0.00     0.043 H 
BRANCH  15  18
ATOM     18  CG  ACT d         -13.675  14.169   1.523  0.00  0.00    -0.056 A 
ATOM     19  CD1 ACT d         -12.493  14.872   1.401  0.00  0.00    -0.074 A 
ATOM     20  CE1 ACT d         -11.532  14.843   2.382  0.00  0.00    -0.050 A 
ATOM     21  H8  ACT d         -12.319  15.462   0.508  0.00  0.00     0.084 H 
ATOM     22  CZ  ACT d         -11.687  14.033   3.505  0.00  0.00     0.082 A 
ATOM     23  H10 ACT d         -10.645  15.456   2.281  0.00  0.00     0.087 H 
ATOM     24  CE2 ACT d         -12.883  13.319   3.614  0.00  0.00    -0.050 A 
ATOM     25  CD2 ACT d         -13.906  13.374   2.649  0.00  0.00    -0.074 A 
ATOM     26  H11 ACT d         -13.030  12.691   4.486  0.00  0.00     0.087 H 
ATOM     27  H9  ACT d         -14.832  12.825   2.774  0.00  0.00     0.084 H 
BRANCH  22  28
ATOM     28  OH  ACT d         -10.637  13.999   4.432  0.00  0.00    -0.240 OA
BRANCH  28  29
ATOM     29  P   ACT d          -9.685  12.698   4.703  0.00  0.00     0.427 P 
ATOM     30  O1P ACT d          -9.704  12.067   3.280  0.00  0.00    -0.617 OA
ATOM     31  O2P ACT d          -8.332  13.226   5.040  0.00  0.00    -0.617 OA
ATOM     32  O3P ACT d         -10.401  11.839   5.613  0.00  0.00    -0.617 OA
ENDBRANCH  28  29
ENDBRANCH  22  28
ENDBRANCH  15  18
ENDBRANCH   5  15
ENDBRANCH   1   5
BRANCH   3  33
ATOM     33  CA  ACT d         -13.555  15.280  -3.604  0.00  0.00     0.114 A 
ATOM     34  CB  ACT d         -14.867  15.891  -3.963  0.00  0.00    -0.030 A 
ATOM     35  CG  ACT d         -13.708  16.793  -3.619  0.00  0.00    -0.030 A 
ATOM     36  H12 ACT d         -15.230  15.838  -4.999  0.00  0.00     0.037 H 
ATOM     37  H13 ACT d         -15.717  15.805  -3.270  0.00  0.00     0.037 H 
ATOM     38  H14 ACT d         -13.708  17.357  -2.675  0.00  0.00     0.037 H 
ATOM     39  H15 ACT d         -13.221  17.390  -4.404  0.00  0.00     0.037 H 
BRANCH  33  40
ATOM     40  C   ACT d         -12.600  14.792  -4.675  0.00  0.00     0.246 C 
ATOM     41  O   ACT d         -12.973  14.729  -5.867  0.00  0.00    -0.271 OA
ATOM     42  N   ACT d         -11.368  14.421  -4.293  0.00  0.00    -0.345 N 
ATOM     43  H17 ACT d         -11.105  14.537  -3.335  0.00  0.00     0.163 HD
BRANCH  42  44
ATOM     44  CA  ACT d         -10.408  13.861  -5.213  0.00  0.00     0.097 C 
ATOM     45  H18 ACT d         -10.755  14.048  -6.239  0.00  0.00     0.088 H 
BRANCH  44  46
ATOM     46  C   ACT d         -10.325  12.326  -5.004  0.00  0.00     0.238 C 
ATOM     47  O   ACT d          -9.779  11.874  -3.978  0.00  0.00    -0.271 OA
ATOM     48  N   ACT d         -10.800  11.518  -5.964  0.00  0.00    -0.368 N 
ATOM     49  H23 ACT d         -10.756  10.525  -5.849  0.00  0.00     0.159 HD
ATOM     50  H24 ACT d         -11.198  11.908  -6.794  0.00  0.00     0.159 HD
ENDBRANCH  44  46
BRANCH  44  51
ATOM     51  CB  ACT d          -9.042  14.555  -5.038  0.00  0.00     0.036 C 
ATOM     52  H19 ACT d          -8.961  15.361  -5.782  0.00  0.00     0.051 H 
ATOM     53  H20 ACT d          -8.248  13.813  -5.211  0.00  0.00     0.051 H 
BRANCH  51  54
ATOM     54  CG  ACT d          -8.853  15.156  -3.643  0.00  0.00     0.217 C 
ATOM     55  OD1 ACT d          -9.178  16.321  -3.445  0.00  0.00    -0.274 OA
ATOM     56  ND2 ACT d          -8.345  14.331  -2.703  0.00  0.00    -0.370 N 
ATOM     57  H21 ACT d          -8.197  14.664  -1.772  0.00  0.00     0.159 HD
ATOM     58  H22 ACT d          -8.116  13.386  -2.938  0.00  0.00     0.159 HD
ENDBRANCH  51  54
ENDBRANCH  44  51
ENDBRANCH  42  44
ENDBRANCH  33  40
ENDBRANCH   3  33
TORSDOF 13
ENDMDL
MODEL 8
REMARK VINA RESULT:      -4.3      3.455      7.662
REMARK  13 active torsions:
REMARK  status: ('A' for Active; 'I' for Inactive)
REMARK    1  A    between atoms: C_1  and  CH3_3 
REMARK       I    between atoms: N_4  and  C_1 
REMARK    2  A    between atoms: CA_5  and  N_4 
REMARK    3  A    between atoms: C_6  and  CA_5 
REMARK    4  A    between atoms: CA_5  and  CB_8 
REMARK       I    between atoms: N_25  and  C_6 
REMARK    5  A    between atoms: CB_8  and  CG_9 
REMARK    6  A    between atoms: CZ_14  and  OH_15 
REMARK    7  A    between atoms: OH_15  and  P_16 
REMARK    8  A    between atoms: CA_22  and  C_23 
REMARK    9  A    between atoms: CA_22  and  N_25 
REMARK       I    between atoms: C_23  and  N_26 
REMARK   10  A    between atoms: N_26  and  CA_27 
REMARK   11  A    between atoms: CA_27  and  C_28 
REMARK   12  A    between atoms: CA_27  and  CB_30 
REMARK       I    between atoms: C_28  and  N_34 
REMARK   13  A    between atoms: CB_30  and  CG_31 
REMARK       I    between atoms: CG_31  and  ND2_33 
ROOT
ATOM      1  C   ACT d         -12.466  14.250  -0.973  0.00  0.00     0.241 C 
ATOM      2  O   ACT d         -11.298  14.646  -0.875  0.00  0.00    -0.271 OA
ATOM      3  N   ACT d         -12.796  13.013  -1.431  0.00  0.00    -0.341 N 
ATOM      4  H16 ACT d         -13.747  12.732  -1.564  0.00  0.00     0.163 HD
ENDROOT
BRANCH   1   5
ATOM      5  CA  ACT d         -13.659  15.157  -0.607  0.00  0.00     0.093 C 
ATOM      6  H5  ACT d         -13.301  16.146  -0.285  0.00  0.00     0.088 H 
BRANCH   5   7
ATOM      7  N   ACT d         -14.567  15.327  -1.796  0.00  0.00    -0.348 N 
ATOM      8  C   ACT d         -14.218  16.164  -2.732  0.00  0.00     0.214 C 
ATOM      9  O   ACT d         -13.152  16.794  -2.762  0.00  0.00    -0.274 OA
ATOM     10  H4  ACT d         -15.420  14.808  -1.866  0.00  0.00     0.163 HD
BRANCH   8  11
ATOM     11  CH3 ACT d         -15.219  16.324  -3.841  0.00  0.00    -0.003 C 
ATOM     12  H1  ACT d         -14.809  15.900  -4.769  0.00  0.00     0.040 H 
ATOM     13  H2  ACT d         -15.434  17.392  -3.990  0.00  0.00     0.040 H 
ATOM     14  H3  ACT d         -16.147  15.797  -3.575  0.00  0.00     0.040 H 
ENDBRANCH   8  11
ENDBRANCH   5   7
BRANCH   5  15
ATOM     15  CB  ACT d         -14.366  14.455   0.556  0.00  0.00    -0.014 C 
ATOM     16  H6  ACT d         -14.606  13.417   0.281  0.00  0.00     0.043 H 
ATOM     17  H7  ACT d         -15.291  14.990   0.813  0.00  0.00     0.043 H 
BRANCH  15  18
ATOM     18  CG  ACT d         -13.385  14.473   1.764  0.00  0.00    -0.056 A 
ATOM     19  CD1 ACT d         -12.720  15.648   2.052  0.00  0.00    -0.074 A 
ATOM     20  CE1 ACT d         -11.804  15.728   3.073  0.00  0.00    -0.050 A 
ATOM     21  H8  ACT d         -12.925  16.530   1.456  0.00  0.00     0.084 H 
ATOM     22  CZ  ACT d         -11.457  14.595   3.806  0.00  0.00     0.082 A 
ATOM     23  H10 ACT d         -11.348  16.681   3.310  0.00  0.00     0.087 H 
ATOM     24  CE2 ACT d         -12.130  13.409   3.502  0.00  0.00    -0.050 A 
ATOM     25  CD2 ACT d         -13.111  13.315   2.497  0.00  0.00    -0.074 A 
ATOM     26  H11 ACT d         -11.884  12.518   4.068  0.00  0.00     0.087 H 
ATOM     27  H9  ACT d         -13.631  12.384   2.300  0.00  0.00     0.084 H 
BRANCH  22  28
ATOM     28  OH  ACT d         -10.466  14.734   4.787  0.00  0.00    -0.240 OA
BRANCH  28  29
ATOM     29  P   ACT d          -8.883  14.405   4.554  0.00  0.00     0.427 P 
ATOM     30  O1P ACT d          -9.010  13.014   3.865  0.00  0.00    -0.617 OA
ATOM     31  O2P ACT d          -8.371  15.433   3.601  0.00  0.00    -0.617 OA
ATOM     32  O3P ACT d          -8.294  14.236   5.860  0.00  0.00    -0.617 OA
ENDBRANCH  28  29
ENDBRANCH  22  28
ENDBRANCH  15  18
ENDBRANCH   5  15
ENDBRANCH   1   5
BRANCH   3  33
ATOM     33  CA  ACT d         -11.701  12.138  -1.711  0.00  0.00     0.114 A 
ATOM     34  CB  ACT d         -10.931  11.594  -0.557  0.00  0.00    -0.030 A 
ATOM     35  CG  ACT d         -11.858  10.678  -1.317  0.00  0.00    -0.030 A 
ATOM     36  H12 ACT d          -9.842  11.461  -0.639  0.00  0.00     0.037 H 
ATOM     37  H13 ACT d         -11.187  11.904   0.467  0.00  0.00     0.037 H 
ATOM     38  H14 ACT d         -12.791  10.329  -0.853  0.00  0.00     0.037 H 
ATOM     39  H15 ACT d         -11.447   9.885  -1.959  0.00  0.00     0.037 H 
BRANCH  33  40
ATOM     40  C   ACT d         -11.060  12.297  -3.075  0.00  0.00     0.246 C 
ATOM     41  O   ACT d         -11.775  12.409  -4.095  0.00  0.00    -0.271 OA
ATOM     42  N   ACT d          -9.719  12.296  -3.140  0.00  0.00    -0.345 N 
ATOM     43  H17 ACT d          -9.196  12.252  -2.289  0.00  0.00     0.163 HD
BRANCH  42  44
ATOM     44  CA  ACT d          -9.005  12.354  -4.392  0.00  0.00     0.097 C 
ATOM     45  H18 ACT d          -7.928  12.268  -4.186  0.00  0.00     0.088 H 
BRANCH  44  46
ATOM     46  C   ACT d          -9.259  13.728  -5.068  0.00  0.00     0.238 C 
ATOM     47  O   ACT d          -9.837  13.771  -6.172  0.00  0.00    -0.271 OA
ATOM     48  N   ACT d          -8.799  14.837  -4.469  0.00  0.00    -0.368 N 
ATOM     49  H23 ACT d          -8.951  15.732  -4.889  0.00  0.00     0.159 HD
ATOM     50  H24 ACT d          -8.304  14.768  -3.603  0.00  0.00     0.159 HD
ENDBRANCH  44  46
BRANCH  44  51
ATOM     51  CB  ACT d          -9.415  11.170  -5.290  0.00  0.00     0.036 C 
ATOM     52  H19 ACT d          -8.896  11.266  -6.255  0.00  0.00     0.051 H 
ATOM     53  H20 ACT d         -10.502  11.212  -5.451  0.00  0.00     0.051 H 
BRANCH  51  54
ATOM     54  CG  ACT d          -9.064   9.811  -4.680  0.00  0.00     0.217 C 
ATOM     55  OD1 ACT d          -9.965   9.087  -4.274  0.00  0.00    -0.274 OA
ATOM     56  ND2 ACT d          -7.752   9.493  -4.650  0.00  0.00    -0.370 N 
ATOM     57  H21 ACT d          -7.458   8.619  -4.264  0.00  0.00     0.159 HD
ATOM     58  H22 ACT d          -7.074  10.132  -5.014  0.00  0.00     0.159 HD
ENDBRANCH  51  54
ENDBRANCH  44  51
ENDBRANCH  42  44
ENDBRANCH  33  40
ENDBRANCH   3  33
TORSDOF 13
ENDMDL
MODEL 9
REMARK VINA RESULT:      -4.0      3.501      7.882
REMARK  13 active torsions:
REMARK  status: ('A' for Active; 'I' for Inactive)
REMARK    1  A    between atoms: C_1  and  CH3_3 
REMARK       I    between atoms: N_4  and  C_1 
REMARK    2  A    between atoms: CA_5  and  N_4 
REMARK    3  A    between atoms: C_6  and  CA_5 
REMARK    4  A    between atoms: CA_5  and  CB_8 
REMARK       I    between atoms: N_25  and  C_6 
REMARK    5  A    between atoms: CB_8  and  CG_9 
REMARK    6  A    between atoms: CZ_14  and  OH_15 
REMARK    7  A    between atoms: OH_15  and  P_16 
REMARK    8  A    between atoms: CA_22  and  C_23 
REMARK    9  A    between atoms: CA_22  and  N_25 
REMARK       I    between atoms: C_23  and  N_26 
REMARK   10  A    between atoms: N_26  and  CA_27 
REMARK   11  A    between atoms: CA_27  and  C_28 
REMARK   12  A    between atoms: CA_27  and  CB_30 
REMARK       I    between atoms: C_28  and  N_34 
REMARK   13  A    between atoms: CB_30  and  CG_31 
REMARK       I    between atoms: CG_31  and  ND2_33 
ROOT
ATOM      1  C   ACT d         -12.485  14.164  -0.529  0.00  0.00     0.241 C 
ATOM      2  O   ACT d         -11.363  14.656  -0.703  0.00  0.00    -0.271 OA
ATOM      3  N   ACT d         -12.847  12.946  -1.012  0.00  0.00    -0.341 N 
ATOM      4  H16 ACT d         -13.778  12.592  -0.917  0.00  0.00     0.163 HD
ENDROOT
BRANCH   1   5
ATOM      5  CA  ACT d         -13.589  14.923   0.237  0.00  0.00     0.093 C 
ATOM      6  H5  ACT d         -13.214  15.900   0.577  0.00  0.00     0.088 H 
BRANCH   5   7
ATOM      7  N   ACT d         -14.784  15.140  -0.653  0.00  0.00    -0.348 N 
ATOM      8  C   ACT d         -14.610  15.750  -1.792  0.00  0.00     0.214 C 
ATOM      9  O   ACT d         -13.516  16.113  -2.245  0.00  0.00    -0.274 OA
ATOM     10  H4  ACT d         -15.692  14.823  -0.377  0.00  0.00     0.163 HD
BRANCH   8  11
ATOM     11  CH3 ACT d         -15.868  15.988  -2.579  0.00  0.00    -0.003 C 
ATOM     12  H1  ACT d         -15.732  15.622  -3.607  0.00  0.00     0.040 H 
ATOM     13  H2  ACT d         -16.090  17.065  -2.599  0.00  0.00     0.040 H 
ATOM     14  H3  ACT d         -16.703  15.451  -2.105  0.00  0.00     0.040 H 
ENDBRANCH   8  11
ENDBRANCH   5   7
BRANCH   5  15
ATOM     15  CB  ACT d         -13.928  14.045   1.445  0.00  0.00    -0.014 C 
ATOM     16  H6  ACT d         -14.090  13.006   1.123  0.00  0.00     0.043 H 
ATOM     17  H7  ACT d         -14.835  14.421   1.941  0.00  0.00     0.043 H 
BRANCH  15  18
ATOM     18  CG  ACT d         -12.716  14.120   2.418  0.00  0.00    -0.056 A 
ATOM     19  CD1 ACT d         -11.811  13.077   2.419  0.00  0.00    -0.074 A 
ATOM     20  CE1 ACT d         -10.743  13.051   3.282  0.00  0.00    -0.050 A 
ATOM     21  H8  ACT d         -11.946  12.259   1.721  0.00  0.00     0.084 H 
ATOM     22  CZ  ACT d         -10.582  14.044   4.246  0.00  0.00     0.082 A 
ATOM     23  H10 ACT d         -10.017  12.248   3.213  0.00  0.00     0.087 H 
ATOM     24  CE2 ACT d         -11.508  15.090   4.242  0.00  0.00    -0.050 A 
ATOM     25  CD2 ACT d         -12.579  15.168   3.332  0.00  0.00    -0.074 A 
ATOM     26  H11 ACT d         -11.396  15.880   4.975  0.00  0.00     0.087 H 
ATOM     27  H9  ACT d         -13.269  16.005   3.341  0.00  0.00     0.084 H 
BRANCH  22  28
ATOM     28  OH  ACT d          -9.509  13.917   5.138  0.00  0.00    -0.240 OA
BRANCH  28  29
ATOM     29  P   ACT d          -8.334  15.035   5.335  0.00  0.00     0.427 P 
ATOM     30  O1P ACT d          -9.217  16.306   5.509  0.00  0.00    -0.617 OA
ATOM     31  O2P ACT d          -7.629  14.691   6.603  0.00  0.00    -0.617 OA
ATOM     32  O3P ACT d          -7.623  15.119   4.082  0.00  0.00    -0.617 OA
ENDBRANCH  28  29
ENDBRANCH  22  28
ENDBRANCH  15  18
ENDBRANCH   5  15
ENDBRANCH   1   5
BRANCH   3  33
ATOM     33  CA  ACT d         -11.817  12.202  -1.666  0.00  0.00     0.114 A 
ATOM     34  CB  ACT d         -10.983  11.288  -0.835  0.00  0.00    -0.030 A 
ATOM     35  CG  ACT d         -12.005  10.698  -1.773  0.00  0.00    -0.030 A 
ATOM     36  H12 ACT d          -9.910  11.176  -1.052  0.00  0.00     0.037 H 
ATOM     37  H13 ACT d         -11.144  11.237   0.252  0.00  0.00     0.037 H 
ATOM     38  H14 ACT d         -12.913  10.225  -1.373  0.00  0.00     0.037 H 
ATOM     39  H15 ACT d         -11.681  10.163  -2.678  0.00  0.00     0.037 H 
BRANCH  33  40
ATOM     40  C   ACT d         -11.278  12.804  -2.948  0.00  0.00     0.246 C 
ATOM     41  O   ACT d         -12.060  13.109  -3.876  0.00  0.00    -0.271 OA
ATOM     42  N   ACT d          -9.951  12.978  -3.048  0.00  0.00    -0.345 N 
ATOM     43  H17 ACT d          -9.376  12.764  -2.259  0.00  0.00     0.163 HD
BRANCH  42  44
ATOM     44  CA  ACT d          -9.323  13.463  -4.252  0.00  0.00     0.097 C 
ATOM     45  H18 ACT d         -10.080  13.981  -4.860  0.00  0.00     0.088 H 
BRANCH  44  46
ATOM     46  C   ACT d          -8.784  12.263  -5.075  0.00  0.00     0.238 C 
ATOM     47  O   ACT d          -7.657  11.796  -4.813  0.00  0.00    -0.271 OA
ATOM     48  N   ACT d          -9.526  11.789  -6.087  0.00  0.00    -0.368 N 
ATOM     49  H23 ACT d          -9.197  11.016  -6.630  0.00  0.00     0.159 HD
ATOM     50  H24 ACT d         -10.408  12.208  -6.299  0.00  0.00     0.159 HD
ENDBRANCH  44  46
BRANCH  44  51
ATOM     51  CB  ACT d          -8.218  14.480  -3.900  0.00  0.00     0.036 C 
ATOM     52  H19 ACT d          -7.812  14.894  -4.835  0.00  0.00     0.051 H 
ATOM     53  H20 ACT d          -7.421  13.955  -3.353  0.00  0.00     0.051 H 
BRANCH  51  54
ATOM     54  CG  ACT d          -8.726  15.635  -3.034  0.00  0.00     0.217 C 
ATOM     55  OD1 ACT d          -9.639  16.338  -3.450  0.00  0.00    -0.274 OA
ATOM     56  ND2 ACT d          -8.125  15.788  -1.835  0.00  0.00    -0.370 N 
ATOM     57  H21 ACT d          -8.411  16.525  -1.223  0.00  0.00     0.159 HD
ATOM     58  H22 ACT d          -7.393  15.165  -1.558  0.00  0.00     0.159 HD
ENDBRANCH  51  54
ENDBRANCH  44  51
ENDBRANCH  42  44
ENDBRANCH  33  40
ENDBRANCH   3  33
TORSDOF 13
ENDMDL
MODEL 10
REMARK VINA RESULT:      -4.0      3.907      8.252
REMARK  13 active torsions:
REMARK  status: ('A' for Active; 'I' for Inactive)
REMARK    1  A    between atoms: C_1  and  CH3_3 
REMARK       I    between atoms: N_4  and  C_1 
REMARK    2  A    between atoms: CA_5  and  N_4 
REMARK    3  A    between atoms: C_6  and  CA_5 
REMARK    4  A    between atoms: CA_5  and  CB_8 
REMARK       I    between atoms: N_25  and  C_6 
REMARK    5  A    between atoms: CB_8  and  CG_9 
REMARK    6  A    between atoms: CZ_14  and  OH_15 
REMARK    7  A    between atoms: OH_15  and  P_16 
REMARK    8  A    between atoms: CA_22  and  C_23 
REMARK    9  A    between atoms: CA_22  and  N_25 
REMARK       I    between atoms: C_23  and  N_26 
REMARK   10  A    between atoms: N_26  and  CA_27 
REMARK   11  A    between atoms: CA_27  and  C_28 
REMARK   12  A    between atoms: CA_27  and  CB_30 
REMARK       I    between atoms: C_28  and  N_34 
REMARK   13  A    between atoms: CB_30  and  CG_31 
REMARK       I    between atoms: CG_31  and  ND2_33 
ROOT
ATOM      1  C   ACT d         -10.295  14.450  -2.484  0.00  0.00     0.241 C 
ATOM      2  O   ACT d          -9.133  14.323  -2.079  0.00  0.00    -0.271 OA
ATOM      3  N   ACT d         -10.614  14.591  -3.798  0.00  0.00    -0.341 N 
ATOM      4  H16 ACT d         -11.552  14.757  -4.102  0.00  0.00     0.163 HD
ENDROOT
BRANCH   1   5
ATOM      5  CA  ACT d         -11.489  14.490  -1.508  0.00  0.00     0.093 C 
ATOM      6  H5  ACT d         -11.379  15.329  -0.805  0.00  0.00     0.088 H 
BRANCH   5   7
ATOM      7  N   ACT d         -12.778  14.655  -2.270  0.00  0.00    -0.348 N 
ATOM      8  C   ACT d         -13.748  15.327  -1.715  0.00  0.00     0.214 C 
ATOM      9  O   ACT d         -13.677  15.909  -0.624  0.00  0.00    -0.274 OA
ATOM     10  H4  ACT d         -12.887  14.259  -3.182  0.00  0.00     0.163 HD
BRANCH   8  11
ATOM     11  CH3 ACT d         -15.019  15.376  -2.515  0.00  0.00    -0.003 C 
ATOM     12  H1  ACT d         -15.809  14.826  -1.982  0.00  0.00     0.040 H 
ATOM     13  H2  ACT d         -14.851  14.915  -3.499  0.00  0.00     0.040 H 
ATOM     14  H3  ACT d         -15.327  16.423  -2.649  0.00  0.00     0.040 H 
ENDBRANCH   8  11
ENDBRANCH   5   7
BRANCH   5  15
ATOM     15  CB  ACT d         -11.442  13.162  -0.748  0.00  0.00    -0.014 C 
ATOM     16  H6  ACT d         -10.676  12.504  -1.183  0.00  0.00     0.043 H 
ATOM     17  H7  ACT d         -12.423  12.665  -0.795  0.00  0.00     0.043 H 
BRANCH  15  18
ATOM     18  CG  ACT d         -11.083  13.495   0.730  0.00  0.00    -0.056 A 
ATOM     19  CD1 ACT d         -10.704  14.786   1.038  0.00  0.00    -0.074 A 
ATOM     20  CE1 ACT d         -10.329  15.143   2.310  0.00  0.00    -0.050 A 
ATOM     21  H8  ACT d         -10.704  15.537   0.256  0.00  0.00     0.084 H 
ATOM     22  CZ  ACT d         -10.241  14.188   3.321  0.00  0.00     0.082 A 
ATOM     23  H10 ACT d         -10.098  16.179   2.529  0.00  0.00     0.087 H 
ATOM     24  CE2 ACT d         -10.619  12.883   2.996  0.00  0.00    -0.050 A 
ATOM     25  CD2 ACT d         -11.059  12.503   1.714  0.00  0.00    -0.074 A 
ATOM     26  H11 ACT d         -10.570  12.125   3.770  0.00  0.00     0.087 H 
ATOM     27  H9  ACT d         -11.367  11.485   1.500  0.00  0.00     0.084 H 
BRANCH  22  28
ATOM     28  OH  ACT d          -9.785  14.610   4.576  0.00  0.00    -0.240 OA
BRANCH  28  29
ATOM     29  P   ACT d          -8.210  14.757   4.985  0.00  0.00     0.427 P 
ATOM     30  O1P ACT d          -7.638  13.509   4.250  0.00  0.00    -0.617 OA
ATOM     31  O2P ACT d          -7.725  16.020   4.358  0.00  0.00    -0.617 OA
ATOM     32  O3P ACT d          -8.127  14.549   6.410  0.00  0.00    -0.617 OA
ENDBRANCH  28  29
ENDBRANCH  22  28
ENDBRANCH  15  18
ENDBRANCH   5  15
ENDBRANCH   1   5
BRANCH   3  33
ATOM     33  CA  ACT d          -9.526  14.489  -4.719  0.00  0.00     0.114 A 
ATOM     34  CB  ACT d          -9.424  15.516  -5.795  0.00  0.00    -0.030 A 
ATOM     35  CG  ACT d          -8.448  15.559  -4.646  0.00  0.00    -0.030 A 
ATOM     36  H12 ACT d          -9.077  15.226  -6.798  0.00  0.00     0.037 H 
ATOM     37  H13 ACT d         -10.198  16.293  -5.885  0.00  0.00     0.037 H 
ATOM     38  H14 ACT d          -8.515  16.359  -3.895  0.00  0.00     0.037 H 
ATOM     39  H15 ACT d          -7.393  15.293  -4.807  0.00  0.00     0.037 H 
BRANCH  33  40
ATOM     40  C   ACT d          -8.944  13.102  -4.903  0.00  0.00     0.246 C 
ATOM     41  O   ACT d          -8.190  12.861  -5.871  0.00  0.00    -0.271 OA
ATOM     42  N   ACT d          -9.279  12.159  -4.009  0.00  0.00    -0.345 N 
ATOM     43  H17 ACT d          -9.846  12.417  -3.227  0.00  0.00     0.163 HD
BRANCH  42  44
ATOM     44  CA  ACT d          -8.853  10.787  -4.134  0.00  0.00     0.097 C 
ATOM     45  H18 ACT d          -7.824  10.773  -4.522  0.00  0.00     0.088 H 
BRANCH  44  46
ATOM     46  C   ACT d          -9.763  10.053  -5.154  0.00  0.00     0.238 C 
ATOM     47  O   ACT d         -10.803  10.608  -5.560  0.00  0.00    -0.271 OA
ATOM     48  N   ACT d          -9.432   8.810  -5.536  0.00  0.00    -0.368 N 
ATOM     49  H23 ACT d         -10.005   8.319  -6.192  0.00  0.00     0.159 HD
ATOM     50  H24 ACT d          -8.612   8.374  -5.164  0.00  0.00     0.159 HD
ENDBRANCH  44  46
BRANCH  44  51
ATOM     51  CB  ACT d          -8.849  10.107  -2.750  0.00  0.00     0.036 C 
ATOM     52  H19 ACT d          -8.423  10.807  -2.016  0.00  0.00     0.051 H 
ATOM     53  H20 ACT d          -8.221   9.205  -2.805  0.00  0.00     0.051 H 
BRANCH  51  54
ATOM     54  CG  ACT d         -10.248   9.700  -2.282  0.00  0.00     0.217 C 
ATOM     55  OD1 ACT d         -10.403   8.615  -1.734  0.00  0.00    -0.274 OA
ATOM     56  ND2 ACT d         -11.232  10.598  -2.498  0.00  0.00    -0.370 N 
ATOM     57  H21 ACT d         -12.169  10.391  -2.216  0.00  0.00     0.159 HD
ATOM     58  H22 ACT d         -11.025  11.471  -2.941  0.00  0.00     0.159 HD
ENDBRANCH  51  54
ENDBRANCH  44  51
ENDBRANCH  42  44
ENDBRANCH  33  40
ENDBRANCH   3  33
TORSDOF 13
ENDMDL
