MODEL 1
REMARK VINA RESULT:      -8.0      0.000      0.000
REMARK  2 active torsions:
REMARK  status: ('A' for Active; 'I' for Inactive)
REMARK    1  A    between atoms: C6_3  and  S_5 
REMARK    2  A    between atoms: S_5  and  N_10 
ROOT
ATOM      1  C4  SKF d          28.649  46.041  16.714  0.00  0.00    -0.075 A 
ATOM      2  C5  SKF d          28.137  45.501  15.542  0.00  0.00    -0.060 A 
ATOM      3  C6  SKF d          27.862  44.130  15.477  0.00  0.00     0.080 A 
ATOM      4  C7  SKF d          28.100  43.319  16.579  0.00  0.00    -0.052 A 
ATOM      5  C8  SKF d          28.612  43.858  17.744  0.00  0.00    -0.025 A 
ATOM      6  C9  SKF d          28.888  45.228  17.815  0.00  0.00    -0.049 A 
ATOM      7  C1  SKF d          28.790  42.978  18.955  0.00  0.00     0.106 C 
ATOM      8  C2  SKF d          29.317  45.047  20.230  0.00  0.00     0.086 C 
ATOM      9  C3  SKF d          29.720  45.744  18.949  0.00  0.00    -0.018 C 
ATOM     10  N1  SKF d          29.605  43.602  20.024  0.00  0.00    -0.071 N 
ATOM     11  H1  SKF d          28.864  47.102  16.771  0.00  0.00     0.084 H 
ATOM     12  H2  SKF d          27.952  46.136  14.684  0.00  0.00     0.085 H 
ATOM     13  H3  SKF d          27.884  42.258  16.524  0.00  0.00     0.086 H 
ATOM     14  H6  SKF d          29.283  42.047  18.639  0.00  0.00     0.083 H 
ATOM     15  H7  SKF d          27.796  42.745  19.366  0.00  0.00     0.083 H 
ATOM     16  H8  SKF d          28.245  45.198  20.425  0.00  0.00     0.076 H 
ATOM     17  H9  SKF d          29.902  45.435  21.076  0.00  0.00     0.076 H 
ATOM     18  H10 SKF d          29.561  46.827  19.056  0.00  0.00     0.042 H 
ATOM     19  H11 SKF d          30.782  45.548  18.743  0.00  0.00     0.042 H 
ATOM     20  H12 SKF d          30.578  43.503  19.781  0.00  0.00     0.277 HD
ATOM     21  H13 SKF d          29.424  43.115  20.887  0.00  0.00     0.277 HD
ENDROOT
BRANCH   3  22
ATOM     22  S   SKF d          27.219  43.428  13.992  0.00  0.00     0.256 S 
ATOM     23  O1  SKF d          27.597  44.216  12.839  0.00  0.00    -0.201 OA
ATOM     24  O2  SKF d          25.785  43.296  14.017  0.00  0.00    -0.201 OA
BRANCH  22  25
ATOM     25  N   SKF d          27.850  41.989  13.858  0.00  0.00    -0.324 N 
ATOM     26  H4  SKF d          27.615  41.411  13.077  0.00  0.00     0.169 HD
ATOM     27  H5  SKF d          28.484  41.655  14.554  0.00  0.00     0.169 HD
ENDBRANCH  22  25
ENDBRANCH   3  22
TORSDOF 2
ENDMDL
