MODEL 1
REMARK VINA RESULT:      -7.5      0.000      0.000
REMARK  2 active torsions:
REMARK  status: ('A' for Active; 'I' for Inactive)
REMARK    1  A    between atoms: C6_3  and  S_5 
REMARK    2  A    between atoms: S_5  and  N_10 
ROOT
ATOM      1  C4  SKF d          28.781  46.092  16.758  0.00  0.00    -0.075 A 
ATOM      2  C5  SKF d          28.406  45.478  15.571  0.00  0.00    -0.060 A 
ATOM      3  C6  SKF d          28.066  44.120  15.574  0.00  0.00     0.080 A 
ATOM      4  C7  SKF d          28.104  43.395  16.758  0.00  0.00    -0.052 A 
ATOM      5  C8  SKF d          28.480  44.007  17.938  0.00  0.00    -0.025 A 
ATOM      6  C9  SKF d          28.820  45.364  17.942  0.00  0.00    -0.049 A 
ATOM      7  C1  SKF d          28.440  43.225  19.227  0.00  0.00     0.106 C 
ATOM      8  C2  SKF d          28.902  45.369  20.399  0.00  0.00     0.086 C 
ATOM      9  C3  SKF d          29.516  45.938  19.138  0.00  0.00    -0.018 C 
ATOM     10  N1  SKF d          29.134  43.901  20.349  0.00  0.00    -0.071 N 
ATOM     11  H1  SKF d          29.045  47.143  16.762  0.00  0.00     0.084 H 
ATOM     12  H2  SKF d          28.376  46.046  14.648  0.00  0.00     0.085 H 
ATOM     13  H3  SKF d          27.838  42.344  16.756  0.00  0.00     0.086 H 
ATOM     14  H6  SKF d          28.919  42.250  19.057  0.00  0.00     0.083 H 
ATOM     15  H7  SKF d          27.388  43.073  19.510  0.00  0.00     0.083 H 
ATOM     16  H8  SKF d          27.823  45.584  20.429  0.00  0.00     0.076 H 
ATOM     17  H9  SKF d          29.386  45.802  21.288  0.00  0.00     0.076 H 
ATOM     18  H10 SKF d          29.404  47.031  19.137  0.00  0.00     0.042 H 
ATOM     19  H11 SKF d          30.584  45.678  19.101  0.00  0.00     0.042 H 
ATOM     20  H12 SKF d          30.124  43.738  20.255  0.00  0.00     0.277 HD
ATOM     21  H13 SKF d          28.809  43.497  21.213  0.00  0.00     0.277 HD
ENDROOT
BRANCH   3  22
ATOM     22  S   SKF d          27.594  43.323  14.072  0.00  0.00     0.256 S 
ATOM     23  O1  SKF d          26.158  43.158  14.002  0.00  0.00    -0.201 OA
ATOM     24  O2  SKF d          28.221  42.037  13.907  0.00  0.00    -0.201 OA
BRANCH  22  25
ATOM     25  N   SKF d          28.060  44.261  12.893  0.00  0.00    -0.324 N 
ATOM     26  H4  SKF d          28.839  43.999  12.324  0.00  0.00     0.169 HD
ATOM     27  H5  SKF d          27.576  45.117  12.715  0.00  0.00     0.169 HD
ENDBRANCH  22  25
ENDBRANCH   3  22
TORSDOF 2
ENDMDL
MODEL 2
REMARK VINA RESULT:      -7.2      3.323      5.503
REMARK  2 active torsions:
REMARK  status: ('A' for Active; 'I' for Inactive)
REMARK    1  A    between atoms: C6_3  and  S_5 
REMARK    2  A    between atoms: S_5  and  N_10 
ROOT
ATOM      1  C4  SKF d          27.611  42.396  17.053  0.00  0.00    -0.075 A 
ATOM      2  C5  SKF d          28.077  42.995  18.216  0.00  0.00    -0.060 A 
ATOM      3  C6  SKF d          28.640  44.274  18.157  0.00  0.00     0.080 A 
ATOM      4  C7  SKF d          28.731  44.939  16.940  0.00  0.00    -0.052 A 
ATOM      5  C8  SKF d          28.269  44.341  15.783  0.00  0.00    -0.025 A 
ATOM      6  C9  SKF d          27.704  43.062  15.837  0.00  0.00    -0.049 A 
ATOM      7  C1  SKF d          28.302  45.108  14.485  0.00  0.00     0.106 C 
ATOM      8  C2  SKF d          26.988  43.245  13.492  0.00  0.00     0.086 C 
ATOM      9  C3  SKF d          27.496  42.304  14.562  0.00  0.00    -0.018 C 
ATOM     10  N1  SKF d          28.055  44.263  13.293  0.00  0.00    -0.071 N 
ATOM     11  H1  SKF d          27.174  41.405  17.094  0.00  0.00     0.084 H 
ATOM     12  H2  SKF d          28.005  42.474  19.164  0.00  0.00     0.085 H 
ATOM     13  H3  SKF d          29.166  45.931  16.898  0.00  0.00     0.086 H 
ATOM     14  H6  SKF d          29.293  45.574  14.382  0.00  0.00     0.083 H 
ATOM     15  H7  SKF d          27.530  45.891  14.523  0.00  0.00     0.083 H 
ATOM     16  H8  SKF d          26.056  43.729  13.820  0.00  0.00     0.076 H 
ATOM     17  H9  SKF d          26.805  42.697  12.556  0.00  0.00     0.076 H 
ATOM     18  H10 SKF d          26.758  41.505  14.727  0.00  0.00     0.042 H 
ATOM     19  H11 SKF d          28.449  41.861  14.239  0.00  0.00     0.042 H 
ATOM     20  H12 SKF d          28.911  43.784  13.059  0.00  0.00     0.277 HD
ATOM     21  H13 SKF d          27.786  44.862  12.529  0.00  0.00     0.277 HD
ENDROOT
BRANCH   3  22
ATOM     22  S   SKF d          29.244  45.045  19.624  0.00  0.00     0.256 S 
ATOM     23  O1  SKF d          29.116  46.484  19.543  0.00  0.00    -0.201 OA
ATOM     24  O2  SKF d          30.617  44.712  19.900  0.00  0.00    -0.201 OA
BRANCH  22  25
ATOM     25  N   SKF d          28.353  44.519  20.814  0.00  0.00    -0.324 N 
ATOM     26  H4  SKF d          27.362  44.454  20.706  0.00  0.00     0.169 HD
ATOM     27  H5  SKF d          28.781  44.249  21.676  0.00  0.00     0.169 HD
ENDBRANCH  22  25
ENDBRANCH   3  22
TORSDOF 2
ENDMDL
MODEL 3
REMARK VINA RESULT:      -7.2      1.030      2.007
REMARK  2 active torsions:
REMARK  status: ('A' for Active; 'I' for Inactive)
REMARK    1  A    between atoms: C6_3  and  S_5 
REMARK    2  A    between atoms: S_5  and  N_10 
ROOT
ATOM      1  C4  SKF d          27.903  42.465  18.036  0.00  0.00    -0.075 A 
ATOM      2  C5  SKF d          27.641  42.298  16.683  0.00  0.00    -0.060 A 
ATOM      3  C6  SKF d          27.897  43.351  15.796  0.00  0.00     0.080 A 
ATOM      4  C7  SKF d          28.409  44.552  16.270  0.00  0.00    -0.052 A 
ATOM      5  C8  SKF d          28.667  44.717  17.618  0.00  0.00    -0.025 A 
ATOM      6  C9  SKF d          28.414  43.667  18.509  0.00  0.00    -0.049 A 
ATOM      7  C1  SKF d          29.296  45.998  18.104  0.00  0.00     0.106 C 
ATOM      8  C2  SKF d          29.525  44.900  20.323  0.00  0.00     0.086 C 
ATOM      9  C3  SKF d          28.399  43.949  19.980  0.00  0.00    -0.018 C 
ATOM     10  N1  SKF d          29.249  46.157  19.576  0.00  0.00    -0.071 N 
ATOM     11  H1  SKF d          27.708  41.652  18.727  0.00  0.00     0.084 H 
ATOM     12  H2  SKF d          27.242  41.360  16.315  0.00  0.00     0.085 H 
ATOM     13  H3  SKF d          28.606  45.364  15.580  0.00  0.00     0.086 H 
ATOM     14  H6  SKF d          28.763  46.843  17.644  0.00  0.00     0.083 H 
ATOM     15  H7  SKF d          30.349  46.011  17.785  0.00  0.00     0.083 H 
ATOM     16  H8  SKF d          30.491  44.476  20.013  0.00  0.00     0.076 H 
ATOM     17  H9  SKF d          29.542  45.097  21.406  0.00  0.00     0.076 H 
ATOM     18  H10 SKF d          28.532  43.009  20.534  0.00  0.00     0.042 H 
ATOM     19  H11 SKF d          27.437  44.405  20.255  0.00  0.00     0.042 H 
ATOM     20  H12 SKF d          28.331  46.485  19.832  0.00  0.00     0.277 HD
ATOM     21  H13 SKF d          29.937  46.844  19.843  0.00  0.00     0.277 HD
ENDROOT
BRANCH   3  22
ATOM     22  S   SKF d          27.562  43.158  14.075  0.00  0.00     0.256 S 
ATOM     23  O1  SKF d          26.159  43.372  13.793  0.00  0.00    -0.201 OA
ATOM     24  O2  SKF d          27.946  41.862  13.578  0.00  0.00    -0.201 OA
BRANCH  22  25
ATOM     25  N   SKF d          28.408  44.254  13.320  0.00  0.00    -0.324 N 
ATOM     26  H4  SKF d          27.958  45.068  12.954  0.00  0.00     0.169 HD
ATOM     27  H5  SKF d          29.393  44.134  13.209  0.00  0.00     0.169 HD
ENDBRANCH  22  25
ENDBRANCH   3  22
TORSDOF 2
ENDMDL
MODEL 4
REMARK VINA RESULT:      -6.7      3.505      5.168
REMARK  2 active torsions:
REMARK  status: ('A' for Active; 'I' for Inactive)
REMARK    1  A    between atoms: C6_3  and  S_5 
REMARK    2  A    between atoms: S_5  and  N_10 
ROOT
ATOM      1  C4  SKF d          28.718  46.149  16.200  0.00  0.00    -0.075 A 
ATOM      2  C5  SKF d          29.009  46.132  17.557  0.00  0.00    -0.060 A 
ATOM      3  C6  SKF d          28.839  44.949  18.285  0.00  0.00     0.080 A 
ATOM      4  C7  SKF d          28.382  43.801  17.650  0.00  0.00    -0.052 A 
ATOM      5  C8  SKF d          28.090  43.820  16.299  0.00  0.00    -0.025 A 
ATOM      6  C9  SKF d          28.259  45.000  15.567  0.00  0.00    -0.049 A 
ATOM      7  C1  SKF d          27.671  42.546  15.611  0.00  0.00     0.106 C 
ATOM      8  C2  SKF d          27.848  43.791  13.466  0.00  0.00     0.086 C 
ATOM      9  C3  SKF d          27.656  45.101  14.199  0.00  0.00    -0.018 C 
ATOM     10  N1  SKF d          27.116  42.763  14.254  0.00  0.00    -0.071 N 
ATOM     11  H1  SKF d          28.848  47.063  15.631  0.00  0.00     0.084 H 
ATOM     12  H2  SKF d          29.366  47.029  18.050  0.00  0.00     0.085 H 
ATOM     13  H3  SKF d          28.254  42.886  18.217  0.00  0.00     0.086 H 
ATOM     14  H6  SKF d          26.904  42.054  16.226  0.00  0.00     0.083 H 
ATOM     15  H7  SKF d          28.550  41.890  15.526  0.00  0.00     0.083 H 
ATOM     16  H8  SKF d          28.917  43.538  13.408  0.00  0.00     0.076 H 
ATOM     17  H9  SKF d          27.432  43.859  12.449  0.00  0.00     0.076 H 
ATOM     18  H10 SKF d          28.149  45.909  13.640  0.00  0.00     0.042 H 
ATOM     19  H11 SKF d          26.582  45.318  14.288  0.00  0.00     0.042 H 
ATOM     20  H12 SKF d          26.156  43.056  14.346  0.00  0.00     0.277 HD
ATOM     21  H13 SKF d          27.154  41.890  13.751  0.00  0.00     0.277 HD
ENDROOT
BRANCH   3  22
ATOM     22  S   SKF d          29.198  44.913  20.012  0.00  0.00     0.256 S 
ATOM     23  O1  SKF d          27.986  44.759  20.789  0.00  0.00    -0.201 OA
ATOM     24  O2  SKF d          29.893  46.093  20.458  0.00  0.00    -0.201 OA
BRANCH  22  25
ATOM     25  N   SKF d          30.126  43.663  20.259  0.00  0.00    -0.324 N 
ATOM     26  H4  SKF d          30.539  43.186  19.483  0.00  0.00     0.169 HD
ATOM     27  H5  SKF d          30.301  43.348  21.191  0.00  0.00     0.169 HD
ENDBRANCH  22  25
ENDBRANCH   3  22
TORSDOF 2
ENDMDL
MODEL 5
REMARK VINA RESULT:      -6.5      3.469      5.188
REMARK  2 active torsions:
REMARK  status: ('A' for Active; 'I' for Inactive)
REMARK    1  A    between atoms: C6_3  and  S_5 
REMARK    2  A    between atoms: S_5  and  N_10 
ROOT
ATOM      1  C4  SKF d          28.691  46.169  16.179  0.00  0.00    -0.075 A 
ATOM      2  C5  SKF d          28.966  46.214  17.539  0.00  0.00    -0.060 A 
ATOM      3  C6  SKF d          28.819  45.057  18.312  0.00  0.00     0.080 A 
ATOM      4  C7  SKF d          28.401  43.872  17.719  0.00  0.00    -0.052 A 
ATOM      5  C8  SKF d          28.126  43.829  16.366  0.00  0.00    -0.025 A 
ATOM      6  C9  SKF d          28.272  44.983  15.587  0.00  0.00    -0.049 A 
ATOM      7  C1  SKF d          27.750  42.517  15.724  0.00  0.00     0.106 C 
ATOM      8  C2  SKF d          27.919  43.679  13.533  0.00  0.00     0.086 C 
ATOM      9  C3  SKF d          27.683  45.012  14.211  0.00  0.00    -0.018 C 
ATOM     10  N1  SKF d          27.206  42.664  14.354  0.00  0.00    -0.071 N 
ATOM     11  H1  SKF d          28.804  47.062  15.575  0.00  0.00     0.084 H 
ATOM     12  H2  SKF d          29.292  47.140  17.999  0.00  0.00     0.085 H 
ATOM     13  H3  SKF d          28.291  42.978  18.321  0.00  0.00     0.086 H 
ATOM     14  H6  SKF d          26.989  42.029  16.351  0.00  0.00     0.083 H 
ATOM     15  H7  SKF d          28.648  41.883  15.677  0.00  0.00     0.083 H 
ATOM     16  H8  SKF d          28.995  43.454  13.498  0.00  0.00     0.076 H 
ATOM     17  H9  SKF d          27.514  43.695  12.510  0.00  0.00     0.076 H 
ATOM     18  H10 SKF d          28.161  45.810  13.625  0.00  0.00     0.042 H 
ATOM     19  H11 SKF d          26.602  45.203  14.278  0.00  0.00     0.042 H 
ATOM     20  H12 SKF d          26.238  42.933  14.423  0.00  0.00     0.277 HD
ATOM     21  H13 SKF d          27.274  41.773  13.888  0.00  0.00     0.277 HD
ENDROOT
BRANCH   3  22
ATOM     22  S   SKF d          29.157  45.101  20.043  0.00  0.00     0.256 S 
ATOM     23  O1  SKF d          30.197  44.158  20.391  0.00  0.00    -0.201 OA
ATOM     24  O2  SKF d          27.991  44.826  20.842  0.00  0.00    -0.201 OA
BRANCH  22  25
ATOM     25  N   SKF d          29.657  46.559  20.373  0.00  0.00    -0.324 N 
ATOM     26  H4  SKF d          29.390  47.324  19.786  0.00  0.00     0.169 HD
ATOM     27  H5  SKF d          30.240  46.719  21.168  0.00  0.00     0.169 HD
ENDBRANCH  22  25
ENDBRANCH   3  22
TORSDOF 2
ENDMDL
