MODEL 1
REMARK VINA RESULT:      -7.4      0.000      0.000
REMARK  7 active torsions:
REMARK  status: ('A' for Active; 'I' for Inactive)
REMARK    1  A    between atoms: CAB_1  and  N3_2 
REMARK    2  A    between atoms: N1_5  and  CAA_6 
REMARK    3  A    between atoms: N7_13  and  CAI_14 
REMARK    4  A    between atoms: CAI_14  and  CAO_15 
REMARK    5  A    between atoms: CAO_15  and  OAF_16 
REMARK    6  A    between atoms: CAO_15  and  CAH_17 
REMARK    7  A    between atoms: CAH_17  and  OAE_18 
ROOT
ATOM      1  N3  X0T d          35.025  45.760  22.082  0.00  0.00    -0.286 N 
ATOM      2  C2  X0T d          36.130  44.917  22.157  0.00  0.00     0.332 A 
ATOM      3  O2  X0T d          37.250  45.436  22.169  0.00  0.00    -0.246 OA
ATOM      4  N1  X0T d          35.964  43.502  22.206  0.00  0.00    -0.269 N 
ATOM      5  C6  X0T d          34.672  42.949  22.184  0.00  0.00     0.282 A 
ATOM      6  O6  X0T d          34.504  41.720  22.233  0.00  0.00    -0.265 OA
ATOM      7  C5  X0T d          33.572  43.818  22.110  0.00  0.00     0.151 A 
ATOM      8  C4  X0T d          33.738  45.200  22.060  0.00  0.00     0.167 A 
ATOM      9  N9  X0T d          32.525  45.765  22.005  0.00  0.00    -0.223 NA
ATOM     10  C8  X0T d          31.612  44.784  22.029  0.00  0.00     0.069 A 
ATOM     11  N7  X0T d          32.257  43.621  22.090  0.00  0.00    -0.331 N 
ATOM     12  H7  X0T d          30.531  44.916  22.004  0.00  0.00     0.143 H 
ENDROOT
BRANCH  11  13
ATOM     13  CAI X0T d          31.651  42.283  22.129  0.00  0.00     0.027 C 
ATOM     14  H8  X0T d          32.204  41.678  22.863  0.00  0.00     0.069 H 
ATOM     15  H9  X0T d          31.752  41.831  21.131  0.00  0.00     0.069 H 
BRANCH  13  16
ATOM     16  CAO X0T d          30.191  42.263  22.508  0.00  0.00     0.071 C 
ATOM     17  H10 X0T d          29.677  43.148  22.103  0.00  0.00     0.088 H 
BRANCH  16  18
ATOM     18  OAF X0T d          30.072  42.240  23.931  0.00  0.00    -0.392 OA
ATOM     19  H11 X0T d          29.963  43.127  24.252  0.00  0.00     0.210 HD
ENDBRANCH  16  18
BRANCH  16  20
ATOM     20  CAH X0T d          29.592  40.988  21.925  0.00  0.00     0.042 C 
ATOM     21  H12 X0T d          29.673  40.168  22.653  0.00  0.00     0.077 H 
ATOM     22  H13 X0T d          30.123  40.712  21.001  0.00  0.00     0.077 H 
BRANCH  20  23
ATOM     23  OAE X0T d          28.233  41.245  21.639  0.00  0.00    -0.398 OA
ATOM     24  H14 X0T d          27.967  42.049  22.071  0.00  0.00     0.209 HD
ENDBRANCH  20  23
ENDBRANCH  16  20
ENDBRANCH  13  16
ENDBRANCH  11  13
BRANCH   4  25
ATOM     25  CAA X0T d          37.152  42.618  22.303  0.00  0.00    -0.007 C 
ATOM     26  H4  X0T d          37.910  42.942  21.576  0.00  0.00     0.057 H 
ATOM     27  H5  X0T d          36.855  41.581  22.087  0.00  0.00     0.057 H 
ATOM     28  H6  X0T d          37.569  42.676  23.319  0.00  0.00     0.057 H 
ENDBRANCH   4  25
BRANCH   1  29
ATOM     29  CAB X0T d          35.199  47.248  22.015  0.00  0.00    -0.008 C 
ATOM     30  H1  X0T d          34.380  47.738  22.561  0.00  0.00     0.057 H 
ATOM     31  H2  X0T d          35.185  47.572  20.964  0.00  0.00     0.057 H 
ATOM     32  H3  X0T d          36.161  47.526  22.471  0.00  0.00     0.057 H 
ENDBRANCH   1  29
TORSDOF 7
ENDMDL
MODEL 2
REMARK VINA RESULT:      -6.8      1.610      2.997
REMARK  7 active torsions:
REMARK  status: ('A' for Active; 'I' for Inactive)
REMARK    1  A    between atoms: CAB_1  and  N3_2 
REMARK    2  A    between atoms: N1_5  and  CAA_6 
REMARK    3  A    between atoms: N7_13  and  CAI_14 
REMARK    4  A    between atoms: CAI_14  and  CAO_15 
REMARK    5  A    between atoms: CAO_15  and  OAF_16 
REMARK    6  A    between atoms: CAO_15  and  CAH_17 
REMARK    7  A    between atoms: CAH_17  and  OAE_18 
ROOT
ATOM      1  N3  X0T d          36.138  43.505  22.218  0.00  0.00    -0.286 N 
ATOM      2  C2  X0T d          36.385  44.874  22.250  0.00  0.00     0.332 A 
ATOM      3  O2  X0T d          37.549  45.246  22.417  0.00  0.00    -0.246 OA
ATOM      4  N1  X0T d          35.318  45.808  22.108  0.00  0.00    -0.269 N 
ATOM      5  C6  X0T d          34.002  45.345  21.926  0.00  0.00     0.282 A 
ATOM      6  O6  X0T d          33.059  46.141  21.793  0.00  0.00    -0.265 OA
ATOM      7  C5  X0T d          33.778  43.961  21.895  0.00  0.00     0.151 A 
ATOM      8  C4  X0T d          34.823  43.050  22.036  0.00  0.00     0.167 A 
ATOM      9  N9  X0T d          34.314  41.814  21.954  0.00  0.00    -0.223 NA
ATOM     10  C8  X0T d          32.993  41.924  21.757  0.00  0.00     0.069 A 
ATOM     11  N7  X0T d          32.687  43.220  21.726  0.00  0.00    -0.331 N 
ATOM     12  H7  X0T d          32.292  41.098  21.642  0.00  0.00     0.143 H 
ENDROOT
BRANCH  11  13
ATOM     13  CAI X0T d          31.351  43.801  21.537  0.00  0.00     0.027 C 
ATOM     14  H8  X0T d          31.250  44.094  20.481  0.00  0.00     0.069 H 
ATOM     15  H9  X0T d          31.272  44.694  22.175  0.00  0.00     0.069 H 
BRANCH  13  16
ATOM     16  CAO X0T d          30.208  42.877  21.879  0.00  0.00     0.071 C 
ATOM     17  H10 X0T d          30.377  41.879  21.448  0.00  0.00     0.088 H 
BRANCH  16  18
ATOM     18  OAF X0T d          28.990  43.425  21.374  0.00  0.00    -0.392 OA
ATOM     19  H11 X0T d          28.261  42.884  21.653  0.00  0.00     0.210 HD
ENDBRANCH  16  18
BRANCH  16  20
ATOM     20  CAH X0T d          30.138  42.794  23.400  0.00  0.00     0.042 C 
ATOM     21  H12 X0T d          31.033  42.287  23.790  0.00  0.00     0.077 H 
ATOM     22  H13 X0T d          29.239  42.237  23.705  0.00  0.00     0.077 H 
BRANCH  20  23
ATOM     23  OAE X0T d          30.078  44.114  23.898  0.00  0.00    -0.398 OA
ATOM     24  H14 X0T d          29.502  44.141  24.654  0.00  0.00     0.209 HD
ENDBRANCH  20  23
ENDBRANCH  16  20
ENDBRANCH  13  16
ENDBRANCH  11  13
BRANCH   4  25
ATOM     25  CAA X0T d          35.599  47.265  22.128  0.00  0.00    -0.007 C 
ATOM     26  H4  X0T d          35.114  47.743  21.264  0.00  0.00     0.057 H 
ATOM     27  H5  X0T d          36.686  47.430  22.077  0.00  0.00     0.057 H 
ATOM     28  H6  X0T d          35.205  47.702  23.058  0.00  0.00     0.057 H 
ENDBRANCH   4  25
BRANCH   1  29
ATOM     29  CAB X0T d          37.258  42.520  22.383  0.00  0.00    -0.008 C 
ATOM     30  H1  X0T d          37.674  42.269  21.396  0.00  0.00     0.057 H 
ATOM     31  H2  X0T d          36.876  41.608  22.863  0.00  0.00     0.057 H 
ATOM     32  H3  X0T d          38.046  42.963  23.011  0.00  0.00     0.057 H 
ENDBRANCH   1  29
TORSDOF 7
ENDMDL
MODEL 3
REMARK VINA RESULT:      -6.0      0.965      1.456
REMARK  7 active torsions:
REMARK  status: ('A' for Active; 'I' for Inactive)
REMARK    1  A    between atoms: CAB_1  and  N3_2 
REMARK    2  A    between atoms: N1_5  and  CAA_6 
REMARK    3  A    between atoms: N7_13  and  CAI_14 
REMARK    4  A    between atoms: CAI_14  and  CAO_15 
REMARK    5  A    between atoms: CAO_15  and  OAF_16 
REMARK    6  A    between atoms: CAO_15  and  CAH_17 
REMARK    7  A    between atoms: CAH_17  and  OAE_18 
ROOT
ATOM      1  N3  X0T d          35.275  45.810  21.962  0.00  0.00    -0.286 N 
ATOM      2  C2  X0T d          36.215  44.812  22.199  0.00  0.00     0.332 A 
ATOM      3  O2  X0T d          37.370  45.159  22.460  0.00  0.00    -0.246 OA
ATOM      4  N1  X0T d          35.849  43.436  22.126  0.00  0.00    -0.269 N 
ATOM      5  C6  X0T d          34.523  43.081  21.820  0.00  0.00     0.282 A 
ATOM      6  O6  X0T d          34.181  41.890  21.759  0.00  0.00    -0.265 OA
ATOM      7  C5  X0T d          33.592  44.104  21.586  0.00  0.00     0.151 A 
ATOM      8  C4  X0T d          33.954  45.448  21.656  0.00  0.00     0.167 A 
ATOM      9  N9  X0T d          32.867  46.187  21.401  0.00  0.00    -0.223 NA
ATOM     10  C8  X0T d          31.841  45.352  21.186  0.00  0.00     0.069 A 
ATOM     11  N7  X0T d          32.294  44.105  21.299  0.00  0.00    -0.331 N 
ATOM     12  H7  X0T d          30.816  45.642  20.959  0.00  0.00     0.143 H 
ENDROOT
BRANCH  11  13
ATOM     13  CAI X0T d          31.514  42.870  21.137  0.00  0.00     0.027 C 
ATOM     14  H8  X0T d          32.212  42.049  20.918  0.00  0.00     0.069 H 
ATOM     15  H9  X0T d          30.830  43.006  20.286  0.00  0.00     0.069 H 
BRANCH  13  16
ATOM     16  CAO X0T d          30.693  42.481  22.342  0.00  0.00     0.071 C 
ATOM     17  H10 X0T d          30.807  41.407  22.555  0.00  0.00     0.088 H 
BRANCH  16  18
ATOM     18  OAF X0T d          29.319  42.784  22.096  0.00  0.00    -0.392 OA
ATOM     19  H11 X0T d          29.124  43.651  22.429  0.00  0.00     0.210 HD
ENDBRANCH  16  18
BRANCH  16  20
ATOM     20  CAH X0T d          31.197  43.313  23.517  0.00  0.00     0.042 C 
ATOM     21  H12 X0T d          32.055  43.924  23.202  0.00  0.00     0.077 H 
ATOM     22  H13 X0T d          31.500  42.652  24.342  0.00  0.00     0.077 H 
BRANCH  20  23
ATOM     23  OAE X0T d          30.138  44.149  23.934  0.00  0.00    -0.398 OA
ATOM     24  H14 X0T d          30.092  44.908  23.363  0.00  0.00     0.209 HD
ENDBRANCH  20  23
ENDBRANCH  16  20
ENDBRANCH  13  16
ENDBRANCH  11  13
BRANCH   4  25
ATOM     25  CAA X0T d          36.859  42.383  22.398  0.00  0.00    -0.007 C 
ATOM     26  H4  X0T d          37.298  42.044  21.449  0.00  0.00     0.057 H 
ATOM     27  H5  X0T d          36.375  41.534  22.903  0.00  0.00     0.057 H 
ATOM     28  H6  X0T d          37.650  42.792  23.043  0.00  0.00     0.057 H 
ENDBRANCH   4  25
BRANCH   1  29
ATOM     29  CAB X0T d          35.663  47.258  22.023  0.00  0.00    -0.008 C 
ATOM     30  H1  X0T d          35.112  47.751  22.836  0.00  0.00     0.057 H 
ATOM     31  H2  X0T d          35.417  47.744  21.067  0.00  0.00     0.057 H 
ATOM     32  H3  X0T d          36.744  47.341  22.209  0.00  0.00     0.057 H 
ENDBRANCH   1  29
TORSDOF 7
ENDMDL
