MODEL 1
REMARK VINA RESULT:      -0.9      0.000      0.000
REMARK  11 active torsions:
REMARK  status: ('A' for Active; 'I' for Inactive)
REMARK    1  A    between atoms: C24_1  and  C23_2 
REMARK       I    between atoms: C23_2  and  N22_4 
REMARK    2  A    between atoms: N22_4  and  C19_5 
REMARK    3  A    between atoms: C16_10  and  O14_11 
REMARK    4  A    between atoms: O14_11  and  C13_12 
REMARK    5  A    between atoms: C13_12  and  C11_13 
REMARK    6  A    between atoms: C11_13  and  O11_14 
REMARK    7  A    between atoms: C11_13  and  C12_15 
REMARK    8  A    between atoms: C11_13  and  C10_16 
REMARK       I    between atoms: C10_16  and  N9_18 
REMARK    9  A    between atoms: N9_18  and  C6_19 
REMARK   10  A    between atoms: C3_23  and  N8_24 
REMARK   11  A    between atoms: C4_27  and  C7_28 
ROOT
ATOM      1  C11 B68 d          26.176   4.604   3.921  0.00  0.00     0.156 C 
ENDROOT
BRANCH   1   2
ATOM      2  C13 B68 d          25.861   3.811   2.662  0.00  0.00     0.063 C 
ATOM      3  H9  B68 d          25.157   4.383   2.038  0.00  0.00     0.080 H 
ATOM      4  H10 B68 d          26.790   3.635   2.100  0.00  0.00     0.080 H 
BRANCH   2   5
ATOM      5  O14 B68 d          25.270   2.548   3.010  0.00  0.00    -0.348 OA
BRANCH   5   6
ATOM      6  C16 B68 d          26.204   1.567   3.142  0.00  0.00     0.069 A 
ATOM      7  C17 B68 d          26.006   0.516   4.032  0.00  0.00    -0.049 A 
ATOM      8  C18 B68 d          26.943  -0.510   4.124  0.00  0.00    -0.054 A 
ATOM      9  H6  B68 d          25.119   0.495   4.655  0.00  0.00     0.087 H 
ATOM     10  C19 B68 d          28.085  -0.497   3.325  0.00  0.00     0.034 A 
ATOM     11  H5  B68 d          26.783  -1.324   4.821  0.00  0.00     0.087 H 
ATOM     12  C20 B68 d          28.277   0.554   2.434  0.00  0.00    -0.054 A 
ATOM     13  C21 B68 d          27.343   1.583   2.341  0.00  0.00    -0.049 A 
ATOM     14  H7  B68 d          29.161   0.573   1.806  0.00  0.00     0.087 H 
ATOM     15  H8  B68 d          27.504   2.397   1.644  0.00  0.00     0.087 H 
BRANCH  10  16
ATOM     16  N22 B68 d          29.015  -1.450   3.398  0.00  0.00    -0.328 N 
ATOM     17  C23 B68 d          30.256  -1.340   2.926  0.00  0.00     0.218 C 
ATOM     18  O23 B68 d          30.716  -0.331   2.393  0.00  0.00    -0.274 OA
ATOM     19  H4  B68 d          28.763  -2.310   3.839  0.00  0.00     0.169 HD
BRANCH  17  20
ATOM     20  C24 B68 d          31.126  -2.583   3.123  0.00  0.00    -0.003 C 
ATOM     21  H1  B68 d          30.902  -3.317   2.335  0.00  0.00     0.040 H 
ATOM     22  H2  B68 d          30.916  -3.026   4.107  0.00  0.00     0.040 H 
ATOM     23  H3  B68 d          32.188  -2.300   3.067  0.00  0.00     0.040 H 
ENDBRANCH  17  20
ENDBRANCH  10  16
ENDBRANCH   5   6
ENDBRANCH   2   5
ENDBRANCH   1   2
BRANCH   1  24
ATOM     24  O11 B68 d          26.526   5.944   3.562  0.00  0.00    -0.378 OA
ATOM     25  H11 B68 d          25.887   6.544   3.927  0.00  0.00     0.211 HD
ENDBRANCH   1  24
BRANCH   1  26
ATOM     26  C12 B68 d          24.957   4.604   4.844  0.00  0.00    -0.037 C 
ATOM     27  H12 B68 d          24.562   5.626   4.931  0.00  0.00     0.032 H 
ATOM     28  H13 B68 d          25.250   4.238   5.838  0.00  0.00     0.032 H 
ATOM     29  H14 B68 d          24.181   3.946   4.425  0.00  0.00     0.032 H 
ENDBRANCH   1  26
BRANCH   1  30
ATOM     30  C10 B68 d          27.367   3.948   4.621  0.00  0.00     0.258 C 
ATOM     31  O10 B68 d          28.513   4.148   4.220  0.00  0.00    -0.270 OA
ATOM     32  N9  B68 d          27.045   3.202   5.676  0.00  0.00    -0.325 N 
ATOM     33  H15 B68 d          26.076   3.134   5.910  0.00  0.00     0.169 HD
BRANCH  32  34
ATOM     34  C6  B68 d          27.908   2.538   6.445  0.00  0.00     0.035 A 
ATOM     35  C5  B68 d          28.921   1.732   5.930  0.00  0.00    -0.040 A 
ATOM     36  C4  B68 d          29.853   1.079   6.737  0.00  0.00     0.083 A 
ATOM     37  H16 B68 d          28.988   1.607   4.855  0.00  0.00     0.088 H 
ATOM     38  C3  B68 d          29.756   1.260   8.121  0.00  0.00     0.118 A 
ATOM     39  C2  B68 d          28.736   2.050   8.646  0.00  0.00    -0.048 A 
ATOM     40  C1  B68 d          27.814   2.689   7.823  0.00  0.00    -0.055 A 
ATOM     41  H18 B68 d          28.659   2.169   9.720  0.00  0.00     0.087 H 
ATOM     42  H17 B68 d          27.030   3.300   8.254  0.00  0.00     0.087 H 
BRANCH  36  43
ATOM     43  C7  B68 d          30.908   0.180   6.065  0.00  0.00     0.419 C 
ATOM     44  F2  B68 d          30.363  -0.967   5.670  0.00  0.00    -0.166 F 
ATOM     45  F1  B68 d          31.482   0.750   5.009  0.00  0.00    -0.166 F 
ATOM     46  F3  B68 d          31.898  -0.132   6.896  0.00  0.00    -0.166 F 
ENDBRANCH  36  43
BRANCH  38  47
ATOM     47  N8  B68 d          30.605   0.736   9.006  0.00  0.00    -0.115 N 
ATOM     48  O1  B68 d          30.480  -0.584   9.514  0.00  0.00    -0.532 OA
ATOM     49  O2  B68 d          31.752   1.478   9.395  0.00  0.00    -0.532 OA
ENDBRANCH  38  47
ENDBRANCH  32  34
ENDBRANCH   1  30
TORSDOF 11
ENDMDL
MODEL 2
REMARK VINA RESULT:      -0.2      2.951      6.044
REMARK  11 active torsions:
REMARK  status: ('A' for Active; 'I' for Inactive)
REMARK    1  A    between atoms: C24_1  and  C23_2 
REMARK       I    between atoms: C23_2  and  N22_4 
REMARK    2  A    between atoms: N22_4  and  C19_5 
REMARK    3  A    between atoms: C16_10  and  O14_11 
REMARK    4  A    between atoms: O14_11  and  C13_12 
REMARK    5  A    between atoms: C13_12  and  C11_13 
REMARK    6  A    between atoms: C11_13  and  O11_14 
REMARK    7  A    between atoms: C11_13  and  C12_15 
REMARK    8  A    between atoms: C11_13  and  C10_16 
REMARK       I    between atoms: C10_16  and  N9_18 
REMARK    9  A    between atoms: N9_18  and  C6_19 
REMARK   10  A    between atoms: C3_23  and  N8_24 
REMARK   11  A    between atoms: C4_27  and  C7_28 
ROOT
ATOM      1  C11 B68 d          30.115   0.781   7.533  0.00  0.00     0.156 C 
ENDROOT
BRANCH   1   2
ATOM      2  C13 B68 d          31.037   0.694   6.327  0.00  0.00     0.063 C 
ATOM      3  H9  B68 d          30.918   1.600   5.712  0.00  0.00     0.080 H 
ATOM      4  H10 B68 d          32.079   0.619   6.670  0.00  0.00     0.080 H 
BRANCH   2   5
ATOM      5  O14 B68 d          30.712  -0.462   5.538  0.00  0.00    -0.348 OA
BRANCH   5   6
ATOM      6  C16 B68 d          29.826  -0.170   4.547  0.00  0.00     0.069 A 
ATOM      7  C17 B68 d          28.574  -0.776   4.516  0.00  0.00    -0.049 A 
ATOM      8  C18 B68 d          27.655  -0.434   3.527  0.00  0.00    -0.054 A 
ATOM      9  H6  B68 d          28.313  -1.518   5.262  0.00  0.00     0.087 H 
ATOM     10  C19 B68 d          27.976   0.520   2.564  0.00  0.00     0.034 A 
ATOM     11  H5  B68 d          26.683  -0.913   3.508  0.00  0.00     0.087 H 
ATOM     12  C20 B68 d          29.227   1.127   2.602  0.00  0.00    -0.054 A 
ATOM     13  C21 B68 d          30.150   0.786   3.587  0.00  0.00    -0.049 A 
ATOM     14  H7  B68 d          29.486   1.873   1.858  0.00  0.00     0.087 H 
ATOM     15  H8  B68 d          31.122   1.265   3.607  0.00  0.00     0.087 H 
BRANCH  10  16
ATOM     16  N22 B68 d          27.131   0.861   1.590  0.00  0.00    -0.328 N 
ATOM     17  C23 B68 d          25.912   1.362   1.780  0.00  0.00     0.218 C 
ATOM     18  O23 B68 d          25.421   1.611   2.880  0.00  0.00    -0.274 OA
ATOM     19  H4  B68 d          27.435   0.730   0.646  0.00  0.00     0.169 HD
BRANCH  17  20
ATOM     20  C24 B68 d          25.135   1.658   0.495  0.00  0.00    -0.003 C 
ATOM     21  H1  B68 d          24.067   1.773   0.731  0.00  0.00     0.040 H 
ATOM     22  H2  B68 d          25.267   0.827  -0.213  0.00  0.00     0.040 H 
ATOM     23  H3  B68 d          25.513   2.588   0.044  0.00  0.00     0.040 H 
ENDBRANCH  17  20
ENDBRANCH  10  16
ENDBRANCH   5   6
ENDBRANCH   2   5
ENDBRANCH   1   2
BRANCH   1  24
ATOM     24  O11 B68 d          29.471  -0.481   7.729  0.00  0.00    -0.378 OA
ATOM     25  H11 B68 d          28.579  -0.433   7.408  0.00  0.00     0.211 HD
ENDBRANCH   1  24
BRANCH   1  26
ATOM     26  C12 B68 d          30.928   1.158   8.772  0.00  0.00    -0.037 C 
ATOM     27  H12 B68 d          30.248   1.339   9.617  0.00  0.00     0.032 H 
ATOM     28  H13 B68 d          31.508   2.070   8.567  0.00  0.00     0.032 H 
ATOM     29  H14 B68 d          31.615   0.337   9.024  0.00  0.00     0.032 H 
ENDBRANCH   1  26
BRANCH   1  30
ATOM     30  C10 B68 d          29.053   1.845   7.255  0.00  0.00     0.258 C 
ATOM     31  O10 B68 d          28.661   2.584   8.157  0.00  0.00    -0.270 OA
ATOM     32  N9  B68 d          28.644   1.901   5.989  0.00  0.00    -0.325 N 
ATOM     33  H15 B68 d          29.054   1.254   5.347  0.00  0.00     0.169 HD
BRANCH  32  34
ATOM     34  C6  B68 d          27.733   2.747   5.507  0.00  0.00     0.035 A 
ATOM     35  C5  B68 d          28.037   3.740   4.577  0.00  0.00    -0.040 A 
ATOM     36  C4  B68 d          27.072   4.590   4.036  0.00  0.00     0.083 A 
ATOM     37  H16 B68 d          29.067   3.856   4.260  0.00  0.00     0.088 H 
ATOM     38  C3  B68 d          25.746   4.418   4.450  0.00  0.00     0.118 A 
ATOM     39  C2  B68 d          25.437   3.439   5.392  0.00  0.00    -0.048 A 
ATOM     40  C1  B68 d          26.415   2.604   5.922  0.00  0.00    -0.055 A 
ATOM     41  H18 B68 d          24.410   3.325   5.719  0.00  0.00     0.087 H 
ATOM     42  H17 B68 d          26.151   1.848   6.652  0.00  0.00     0.087 H 
BRANCH  36  43
ATOM     43  C7  B68 d          27.523   5.681   3.046  0.00  0.00     0.419 C 
ATOM     44  F2  B68 d          27.873   6.787   3.695  0.00  0.00    -0.166 F 
ATOM     45  F1  B68 d          28.549   5.304   2.288  0.00  0.00    -0.166 F 
ATOM     46  F3  B68 d          26.550   6.021   2.205  0.00  0.00    -0.166 F 
ENDBRANCH  36  43
BRANCH  38  47
ATOM     47  N8  B68 d          24.718   5.126   3.982  0.00  0.00    -0.115 N 
ATOM     48  O1  B68 d          24.549   6.512   4.239  0.00  0.00    -0.532 OA
ATOM     49  O2  B68 d          23.791   4.509   3.100  0.00  0.00    -0.532 OA
ENDBRANCH  38  47
ENDBRANCH  32  34
ENDBRANCH   1  30
TORSDOF 11
ENDMDL
MODEL 3
REMARK VINA RESULT:       1.8      1.766      2.316
REMARK  11 active torsions:
REMARK  status: ('A' for Active; 'I' for Inactive)
REMARK    1  A    between atoms: C24_1  and  C23_2 
REMARK       I    between atoms: C23_2  and  N22_4 
REMARK    2  A    between atoms: N22_4  and  C19_5 
REMARK    3  A    between atoms: C16_10  and  O14_11 
REMARK    4  A    between atoms: O14_11  and  C13_12 
REMARK    5  A    between atoms: C13_12  and  C11_13 
REMARK    6  A    between atoms: C11_13  and  O11_14 
REMARK    7  A    between atoms: C11_13  and  C12_15 
REMARK    8  A    between atoms: C11_13  and  C10_16 
REMARK       I    between atoms: C10_16  and  N9_18 
REMARK    9  A    between atoms: N9_18  and  C6_19 
REMARK   10  A    between atoms: C3_23  and  N8_24 
REMARK   11  A    between atoms: C4_27  and  C7_28 
ROOT
ATOM      1  C11 B68 d          26.141   4.523   3.869  0.00  0.00     0.156 C 
ENDROOT
BRANCH   1   2
ATOM      2  C13 B68 d          25.970   3.723   2.587  0.00  0.00     0.063 C 
ATOM      3  H9  B68 d          25.326   4.282   1.892  0.00  0.00     0.080 H 
ATOM      4  H10 B68 d          26.954   3.560   2.124  0.00  0.00     0.080 H 
BRANCH   2   5
ATOM      5  O14 B68 d          25.365   2.452   2.876  0.00  0.00    -0.348 OA
BRANCH   5   6
ATOM      6  C16 B68 d          26.295   1.471   3.040  0.00  0.00     0.069 A 
ATOM      7  C17 B68 d          26.057   0.408   3.907  0.00  0.00    -0.049 A 
ATOM      8  C18 B68 d          26.991  -0.616   4.031  0.00  0.00    -0.054 A 
ATOM      9  H6  B68 d          25.142   0.379   4.488  0.00  0.00     0.087 H 
ATOM     10  C19 B68 d          28.170  -0.591   3.288  0.00  0.00     0.034 A 
ATOM     11  H5  B68 d          26.800  -1.439   4.710  0.00  0.00     0.087 H 
ATOM     12  C20 B68 d          28.401   0.471   2.419  0.00  0.00    -0.054 A 
ATOM     13  C21 B68 d          27.471   1.499   2.294  0.00  0.00    -0.049 A 
ATOM     14  H7  B68 d          29.314   0.498   1.834  0.00  0.00     0.087 H 
ATOM     15  H8  B68 d          27.661   2.321   1.615  0.00  0.00     0.087 H 
BRANCH  10  16
ATOM     16  N22 B68 d          29.098  -1.543   3.393  0.00  0.00    -0.328 N 
ATOM     17  C23 B68 d          30.409  -1.323   3.470  0.00  0.00     0.218 C 
ATOM     18  O23 B68 d          30.933  -0.209   3.492  0.00  0.00    -0.274 OA
ATOM     19  H4  B68 d          28.787  -2.493   3.415  0.00  0.00     0.169 HD
BRANCH  17  20
ATOM     20  C24 B68 d          31.265  -2.588   3.571  0.00  0.00    -0.003 C 
ATOM     21  H1  B68 d          31.539  -2.926   2.561  0.00  0.00     0.040 H 
ATOM     22  H2  B68 d          30.694  -3.378   4.080  0.00  0.00     0.040 H 
ATOM     23  H3  B68 d          32.178  -2.368   4.144  0.00  0.00     0.040 H 
ENDBRANCH  17  20
ENDBRANCH  10  16
ENDBRANCH   5   6
ENDBRANCH   2   5
ENDBRANCH   1   2
BRANCH   1  24
ATOM     24  O11 B68 d          26.366   5.897   3.544  0.00  0.00    -0.378 OA
ATOM     25  H11 B68 d          25.542   6.303   3.303  0.00  0.00     0.211 HD
ENDBRANCH   1  24
BRANCH   1  26
ATOM     26  C12 B68 d          24.886   4.381   4.731  0.00  0.00    -0.037 C 
ATOM     27  H12 B68 d          25.162   4.445   5.794  0.00  0.00     0.032 H 
ATOM     28  H13 B68 d          24.413   3.408   4.533  0.00  0.00     0.032 H 
ATOM     29  H14 B68 d          24.180   5.188   4.486  0.00  0.00     0.032 H 
ENDBRANCH   1  26
BRANCH   1  30
ATOM     30  C10 B68 d          27.359   3.981   4.618  0.00  0.00     0.258 C 
ATOM     31  O10 B68 d          28.482   4.427   4.386  0.00  0.00    -0.270 OA
ATOM     32  N9  B68 d          27.080   3.046   5.524  0.00  0.00    -0.325 N 
ATOM     33  H15 B68 d          26.121   2.783   5.630  0.00  0.00     0.169 HD
BRANCH  32  34
ATOM     34  C6  B68 d          27.971   2.432   6.302  0.00  0.00     0.035 A 
ATOM     35  C5  B68 d          27.806   2.288   7.678  0.00  0.00    -0.040 A 
ATOM     36  C4  B68 d          28.717   1.600   8.481  0.00  0.00     0.083 A 
ATOM     37  H16 B68 d          26.933   2.729   8.145  0.00  0.00     0.088 H 
ATOM     38  C3  B68 d          29.832   1.028   7.859  0.00  0.00     0.118 A 
ATOM     39  C2  B68 d          30.014   1.182   6.487  0.00  0.00    -0.048 A 
ATOM     40  C1  B68 d          29.096   1.876   5.704  0.00  0.00    -0.055 A 
ATOM     41  H18 B68 d          30.890   0.751   6.017  0.00  0.00     0.087 H 
ATOM     42  H17 B68 d          29.257   1.981   4.638  0.00  0.00     0.087 H 
BRANCH  36  43
ATOM     43  C7  B68 d          28.459   1.535   9.999  0.00  0.00     0.419 C 
ATOM     44  F2  B68 d          27.742   0.458  10.306  0.00  0.00    -0.166 F 
ATOM     45  F1  B68 d          29.578   1.505  10.716  0.00  0.00    -0.166 F 
ATOM     46  F3  B68 d          27.773   2.588  10.432  0.00  0.00    -0.166 F 
ENDBRANCH  36  43
BRANCH  38  47
ATOM     47  N8  B68 d          30.756   0.306   8.494  0.00  0.00    -0.115 N 
ATOM     48  O1  B68 d          31.967   0.856   8.989  0.00  0.00    -0.532 OA
ATOM     49  O2  B68 d          30.491  -1.058   8.790  0.00  0.00    -0.532 OA
ENDBRANCH  38  47
ENDBRANCH  32  34
ENDBRANCH   1  30
TORSDOF 11
ENDMDL
