MODEL 1
REMARK VINA RESULT:      -6.1      0.000      0.000
REMARK  3 active torsions:
REMARK  status: ('A' for Active; 'I' for Inactive)
REMARK    1  A    between atoms: N2_1  and  C7_3 
REMARK    2  A    between atoms: C7_3  and  C4_4 
REMARK    3  A    between atoms: C1_9  and  N1_10 
ROOT
ATOM      1  C4  PBZ d          -1.786  14.235  16.566  0.00  0.00     0.007 A 
ATOM      2  C2  PBZ d          -2.233  16.145  17.982  0.00  0.00    -0.057 A 
ATOM      3  C3  PBZ d          -2.467  15.428  16.813  0.00  0.00    -0.067 A 
ATOM      4  C5  PBZ d          -0.872  13.755  17.507  0.00  0.00    -0.067 A 
ATOM      5  C6  PBZ d          -0.645  14.479  18.683  0.00  0.00    -0.057 A 
ATOM      6  C1  PBZ d          -1.319  15.674  18.914  0.00  0.00     0.025 A 
ATOM      7  H5  PBZ d          -2.765  17.072  18.164  0.00  0.00     0.086 H 
ATOM      8  H6  PBZ d          -3.184  15.798  16.089  0.00  0.00     0.085 H 
ATOM      9  H7  PBZ d          -0.341  12.827  17.327  0.00  0.00     0.085 H 
ATOM     10  H8  PBZ d           0.059  14.107  19.419  0.00  0.00     0.086 H 
ENDROOT
BRANCH   1  11
ATOM     11  C7  PBZ d          -2.038  13.487  15.283  0.00  0.00     0.102 C 
ATOM     12  N3  PBZ d          -2.588  14.079  14.221  0.00  0.00    -0.385 N 
ATOM     13  H3  PBZ d          -2.865  15.070  14.269  0.00  0.00     0.157 HD
ATOM     14  H4  PBZ d          -2.736  13.545  13.352  0.00  0.00     0.157 HD
BRANCH  11  15
ATOM     15  N2  PBZ d          -1.695  12.210  15.184  0.00  0.00    -0.385 N 
ATOM     16  H1  PBZ d          -0.790  11.952  14.765  0.00  0.00     0.157 HD
ATOM     17  H2  PBZ d          -2.333  11.477  15.525  0.00  0.00     0.157 HD
ENDBRANCH  11  15
ENDBRANCH   1  11
BRANCH   6  18
ATOM     18  N1  PBZ d          -1.103  16.378  20.057  0.00  0.00    -0.399 N 
ATOM     19  H9  PBZ d          -1.726  17.159  20.307  0.00  0.00     0.156 HD
ATOM     20  H10 PBZ d          -0.316  16.130  20.674  0.00  0.00     0.156 HD
ENDBRANCH   6  18
TORSDOF 3
ENDMDL
MODEL 2
REMARK VINA RESULT:      -6.1      0.040      1.524
REMARK  3 active torsions:
REMARK  status: ('A' for Active; 'I' for Inactive)
REMARK    1  A    between atoms: N2_1  and  C7_3 
REMARK    2  A    between atoms: C7_3  and  C4_4 
REMARK    3  A    between atoms: C1_9  and  N1_10 
ROOT
ATOM      1  C4  PBZ d          -1.798  14.265  16.544  0.00  0.00     0.007 A 
ATOM      2  C2  PBZ d          -0.680  14.458  18.681  0.00  0.00    -0.057 A 
ATOM      3  C3  PBZ d          -0.901  13.771  17.492  0.00  0.00    -0.067 A 
ATOM      4  C5  PBZ d          -2.468  15.466  16.789  0.00  0.00    -0.067 A 
ATOM      5  C6  PBZ d          -2.237  16.155  17.986  0.00  0.00    -0.057 A 
ATOM      6  C1  PBZ d          -1.352  15.647  18.931  0.00  0.00     0.025 A 
ATOM      7  H5  PBZ d           0.016  14.065  19.413  0.00  0.00     0.086 H 
ATOM      8  H6  PBZ d          -0.372  12.844  17.300  0.00  0.00     0.085 H 
ATOM      9  H7  PBZ d          -3.163  15.861  16.058  0.00  0.00     0.085 H 
ATOM     10  H8  PBZ d          -2.751  17.091  18.177  0.00  0.00     0.086 H 
ENDROOT
BRANCH   1  11
ATOM     11  C7  PBZ d          -2.038  13.493  15.273  0.00  0.00     0.102 C 
ATOM     12  N3  PBZ d          -2.581  14.065  14.196  0.00  0.00    -0.385 N 
ATOM     13  H3  PBZ d          -2.860  15.056  14.224  0.00  0.00     0.157 HD
ATOM     14  H4  PBZ d          -2.720  13.514  13.336  0.00  0.00     0.157 HD
BRANCH  11  15
ATOM     15  N2  PBZ d          -1.690  12.216  15.200  0.00  0.00    -0.385 N 
ATOM     16  H1  PBZ d          -2.391  11.481  15.374  0.00  0.00     0.157 HD
ATOM     17  H2  PBZ d          -0.720  11.958  14.969  0.00  0.00     0.157 HD
ENDBRANCH  11  15
ENDBRANCH   1  11
BRANCH   6  18
ATOM     18  N1  PBZ d          -1.124  16.316  20.092  0.00  0.00    -0.399 N 
ATOM     19  H9  PBZ d          -1.474  17.277  20.211  0.00  0.00     0.156 HD
ATOM     20  H10 PBZ d          -0.601  15.860  20.854  0.00  0.00     0.156 HD
ENDBRANCH   6  18
TORSDOF 3
ENDMDL
MODEL 3
REMARK VINA RESULT:      -6.1      0.161      1.032
REMARK  3 active torsions:
REMARK  status: ('A' for Active; 'I' for Inactive)
REMARK    1  A    between atoms: N2_1  and  C7_3 
REMARK    2  A    between atoms: C7_3  and  C4_4 
REMARK    3  A    between atoms: C1_9  and  N1_10 
ROOT
ATOM      1  C4  PBZ d          -1.776  14.220  16.654  0.00  0.00     0.007 A 
ATOM      2  C2  PBZ d          -2.190  16.106  18.112  0.00  0.00    -0.057 A 
ATOM      3  C3  PBZ d          -2.488  15.379  16.964  0.00  0.00    -0.067 A 
ATOM      4  C5  PBZ d          -0.763  13.782  17.512  0.00  0.00    -0.067 A 
ATOM      5  C6  PBZ d          -0.472  14.516  18.668  0.00  0.00    -0.057 A 
ATOM      6  C1  PBZ d          -1.179  15.677  18.961  0.00  0.00     0.025 A 
ATOM      7  H5  PBZ d          -2.747  17.006  18.343  0.00  0.00     0.086 H 
ATOM      8  H6  PBZ d          -3.281  15.715  16.305  0.00  0.00     0.085 H 
ATOM      9  H7  PBZ d          -0.207  12.881  17.283  0.00  0.00     0.085 H 
ATOM     10  H8  PBZ d           0.309  14.176  19.339  0.00  0.00     0.086 H 
ENDROOT
BRANCH   1  11
ATOM     11  C7  PBZ d          -2.101  13.461  15.394  0.00  0.00     0.102 C 
ATOM     12  N3  PBZ d          -1.738  12.187  15.227  0.00  0.00    -0.385 N 
ATOM     13  H3  PBZ d          -1.210  11.701  15.967  0.00  0.00     0.157 HD
ATOM     14  H4  PBZ d          -1.987  11.690  14.360  0.00  0.00     0.157 HD
BRANCH  11  15
ATOM     15  N2  PBZ d          -2.780  14.054  14.421  0.00  0.00    -0.385 N 
ATOM     16  H1  PBZ d          -3.121  13.502  13.622  0.00  0.00     0.157 HD
ATOM     17  H2  PBZ d          -2.967  15.066  14.466  0.00  0.00     0.157 HD
ENDBRANCH  11  15
ENDBRANCH   1  11
BRANCH   6  18
ATOM     18  N1  PBZ d          -0.899  16.390  20.085  0.00  0.00    -0.399 N 
ATOM     19  H9  PBZ d           0.034  16.328  20.516  0.00  0.00     0.156 HD
ATOM     20  H10 PBZ d          -1.621  16.992  20.505  0.00  0.00     0.156 HD
ENDBRANCH   6  18
TORSDOF 3
ENDMDL
MODEL 4
REMARK VINA RESULT:      -5.4      0.994      4.220
REMARK  3 active torsions:
REMARK  status: ('A' for Active; 'I' for Inactive)
REMARK    1  A    between atoms: N2_1  and  C7_3 
REMARK    2  A    between atoms: C7_3  and  C4_4 
REMARK    3  A    between atoms: C1_9  and  N1_10 
ROOT
ATOM      1  C4  PBZ d          -1.167  15.366  17.934  0.00  0.00     0.007 A 
ATOM      2  C2  PBZ d          -2.181  14.585  15.881  0.00  0.00    -0.057 A 
ATOM      3  C3  PBZ d          -1.972  15.592  16.817  0.00  0.00    -0.067 A 
ATOM      4  C5  PBZ d          -0.557  14.121  18.104  0.00  0.00    -0.067 A 
ATOM      5  C6  PBZ d          -0.766  13.113  17.155  0.00  0.00    -0.057 A 
ATOM      6  C1  PBZ d          -1.582  13.343  16.053  0.00  0.00     0.025 A 
ATOM      7  H5  PBZ d          -2.810  14.768  15.018  0.00  0.00     0.086 H 
ATOM      8  H6  PBZ d          -2.439  16.561  16.678  0.00  0.00     0.085 H 
ATOM      9  H7  PBZ d           0.074  13.936  18.966  0.00  0.00     0.085 H 
ATOM     10  H8  PBZ d          -0.290  12.147  17.281  0.00  0.00     0.086 H 
ENDROOT
BRANCH   1  11
ATOM     11  C7  PBZ d          -0.974  16.465  18.946  0.00  0.00     0.102 C 
ATOM     12  N3  PBZ d          -1.410  16.347  20.203  0.00  0.00    -0.385 N 
ATOM     13  H3  PBZ d          -1.905  15.493  20.499  0.00  0.00     0.157 HD
ATOM     14  H4  PBZ d          -1.251  17.110  20.877  0.00  0.00     0.157 HD
BRANCH  11  15
ATOM     15  N2  PBZ d          -0.341  17.578  18.602  0.00  0.00    -0.385 N 
ATOM     16  H1  PBZ d           0.543  17.525  18.077  0.00  0.00     0.157 HD
ATOM     17  H2  PBZ d          -0.733  18.494  18.861  0.00  0.00     0.157 HD
ENDBRANCH  11  15
ENDBRANCH   1  11
BRANCH   6  18
ATOM     18  N1  PBZ d          -1.785  12.367  15.128  0.00  0.00    -0.399 N 
ATOM     19  H9  PBZ d          -2.191  11.464  15.413  0.00  0.00     0.156 HD
ATOM     20  H10 PBZ d          -1.534  12.531  14.143  0.00  0.00     0.156 HD
ENDBRANCH   6  18
TORSDOF 3
ENDMDL
MODEL 5
REMARK VINA RESULT:      -5.3      0.989      4.406
REMARK  3 active torsions:
REMARK  status: ('A' for Active; 'I' for Inactive)
REMARK    1  A    between atoms: N2_1  and  C7_3 
REMARK    2  A    between atoms: C7_3  and  C4_4 
REMARK    3  A    between atoms: C1_9  and  N1_10 
ROOT
ATOM      1  C4  PBZ d          -1.225  15.369  17.893  0.00  0.00     0.007 A 
ATOM      2  C2  PBZ d          -0.837  13.101  17.144  0.00  0.00    -0.057 A 
ATOM      3  C3  PBZ d          -0.651  14.111  18.083  0.00  0.00    -0.067 A 
ATOM      4  C5  PBZ d          -2.001  15.609  16.757  0.00  0.00    -0.067 A 
ATOM      5  C6  PBZ d          -2.188  14.587  15.819  0.00  0.00    -0.057 A 
ATOM      6  C1  PBZ d          -1.601  13.341  16.009  0.00  0.00     0.025 A 
ATOM      7  H5  PBZ d          -0.386  12.129  17.298  0.00  0.00     0.086 H 
ATOM      8  H6  PBZ d          -0.057  13.919  18.969  0.00  0.00     0.085 H 
ATOM      9  H7  PBZ d          -2.455  16.581  16.602  0.00  0.00     0.085 H 
ATOM     10  H8  PBZ d          -2.795  14.768  14.938  0.00  0.00     0.086 H 
ENDROOT
BRANCH   1  11
ATOM     11  C7  PBZ d          -0.992  16.454  18.912  0.00  0.00     0.102 C 
ATOM     12  N3  PBZ d          -0.341  17.578  18.605  0.00  0.00    -0.385 N 
ATOM     13  H3  PBZ d           0.030  17.715  17.653  0.00  0.00     0.157 HD
ATOM     14  H4  PBZ d          -0.209  18.308  19.319  0.00  0.00     0.157 HD
BRANCH  11  15
ATOM     15  N2  PBZ d          -1.455  16.312  20.146  0.00  0.00    -0.385 N 
ATOM     16  H1  PBZ d          -2.377  16.695  20.397  0.00  0.00     0.157 HD
ATOM     17  H2  PBZ d          -0.892  15.820  20.854  0.00  0.00     0.157 HD
ENDBRANCH  11  15
ENDBRANCH   1  11
BRANCH   6  18
ATOM     18  N1  PBZ d          -1.783  12.346  15.101  0.00  0.00    -0.399 N 
ATOM     19  H9  PBZ d          -2.146  12.565  14.162  0.00  0.00     0.156 HD
ATOM     20  H10 PBZ d          -1.557  11.372  15.351  0.00  0.00     0.156 HD
ENDBRANCH   6  18
TORSDOF 3
ENDMDL
MODEL 6
REMARK VINA RESULT:      -5.0      1.017      4.097
REMARK  3 active torsions:
REMARK  status: ('A' for Active; 'I' for Inactive)
REMARK    1  A    between atoms: N2_1  and  C7_3 
REMARK    2  A    between atoms: C7_3  and  C4_4 
REMARK    3  A    between atoms: C1_9  and  N1_10 
ROOT
ATOM      1  C4  PBZ d          -1.482  15.153  17.850  0.00  0.00     0.007 A 
ATOM      2  C2  PBZ d          -2.156  14.375  15.660  0.00  0.00    -0.057 A 
ATOM      3  C3  PBZ d          -2.107  15.378  16.623  0.00  0.00    -0.067 A 
ATOM      4  C5  PBZ d          -0.890  13.913  18.105  0.00  0.00    -0.067 A 
ATOM      5  C6  PBZ d          -0.938  12.910  17.130  0.00  0.00    -0.057 A 
ATOM      6  C1  PBZ d          -1.577  13.139  15.915  0.00  0.00     0.025 A 
ATOM      7  H5  PBZ d          -2.647  14.558  14.712  0.00  0.00     0.086 H 
ATOM      8  H6  PBZ d          -2.558  16.342  16.418  0.00  0.00     0.085 H 
ATOM      9  H7  PBZ d          -0.397  13.729  19.053  0.00  0.00     0.085 H 
ATOM     10  H8  PBZ d          -0.475  11.948  17.322  0.00  0.00     0.086 H 
ENDROOT
BRANCH   1  11
ATOM     11  C7  PBZ d          -1.460  16.246  18.885  0.00  0.00     0.102 C 
ATOM     12  N3  PBZ d          -1.378  17.534  18.546  0.00  0.00    -0.385 N 
ATOM     13  H3  PBZ d          -1.315  17.802  17.553  0.00  0.00     0.157 HD
ATOM     14  H4  PBZ d          -1.380  18.261  19.276  0.00  0.00     0.157 HD
BRANCH  11  15
ATOM     15  N2  PBZ d          -1.541  15.939  20.173  0.00  0.00    -0.385 N 
ATOM     16  H1  PBZ d          -0.779  16.200  20.813  0.00  0.00     0.157 HD
ATOM     17  H2  PBZ d          -2.367  15.439  20.532  0.00  0.00     0.157 HD
ENDBRANCH  11  15
ENDBRANCH   1  11
BRANCH   6  18
ATOM     18  N1  PBZ d          -1.623  12.168  14.966  0.00  0.00    -0.399 N 
ATOM     19  H9  PBZ d          -2.368  12.177  14.255  0.00  0.00     0.156 HD
ATOM     20  H10 PBZ d          -0.912  11.422  14.956  0.00  0.00     0.156 HD
ENDBRANCH   6  18
TORSDOF 3
ENDMDL
MODEL 7
REMARK VINA RESULT:      -4.7      1.108      4.120
REMARK  3 active torsions:
REMARK  status: ('A' for Active; 'I' for Inactive)
REMARK    1  A    between atoms: N2_1  and  C7_3 
REMARK    2  A    between atoms: C7_3  and  C4_4 
REMARK    3  A    between atoms: C1_9  and  N1_10 
ROOT
ATOM      1  C4  PBZ d          -1.340  14.516  17.671  0.00  0.00     0.007 A 
ATOM      2  C2  PBZ d          -2.215  15.076  15.486  0.00  0.00    -0.057 A 
ATOM      3  C3  PBZ d          -1.920  15.436  16.797  0.00  0.00    -0.067 A 
ATOM      4  C5  PBZ d          -1.045  13.227  17.219  0.00  0.00    -0.067 A 
ATOM      5  C6  PBZ d          -1.339  12.873  15.897  0.00  0.00    -0.057 A 
ATOM      6  C1  PBZ d          -1.930  13.793  15.038  0.00  0.00     0.025 A 
ATOM      7  H5  PBZ d          -2.668  15.796  14.815  0.00  0.00     0.086 H 
ATOM      8  H6  PBZ d          -2.142  16.440  17.141  0.00  0.00     0.085 H 
ATOM      9  H7  PBZ d          -0.590  12.506  17.889  0.00  0.00     0.085 H 
ATOM     10  H8  PBZ d          -1.106  11.876  15.541  0.00  0.00     0.086 H 
ENDROOT
BRANCH   1  11
ATOM     11  C7  PBZ d          -1.050  14.921  19.092  0.00  0.00     0.102 C 
ATOM     12  N3  PBZ d          -0.393  16.047  19.381  0.00  0.00    -0.385 N 
ATOM     13  H3  PBZ d          -0.059  16.658  18.622  0.00  0.00     0.157 HD
ATOM     14  H4  PBZ d          -0.221  16.305  20.364  0.00  0.00     0.157 HD
BRANCH  11  15
ATOM     15  N2  PBZ d          -1.466  14.160  20.095  0.00  0.00    -0.385 N 
ATOM     16  H1  PBZ d          -0.997  14.214  21.010  0.00  0.00     0.157 HD
ATOM     17  H2  PBZ d          -2.257  13.515  19.959  0.00  0.00     0.157 HD
ENDBRANCH  11  15
ENDBRANCH   1  11
BRANCH   6  18
ATOM     18  N1  PBZ d          -2.215  13.452  13.753  0.00  0.00    -0.399 N 
ATOM     19  H9  PBZ d          -2.845  12.661  13.557  0.00  0.00     0.156 HD
ATOM     20  H10 PBZ d          -1.802  13.986  12.975  0.00  0.00     0.156 HD
ENDBRANCH   6  18
TORSDOF 3
ENDMDL
