MODEL 1
REMARK VINA RESULT:     -11.6      0.000      0.000
REMARK  7 active torsions:
REMARK  status: ('A' for Active; 'I' for Inactive)
REMARK    1  A    between atoms: C2_4  and  C8_8 
REMARK    2  A    between atoms: C4_6  and  C7_7 
REMARK    3  A    between atoms: C13_9  and  C14_10 
REMARK    4  A    between atoms: C16_16  and  C19_17 
REMARK    5  A    between atoms: C17_18  and  O20_19 
REMARK    6  A    between atoms: C48_24  and  C49_25 
REMARK    7  A    between atoms: C36_28  and  C38_29 
ROOT
ATOM      1  C8  GYN d           5.013  25.418  -8.139  0.00  0.00    -0.048 C 
ATOM      2  C13 GYN d           4.105  26.143  -7.454  0.00  0.00    -0.070 C 
ATOM      3  C12 GYN d           3.784  25.908  -5.992  0.00  0.00    -0.003 C 
ATOM      4  C27 GYN d           4.845  25.045  -5.292  0.00  0.00     0.011 C 
ATOM      5  C10 GYN d           5.149  23.844  -6.187  0.00  0.00    -0.049 C 
ATOM      6  C9  GYN d           5.670  24.184  -7.575  0.00  0.00    -0.041 C 
ATOM      7  C15 GYN d           3.624  27.249  -5.293  0.00  0.00    -0.090 C 
ATOM      8  C16 GYN d           2.482  27.749  -4.771  0.00  0.00    -0.059 C 
ATOM      9  C17 GYN d           2.553  29.110  -4.121  0.00  0.00     0.057 C 
ATOM     10  C18 GYN d           2.029  29.069  -2.691  0.00  0.00    -0.035 C 
ATOM     11  C21 GYN d           3.085  28.726  -1.657  0.00  0.00    -0.038 C 
ATOM     12  C43 GYN d           2.853  27.362  -1.023  0.00  0.00     0.040 C 
ATOM     13  C47 GYN d           3.528  27.190   0.334  0.00  0.00    -0.035 C 
ATOM     14  C48 GYN d           2.618  26.246   1.102  0.00  0.00    -0.026 C 
ATOM     15  O43 GYN d           1.482  27.006  -0.795  0.00  0.00    -0.376 OA
ATOM     16  C37 GYN d           1.478  25.914   0.147  0.00  0.00     0.063 C 
ATOM     17  C36 GYN d           1.690  24.569  -0.516  0.00  0.00    -0.059 C 
ATOM     18  C35 GYN d           2.167  24.524  -1.778  0.00  0.00    -0.098 C 
ATOM     19  C34 GYN d           2.451  23.283  -2.606  0.00  0.00    -0.045 C 
ATOM     20  C33 GYN d           2.940  23.680  -4.008  0.00  0.00    -0.025 C 
ATOM     21  C32 GYN d           4.270  24.432  -4.018  0.00  0.00     0.016 C 
ATOM     22  N31 GYN d           4.932  24.521  -2.937  0.00  0.00    -0.298 NA
ATOM     23  C30 GYN d           6.338  24.836  -2.726  0.00  0.00     0.015 C 
ATOM     24  C46 GYN d           6.604  26.052  -3.600  0.00  0.00    -0.047 C 
ATOM     25  C28 GYN d           6.127  25.875  -5.039  0.00  0.00    -0.051 C 
ATOM     26  H11 GYN d           2.825  25.371  -5.935  0.00  0.00     0.054 H 
ATOM     27  H12 GYN d           4.222  23.264  -6.305  0.00  0.00     0.035 H 
ATOM     28  H13 GYN d           5.907  23.226  -5.682  0.00  0.00     0.035 H 
ATOM     29  H14 GYN d           6.755  24.356  -7.515  0.00  0.00     0.039 H 
ATOM     30  H15 GYN d           5.470  23.337  -8.247  0.00  0.00     0.039 H 
ATOM     31  H16 GYN d           4.517  27.866  -5.203  0.00  0.00     0.078 H 
ATOM     32  H20 GYN d           3.595  29.463  -4.119  0.00  0.00     0.090 H 
ATOM     33  H22 GYN d           1.232  28.312  -2.636  0.00  0.00     0.037 H 
ATOM     34  H23 GYN d           1.613  30.058  -2.446  0.00  0.00     0.037 H 
ATOM     35  H24 GYN d           3.068  29.491  -0.866  0.00  0.00     0.036 H 
ATOM     36  H25 GYN d           4.071  28.726  -2.144  0.00  0.00     0.036 H 
ATOM     37  H26 GYN d           3.283  26.626  -1.718  0.00  0.00     0.083 H 
ATOM     38  H27 GYN d           3.609  28.158   0.851  0.00  0.00     0.037 H 
ATOM     39  H28 GYN d           4.530  26.753   0.216  0.00  0.00     0.037 H 
ATOM     40  H29 GYN d           3.161  25.333   1.387  0.00  0.00     0.043 H 
ATOM     41  H33 GYN d           0.522  25.889   0.690  0.00  0.00     0.091 H 
ATOM     42  H37 GYN d           2.370  25.481  -2.254  0.00  0.00     0.077 H 
ATOM     43  H38 GYN d           1.530  22.689  -2.698  0.00  0.00     0.039 H 
ATOM     44  H39 GYN d           3.226  22.684  -2.107  0.00  0.00     0.039 H 
ATOM     45  H40 GYN d           2.177  24.322  -4.471  0.00  0.00     0.042 H 
ATOM     46  H41 GYN d           3.059  22.762  -4.603  0.00  0.00     0.042 H 
ATOM     47  H42 GYN d           6.973  23.992  -3.033  0.00  0.00     0.067 H 
ATOM     48  H43 GYN d           6.527  25.070  -1.668  0.00  0.00     0.067 H 
ATOM     49  H44 GYN d           7.687  26.243  -3.612  0.00  0.00     0.035 H 
ATOM     50  H45 GYN d           6.084  26.917  -3.163  0.00  0.00     0.035 H 
ATOM     51  H46 GYN d           5.951  26.880  -5.449  0.00  0.00     0.034 H 
ATOM     52  H47 GYN d           6.943  25.391  -5.595  0.00  0.00     0.034 H 
ENDROOT
BRANCH   1  53
ATOM     53  C2  GYN d           5.442  25.857  -9.512  0.00  0.00     0.071 C 
ATOM     54  O1  GYN d           6.436  26.876  -9.395  0.00  0.00    -0.311 OA
ATOM     55  C5  GYN d           7.452  26.555 -10.372  0.00  0.00     0.263 C 
ATOM     56  O6  GYN d           8.429  27.257 -10.544  0.00  0.00    -0.265 OA
ATOM     57  C4  GYN d           7.181  25.316 -11.146  0.00  0.00     0.029 C 
ATOM     58  C3  GYN d           6.027  24.715 -10.353  0.00  0.00    -0.025 C 
ATOM     59  H4  GYN d           6.857  25.555 -12.170  0.00  0.00     0.055 H 
ATOM     60  H2  GYN d           5.264  24.314 -11.036  0.00  0.00     0.038 H 
ATOM     61  H3  GYN d           6.394  23.910  -9.699  0.00  0.00     0.038 H 
ATOM     62  H1  GYN d           4.564  26.264 -10.035  0.00  0.00     0.091 H 
BRANCH  57  63
ATOM     63  C7  GYN d           8.414  24.433 -11.228  0.00  0.00    -0.064 C 
ATOM     64  H5  GYN d           8.292  23.707 -12.045  0.00  0.00     0.028 H 
ATOM     65  H6  GYN d           8.545  23.895 -10.277  0.00  0.00     0.028 H 
ATOM     66  H7  GYN d           9.300  25.056 -11.420  0.00  0.00     0.028 H 
ENDBRANCH  57  63
ENDBRANCH   1  53
BRANCH   2  67
ATOM     67  C14 GYN d           3.366  27.266  -8.151  0.00  0.00    -0.054 C 
ATOM     68  H8  GYN d           2.414  26.887  -8.550  0.00  0.00     0.033 H 
ATOM     69  H9  GYN d           3.981  27.653  -8.976  0.00  0.00     0.033 H 
ATOM     70  H10 GYN d           3.167  28.075  -7.433  0.00  0.00     0.033 H 
ENDBRANCH   2  67
BRANCH   8  71
ATOM     71  C19 GYN d           1.162  27.017  -4.829  0.00  0.00    -0.052 C 
ATOM     72  H17 GYN d           0.921  26.778  -5.875  0.00  0.00     0.033 H 
ATOM     73  H18 GYN d           0.371  27.653  -4.406  0.00  0.00     0.033 H 
ATOM     74  H19 GYN d           1.233  26.086  -4.247  0.00  0.00     0.033 H 
ENDBRANCH   8  71
BRANCH   9  75
ATOM     75  O20 GYN d           1.731  30.009  -4.881  0.00  0.00    -0.391 OA
ATOM     76  H21 GYN d           1.165  30.495  -4.291  0.00  0.00     0.210 HD
ENDBRANCH   9  75
BRANCH  17  77
ATOM     77  C38 GYN d           1.344  23.304   0.237  0.00  0.00    -0.052 C 
ATOM     78  H34 GYN d           0.455  23.480   0.859  0.00  0.00     0.033 H 
ATOM     79  H35 GYN d           2.189  23.017   0.879  0.00  0.00     0.033 H 
ATOM     80  H36 GYN d           1.136  22.497  -0.480  0.00  0.00     0.033 H 
ENDBRANCH  17  77
BRANCH  14  81
ATOM     81  C49 GYN d           2.087  26.939   2.358  0.00  0.00    -0.070 C 
ATOM     82  H30 GYN d           2.717  26.671   3.220  0.00  0.00     0.028 H 
ATOM     83  H31 GYN d           1.053  26.614   2.546  0.00  0.00     0.028 H 
ATOM     84  H32 GYN d           2.108  28.028   2.213  0.00  0.00     0.028 H 
ENDBRANCH  14  81
TORSDOF 7
ENDMDL
