MODEL 1
REMARK VINA RESULT:      -6.7      0.000      0.000
REMARK  6 active torsions:
REMARK  status: ('A' for Active; 'I' for Inactive)
REMARK    1  A    between atoms: N1_2  and  O7_5 
REMARK    2  A    between atoms: C2_3  and  O2_6 
REMARK    3  A    between atoms: C3_7  and  O3_8 
REMARK    4  A    between atoms: C4_9  and  O4_10 
REMARK    5  A    between atoms: C5_11  and  C6_12 
REMARK    6  A    between atoms: C6_12  and  O6_13 
ROOT
ATOM      1  C1  GOX d           0.116  11.146  10.263  0.00  0.00     0.159 C 
ATOM      2  N1  GOX d           0.436  10.877  11.514  0.00  0.00    -0.120 NA
ATOM      3  C2  GOX d           1.255  11.795   9.453  0.00  0.00     0.121 C 
ATOM      4  N5  GOX d          -1.168  10.837   9.771  0.00  0.00    -0.365 N 
ATOM      5  C3  GOX d           0.699  12.280   8.117  0.00  0.00     0.094 C 
ATOM      6  C4  GOX d          -0.198  11.206   7.493  0.00  0.00     0.084 C 
ATOM      7  C5  GOX d          -1.480  11.165   8.373  0.00  0.00     0.058 C 
ATOM      8  H1  GOX d           2.030  11.038   9.264  0.00  0.00     0.099 H 
ATOM      9  H2  GOX d          -1.872  10.390  10.377  0.00  0.00     0.161 HD
ATOM     10  H5  GOX d           0.118  13.202   8.261  0.00  0.00     0.091 H 
ATOM     11  H7  GOX d           0.307  10.230   7.522  0.00  0.00     0.090 H 
ATOM     12  H9  GOX d          -1.954  12.156   8.331  0.00  0.00     0.079 H 
ENDROOT
BRANCH   7  13
ATOM     13  C6  GOX d          -2.489  10.102   7.890  0.00  0.00     0.038 C 
ATOM     14  H10 GOX d          -2.465  10.057   6.791  0.00  0.00     0.077 H 
ATOM     15  H11 GOX d          -3.498  10.388   8.223  0.00  0.00     0.077 H 
BRANCH  13  16
ATOM     16  O6  GOX d          -2.176   8.826   8.412  0.00  0.00    -0.399 OA
ATOM     17  H12 GOX d          -2.004   8.899   9.343  0.00  0.00     0.209 HD
ENDBRANCH  13  16
ENDBRANCH   7  13
BRANCH   6  18
ATOM     18  O4  GOX d          -0.505  11.527   6.141  0.00  0.00    -0.391 OA
ATOM     19  H8  GOX d          -0.297  10.785   5.585  0.00  0.00     0.210 HD
ENDBRANCH   6  18
BRANCH   5  20
ATOM     20  O3  GOX d           1.823  12.534   7.277  0.00  0.00    -0.390 OA
ATOM     21  H6  GOX d           1.713  13.375   6.849  0.00  0.00     0.210 HD
ENDBRANCH   5  20
BRANCH   2  22
ATOM     22  O7  GOX d          -0.515  10.255  12.326  0.00  0.00    -0.265 OA
ATOM     23  H3  GOX d          -0.650  10.775  13.110  0.00  0.00     0.247 HD
ENDBRANCH   2  22
BRANCH   3  24
ATOM     24  O2  GOX d           1.839  12.864  10.158  0.00  0.00    -0.385 OA
ATOM     25  H4  GOX d           2.636  12.567  10.579  0.00  0.00     0.210 HD
ENDBRANCH   3  24
TORSDOF 6
ENDMDL
MODEL 2
REMARK VINA RESULT:      -5.8      1.533      3.049
REMARK  6 active torsions:
REMARK  status: ('A' for Active; 'I' for Inactive)
REMARK    1  A    between atoms: N1_2  and  O7_5 
REMARK    2  A    between atoms: C2_3  and  O2_6 
REMARK    3  A    between atoms: C3_7  and  O3_8 
REMARK    4  A    between atoms: C4_9  and  O4_10 
REMARK    5  A    between atoms: C5_11  and  C6_12 
REMARK    6  A    between atoms: C6_12  and  O6_13 
ROOT
ATOM      1  C1  GOX d           0.975  11.954   9.785  0.00  0.00     0.159 C 
ATOM      2  N1  GOX d           1.776  12.957  10.087  0.00  0.00    -0.120 NA
ATOM      3  C2  GOX d           1.046  11.523   8.307  0.00  0.00     0.121 C 
ATOM      4  N5  GOX d           0.157  11.368  10.772  0.00  0.00    -0.365 N 
ATOM      5  C3  GOX d          -0.085  10.538   8.023  0.00  0.00     0.094 C 
ATOM      6  C4  GOX d          -0.177   9.497   9.143  0.00  0.00     0.084 C 
ATOM      7  C5  GOX d          -0.725  10.260  10.383  0.00  0.00     0.058 C 
ATOM      8  H1  GOX d           2.009  11.021   8.131  0.00  0.00     0.099 H 
ATOM      9  H2  GOX d           0.178  11.709  11.744  0.00  0.00     0.161 HD
ATOM     10  H5  GOX d          -1.042  11.074   7.943  0.00  0.00     0.091 H 
ATOM     11  H7  GOX d           0.821   9.092   9.365  0.00  0.00     0.090 H 
ATOM     12  H9  GOX d          -1.717  10.660  10.126  0.00  0.00     0.079 H 
ENDROOT
BRANCH   7  13
ATOM     13  C6  GOX d          -0.855   9.350  11.622  0.00  0.00     0.038 C 
ATOM     14  H10 GOX d          -0.456   8.354  11.380  0.00  0.00     0.077 H 
ATOM     15  H11 GOX d          -1.917   9.264  11.894  0.00  0.00     0.077 H 
BRANCH  13  16
ATOM     16  O6  GOX d          -0.139   9.878  12.721  0.00  0.00    -0.399 OA
ATOM     17  H12 GOX d          -0.737  10.031  13.444  0.00  0.00     0.209 HD
ENDBRANCH  13  16
ENDBRANCH   7  13
BRANCH   6  18
ATOM     18  O4  GOX d          -1.037   8.427   8.769  0.00  0.00    -0.391 OA
ATOM     19  H8  GOX d          -1.203   8.467   7.835  0.00  0.00     0.210 HD
ENDBRANCH   6  18
BRANCH   5  20
ATOM     20  O3  GOX d           0.228   9.904   6.785  0.00  0.00    -0.390 OA
ATOM     21  H6  GOX d           0.275   8.964   6.914  0.00  0.00     0.210 HD
ENDBRANCH   5  20
BRANCH   2  22
ATOM     22  O7  GOX d           1.815  13.403  11.411  0.00  0.00    -0.265 OA
ATOM     23  H3  GOX d           1.377  14.244  11.474  0.00  0.00     0.247 HD
ENDBRANCH   2  22
BRANCH   3  24
ATOM     24  O2  GOX d           0.958  12.632   7.446  0.00  0.00    -0.385 OA
ATOM     25  H4  GOX d           1.829  12.887   7.169  0.00  0.00     0.210 HD
ENDBRANCH   3  24
TORSDOF 6
ENDMDL
MODEL 3
REMARK VINA RESULT:      -5.7      1.217      3.465
REMARK  6 active torsions:
REMARK  status: ('A' for Active; 'I' for Inactive)
REMARK    1  A    between atoms: N1_2  and  O7_5 
REMARK    2  A    between atoms: C2_3  and  O2_6 
REMARK    3  A    between atoms: C3_7  and  O3_8 
REMARK    4  A    between atoms: C4_9  and  O4_10 
REMARK    5  A    between atoms: C5_11  and  C6_12 
REMARK    6  A    between atoms: C6_12  and  O6_13 
ROOT
ATOM      1  C1  GOX d          -0.461  10.098  10.485  0.00  0.00     0.159 C 
ATOM      2  N1  GOX d          -0.949   9.499  11.553  0.00  0.00    -0.120 NA
ATOM      3  C2  GOX d          -1.359   9.979   9.238  0.00  0.00     0.121 C 
ATOM      4  N5  GOX d           0.773  10.776  10.545  0.00  0.00    -0.365 N 
ATOM      5  C3  GOX d          -0.589  10.488   8.022  0.00  0.00     0.094 C 
ATOM      6  C4  GOX d           0.125  11.801   8.356  0.00  0.00     0.084 C 
ATOM      7  C5  GOX d           1.280  11.419   9.326  0.00  0.00     0.058 C 
ATOM      8  H1  GOX d          -2.251  10.606   9.383  0.00  0.00     0.099 H 
ATOM      9  H2  GOX d           1.308  10.819  11.425  0.00  0.00     0.161 HD
ATOM     10  H5  GOX d           0.153   9.740   7.705  0.00  0.00     0.091 H 
ATOM     11  H7  GOX d          -0.570  12.491   8.856  0.00  0.00     0.090 H 
ATOM     12  H9  GOX d           1.949  10.723   8.800  0.00  0.00     0.079 H 
ENDROOT
BRANCH   7  13
ATOM     13  C6  GOX d           2.091  12.648   9.785  0.00  0.00     0.038 C 
ATOM     14  H10 GOX d           2.019  13.434   9.019  0.00  0.00     0.077 H 
ATOM     15  H11 GOX d           3.144  12.356   9.913  0.00  0.00     0.077 H 
BRANCH  13  16
ATOM     16  O6  GOX d           1.601  13.154  11.011  0.00  0.00    -0.399 OA
ATOM     17  H12 GOX d           1.174  12.455  11.493  0.00  0.00     0.209 HD
ENDBRANCH  13  16
ENDBRANCH   7  13
BRANCH   6  18
ATOM     18  O4  GOX d           0.621  12.422   7.175  0.00  0.00    -0.391 OA
ATOM     19  H8  GOX d           1.146  11.798   6.687  0.00  0.00     0.210 HD
ENDBRANCH   6  18
BRANCH   5  20
ATOM     20  O3  GOX d          -1.549  10.696   6.989  0.00  0.00    -0.390 OA
ATOM     21  H6  GOX d          -2.424  10.613   7.350  0.00  0.00     0.210 HD
ENDBRANCH   5  20
BRANCH   2  22
ATOM     22  O7  GOX d          -0.230   9.577  12.748  0.00  0.00    -0.265 OA
ATOM     23  H3  GOX d          -0.834   9.567  13.482  0.00  0.00     0.247 HD
ENDBRANCH   2  22
BRANCH   3  24
ATOM     24  O2  GOX d          -1.776   8.651   9.033  0.00  0.00    -0.385 OA
ATOM     25  H4  GOX d          -1.962   8.246   9.872  0.00  0.00     0.210 HD
ENDBRANCH   3  24
TORSDOF 6
ENDMDL
MODEL 4
REMARK VINA RESULT:      -5.5      1.689      3.581
REMARK  6 active torsions:
REMARK  status: ('A' for Active; 'I' for Inactive)
REMARK    1  A    between atoms: N1_2  and  O7_5 
REMARK    2  A    between atoms: C2_3  and  O2_6 
REMARK    3  A    between atoms: C3_7  and  O3_8 
REMARK    4  A    between atoms: C4_9  and  O4_10 
REMARK    5  A    between atoms: C5_11  and  C6_12 
REMARK    6  A    between atoms: C6_12  and  O6_13 
ROOT
ATOM      1  C1  GOX d          -0.039  11.341   7.627  0.00  0.00     0.159 C 
ATOM      2  N1  GOX d          -0.212  11.679   6.364  0.00  0.00    -0.120 NA
ATOM      3  C2  GOX d           0.906  12.281   8.400  0.00  0.00     0.121 C 
ATOM      4  N5  GOX d          -0.695  10.215   8.163  0.00  0.00    -0.365 N 
ATOM      5  C3  GOX d           1.220  11.660   9.759  0.00  0.00     0.094 C 
ATOM      6  C4  GOX d          -0.060  11.124  10.407  0.00  0.00     0.084 C 
ATOM      7  C5  GOX d          -0.463   9.874   9.573  0.00  0.00     0.058 C 
ATOM      8  H1  GOX d           0.398  13.244   8.556  0.00  0.00     0.099 H 
ATOM      9  H2  GOX d          -1.323   9.643   7.579  0.00  0.00     0.161 HD
ATOM     10  H5  GOX d           1.942  10.839   9.641  0.00  0.00     0.091 H 
ATOM     11  H7  GOX d          -0.855  11.881  10.353  0.00  0.00     0.090 H 
ATOM     12  H9  GOX d           0.356   9.143   9.639  0.00  0.00     0.079 H 
ENDROOT
BRANCH   7  13
ATOM     13  C6  GOX d          -1.764   9.221  10.084  0.00  0.00     0.038 C 
ATOM     14  H10 GOX d          -2.027   8.380   9.426  0.00  0.00     0.077 H 
ATOM     15  H11 GOX d          -2.571   9.968  10.065  0.00  0.00     0.077 H 
BRANCH  13  16
ATOM     16  O6  GOX d          -1.610   8.742  11.405  0.00  0.00    -0.399 OA
ATOM     17  H12 GOX d          -2.379   8.242  11.652  0.00  0.00     0.209 HD
ENDBRANCH  13  16
ENDBRANCH   7  13
BRANCH   6  18
ATOM     18  O4  GOX d           0.166  10.788  11.771  0.00  0.00    -0.391 OA
ATOM     19  H8  GOX d           0.552   9.922  11.824  0.00  0.00     0.210 HD
ENDBRANCH   6  18
BRANCH   5  20
ATOM     20  O3  GOX d           1.783  12.697  10.560  0.00  0.00    -0.390 OA
ATOM     21  H6  GOX d           2.341  13.244  10.021  0.00  0.00     0.210 HD
ENDBRANCH   5  20
BRANCH   2  22
ATOM     22  O7  GOX d          -1.079  10.912   5.582  0.00  0.00    -0.265 OA
ATOM     23  H3  GOX d          -1.295  11.389   4.789  0.00  0.00     0.247 HD
ENDBRANCH   2  22
BRANCH   3  24
ATOM     24  O2  GOX d           2.094  12.515   7.682  0.00  0.00    -0.385 OA
ATOM     25  H4  GOX d           2.584  13.212   8.103  0.00  0.00     0.210 HD
ENDBRANCH   3  24
TORSDOF 6
ENDMDL
MODEL 5
REMARK VINA RESULT:      -5.3      1.083      3.594
REMARK  6 active torsions:
REMARK  status: ('A' for Active; 'I' for Inactive)
REMARK    1  A    between atoms: N1_2  and  O7_5 
REMARK    2  A    between atoms: C2_3  and  O2_6 
REMARK    3  A    between atoms: C3_7  and  O3_8 
REMARK    4  A    between atoms: C4_9  and  O4_10 
REMARK    5  A    between atoms: C5_11  and  C6_12 
REMARK    6  A    between atoms: C6_12  and  O6_13 
ROOT
ATOM      1  C1  GOX d          -1.159  10.620   8.310  0.00  0.00     0.159 C 
ATOM      2  N1  GOX d          -2.271  10.232   7.717  0.00  0.00    -0.120 NA
ATOM      3  C2  GOX d          -0.297  11.571   7.456  0.00  0.00     0.121 C 
ATOM      4  N5  GOX d          -0.848  10.176   9.610  0.00  0.00    -0.365 N 
ATOM      5  C3  GOX d           1.059  11.753   8.133  0.00  0.00     0.094 C 
ATOM      6  C4  GOX d           0.876  11.991   9.636  0.00  0.00     0.084 C 
ATOM      7  C5  GOX d           0.407  10.629  10.224  0.00  0.00     0.058 C 
ATOM      8  H1  GOX d          -0.800  12.547   7.397  0.00  0.00     0.099 H 
ATOM      9  H2  GOX d          -1.486   9.547  10.120  0.00  0.00     0.161 HD
ATOM     10  H5  GOX d           1.681  10.860   7.979  0.00  0.00     0.091 H 
ATOM     11  H7  GOX d           0.104  12.756   9.804  0.00  0.00     0.090 H 
ATOM     12  H9  GOX d           1.195   9.886  10.030  0.00  0.00     0.079 H 
ENDROOT
BRANCH   7  13
ATOM     13  C6  GOX d           0.149  10.704  11.743  0.00  0.00     0.038 C 
ATOM     14  H10 GOX d           1.105  10.595  12.276  0.00  0.00     0.077 H 
ATOM     15  H11 GOX d          -0.528   9.887  12.032  0.00  0.00     0.077 H 
BRANCH  13  16
ATOM     16  O6  GOX d          -0.439  11.939  12.101  0.00  0.00    -0.399 OA
ATOM     17  H12 GOX d          -1.369  11.915  11.905  0.00  0.00     0.209 HD
ENDBRANCH  13  16
ENDBRANCH   7  13
BRANCH   6  18
ATOM     18  O4  GOX d           2.093  12.425  10.231  0.00  0.00    -0.391 OA
ATOM     19  H8  GOX d           2.373  13.236   9.823  0.00  0.00     0.210 HD
ENDBRANCH   6  18
BRANCH   5  20
ATOM     20  O3  GOX d           1.669  12.889   7.524  0.00  0.00    -0.390 OA
ATOM     21  H6  GOX d           1.075  13.260   6.883  0.00  0.00     0.210 HD
ENDBRANCH   5  20
BRANCH   2  22
ATOM     22  O7  GOX d          -3.143   9.395   8.418  0.00  0.00    -0.265 OA
ATOM     23  H3  GOX d          -3.699   8.931   7.803  0.00  0.00     0.247 HD
ENDBRANCH   2  22
BRANCH   3  24
ATOM     24  O2  GOX d          -0.130  11.076   6.150  0.00  0.00    -0.385 OA
ATOM     25  H4  GOX d          -0.469  11.708   5.527  0.00  0.00     0.210 HD
ENDBRANCH   3  24
TORSDOF 6
ENDMDL
MODEL 6
REMARK VINA RESULT:      -4.9      1.784      4.143
REMARK  6 active torsions:
REMARK  status: ('A' for Active; 'I' for Inactive)
REMARK    1  A    between atoms: N1_2  and  O7_5 
REMARK    2  A    between atoms: C2_3  and  O2_6 
REMARK    3  A    between atoms: C3_7  and  O3_8 
REMARK    4  A    between atoms: C4_9  and  O4_10 
REMARK    5  A    between atoms: C5_11  and  C6_12 
REMARK    6  A    between atoms: C6_12  and  O6_13 
ROOT
ATOM      1  C1  GOX d          -1.403  10.416   8.735  0.00  0.00     0.159 C 
ATOM      2  N1  GOX d          -2.396   9.776   8.149  0.00  0.00    -0.120 NA
ATOM      3  C2  GOX d          -0.795   9.662   9.933  0.00  0.00     0.121 C 
ATOM      4  N5  GOX d          -0.979  11.672   8.255  0.00  0.00    -0.365 N 
ATOM      5  C3  GOX d           0.162  10.593  10.672  0.00  0.00     0.094 C 
ATOM      6  C4  GOX d           1.056  11.337   9.674  0.00  0.00     0.084 C 
ATOM      7  C5  GOX d           0.125  12.350   8.948  0.00  0.00     0.058 C 
ATOM      8  H1  GOX d          -0.232   8.795   9.557  0.00  0.00     0.099 H 
ATOM      9  H2  GOX d          -1.432  12.104   7.437  0.00  0.00     0.161 HD
ATOM     10  H5  GOX d          -0.405  11.323  11.268  0.00  0.00     0.091 H 
ATOM     11  H7  GOX d           1.478  10.629   8.946  0.00  0.00     0.090 H 
ATOM     12  H9  GOX d          -0.287  13.034   9.703  0.00  0.00     0.079 H 
ENDROOT
BRANCH   7  13
ATOM     13  C6  GOX d           0.873  13.171   7.877  0.00  0.00     0.038 C 
ATOM     14  H10 GOX d           1.199  14.124   8.319  0.00  0.00     0.077 H 
ATOM     15  H11 GOX d           0.192  13.370   7.037  0.00  0.00     0.077 H 
BRANCH  13  16
ATOM     16  O6  GOX d           2.006  12.474   7.398  0.00  0.00    -0.399 OA
ATOM     17  H12 GOX d           2.158  12.707   6.489  0.00  0.00     0.209 HD
ENDBRANCH  13  16
ENDBRANCH   7  13
BRANCH   6  18
ATOM     18  O4  GOX d           2.122  11.998  10.345  0.00  0.00    -0.391 OA
ATOM     19  H8  GOX d           2.429  12.723   9.813  0.00  0.00     0.210 HD
ENDBRANCH   6  18
BRANCH   5  20
ATOM     20  O3  GOX d           0.954   9.770  11.526  0.00  0.00    -0.390 OA
ATOM     21  H6  GOX d           1.094  10.217  12.353  0.00  0.00     0.210 HD
ENDBRANCH   5  20
BRANCH   2  22
ATOM     22  O7  GOX d          -2.995  10.357   7.029  0.00  0.00    -0.265 OA
ATOM     23  H3  GOX d          -3.115  11.287   7.182  0.00  0.00     0.247 HD
ENDBRANCH   2  22
BRANCH   3  24
ATOM     24  O2  GOX d          -1.796   9.197  10.806  0.00  0.00    -0.385 OA
ATOM     25  H4  GOX d          -1.393   8.856  11.596  0.00  0.00     0.210 HD
ENDBRANCH   3  24
TORSDOF 6
ENDMDL
MODEL 7
REMARK VINA RESULT:      -3.9      1.638      4.887
REMARK  6 active torsions:
REMARK  status: ('A' for Active; 'I' for Inactive)
REMARK    1  A    between atoms: N1_2  and  O7_5 
REMARK    2  A    between atoms: C2_3  and  O2_6 
REMARK    3  A    between atoms: C3_7  and  O3_8 
REMARK    4  A    between atoms: C4_9  and  O4_10 
REMARK    5  A    between atoms: C5_11  and  C6_12 
REMARK    6  A    between atoms: C6_12  and  O6_13 
ROOT
ATOM      1  C1  GOX d          -1.020  10.596   8.260  0.00  0.00     0.159 C 
ATOM      2  N1  GOX d          -1.383  10.569   6.993  0.00  0.00    -0.120 NA
ATOM      3  C2  GOX d          -1.638   9.470   9.111  0.00  0.00     0.121 C 
ATOM      4  N5  GOX d          -0.136  11.589   8.731  0.00  0.00    -0.365 N 
ATOM      5  C3  GOX d          -1.348   9.745  10.584  0.00  0.00     0.094 C 
ATOM      6  C4  GOX d           0.115  10.159  10.770  0.00  0.00     0.084 C 
ATOM      7  C5  GOX d           0.231  11.582  10.153  0.00  0.00     0.058 C 
ATOM      8  H1  GOX d          -1.170   8.515   8.828  0.00  0.00     0.099 H 
ATOM      9  H2  GOX d           0.244  12.302   8.092  0.00  0.00     0.161 HD
ATOM     10  H5  GOX d          -2.004  10.545  10.955  0.00  0.00     0.091 H 
ATOM     11  H7  GOX d           0.775   9.464  10.232  0.00  0.00     0.090 H 
ATOM     12  H9  GOX d          -0.446  12.249  10.705  0.00  0.00     0.079 H 
ENDROOT
BRANCH   7  13
ATOM     13  C6  GOX d           1.667  12.143  10.235  0.00  0.00     0.038 C 
ATOM     14  H10 GOX d           1.996  12.437   9.228  0.00  0.00     0.077 H 
ATOM     15  H11 GOX d           2.335  11.361  10.626  0.00  0.00     0.077 H 
BRANCH  13  16
ATOM     16  O6  GOX d           1.727  13.269  11.087  0.00  0.00    -0.399 OA
ATOM     17  H12 GOX d           0.852  13.483  11.390  0.00  0.00     0.209 HD
ENDBRANCH  13  16
ENDBRANCH   7  13
BRANCH   6  18
ATOM     18  O4  GOX d           0.470  10.159  12.148  0.00  0.00    -0.391 OA
ATOM     19  H8  GOX d          -0.256   9.822  12.661  0.00  0.00     0.210 HD
ENDBRANCH   6  18
BRANCH   5  20
ATOM     20  O3  GOX d          -1.610   8.531  11.285  0.00  0.00    -0.390 OA
ATOM     21  H6  GOX d          -1.905   8.732  12.165  0.00  0.00     0.210 HD
ENDBRANCH   5  20
BRANCH   2  22
ATOM     22  O7  GOX d          -0.851  11.527   6.126  0.00  0.00    -0.265 OA
ATOM     23  H3  GOX d          -0.084  11.922   6.525  0.00  0.00     0.247 HD
ENDBRANCH   2  22
BRANCH   3  24
ATOM     24  O2  GOX d          -3.024   9.368   8.895  0.00  0.00    -0.385 OA
ATOM     25  H4  GOX d          -3.486   9.590   9.695  0.00  0.00     0.210 HD
ENDBRANCH   3  24
TORSDOF 6
ENDMDL
MODEL 8
REMARK VINA RESULT:      -3.8      1.738      3.543
REMARK  6 active torsions:
REMARK  status: ('A' for Active; 'I' for Inactive)
REMARK    1  A    between atoms: N1_2  and  O7_5 
REMARK    2  A    between atoms: C2_3  and  O2_6 
REMARK    3  A    between atoms: C3_7  and  O3_8 
REMARK    4  A    between atoms: C4_9  and  O4_10 
REMARK    5  A    between atoms: C5_11  and  C6_12 
REMARK    6  A    between atoms: C6_12  and  O6_13 
ROOT
ATOM      1  C1  GOX d           0.520  11.239   8.843  0.00  0.00     0.159 C 
ATOM      2  N1  GOX d           1.225  12.146   8.196  0.00  0.00    -0.120 NA
ATOM      3  C2  GOX d           0.883  11.116  10.336  0.00  0.00     0.121 C 
ATOM      4  N5  GOX d          -0.468  10.489   8.174  0.00  0.00    -0.365 N 
ATOM      5  C3  GOX d           0.188   9.886  10.914  0.00  0.00     0.094 C 
ATOM      6  C4  GOX d          -1.271   9.832  10.451  0.00  0.00     0.084 C 
ATOM      7  C5  GOX d          -1.220   9.484   8.936  0.00  0.00     0.058 C 
ATOM      8  H1  GOX d           0.521  12.011  10.863  0.00  0.00     0.099 H 
ATOM      9  H2  GOX d          -0.658  10.642   7.173  0.00  0.00     0.161 HD
ATOM     10  H5  GOX d           0.707   8.972  10.591  0.00  0.00     0.091 H 
ATOM     11  H7  GOX d          -1.748  10.813  10.594  0.00  0.00     0.090 H 
ATOM     12  H9  GOX d          -0.730   8.506   8.828  0.00  0.00     0.079 H 
ENDROOT
BRANCH   7  13
ATOM     13  C6  GOX d          -2.625   9.417   8.302  0.00  0.00     0.038 C 
ATOM     14  H10 GOX d          -3.382   9.557   9.088  0.00  0.00     0.077 H 
ATOM     15  H11 GOX d          -2.760   8.431   7.834  0.00  0.00     0.077 H 
BRANCH  13  16
ATOM     16  O6  GOX d          -2.790  10.421   7.320  0.00  0.00    -0.399 OA
ATOM     17  H12 GOX d          -2.787  11.274   7.737  0.00  0.00     0.209 HD
ENDBRANCH  13  16
ENDBRANCH   7  13
BRANCH   6  18
ATOM     18  O4  GOX d          -1.999   8.855  11.186  0.00  0.00    -0.391 OA
ATOM     19  H8  GOX d          -2.868   8.761  10.812  0.00  0.00     0.210 HD
ENDBRANCH   6  18
BRANCH   5  20
ATOM     20  O3  GOX d           0.252  10.011  12.333  0.00  0.00    -0.390 OA
ATOM     21  H6  GOX d          -0.426   9.476  12.728  0.00  0.00     0.210 HD
ENDBRANCH   5  20
BRANCH   2  22
ATOM     22  O7  GOX d           0.951  12.364   6.843  0.00  0.00    -0.265 OA
ATOM     23  H3  GOX d           0.312  11.727   6.544  0.00  0.00     0.247 HD
ENDBRANCH   2  22
BRANCH   3  24
ATOM     24  O2  GOX d           2.275  11.023  10.518  0.00  0.00    -0.385 OA
ATOM     25  H4  GOX d           2.595  11.823  10.918  0.00  0.00     0.210 HD
ENDBRANCH   3  24
TORSDOF 6
ENDMDL
