MODEL 1
REMARK VINA RESULT:      -4.8      0.000      0.000
REMARK  6 active torsions:
REMARK  status: ('A' for Active; 'I' for Inactive)
REMARK    1  A    between atoms: N_1  and  CA_2 
REMARK    2  A    between atoms: CA_2  and  C_3 
REMARK    3  A    between atoms: CA_2  and  CB_5 
REMARK    4  A    between atoms: CB_5  and  CG_6 
REMARK    5  A    between atoms: CG_6  and  CD1_7 
REMARK    6  A    between atoms: CG_6  and  CD2_8 
ROOT
ATOM      1  CB  LEU d          33.915  -1.184  37.036  0.00  0.00    -0.026 C 
ATOM      2  H5  LEU d          33.708  -2.233  36.778  0.00  0.00     0.037 H 
ATOM      3  H6  LEU d          33.976  -0.586  36.115  0.00  0.00     0.037 H 
ENDROOT
BRANCH   1   4
ATOM      4  CA  LEU d          35.292  -1.149  37.682  0.00  0.00     0.182 C 
ATOM      5  H4  LEU d          35.219  -0.689  38.679  0.00  0.00     0.101 H 
BRANCH   4   6
ATOM      6  N   LEU d          36.233  -0.377  36.845  0.00  0.00    -0.065 N 
ATOM      7  H1  LEU d          36.032  -0.546  35.872  0.00  0.00     0.275 HD
ATOM      8  H2  LEU d          37.178  -0.664  37.049  0.00  0.00     0.275 HD
ATOM      9  H3  LEU d          36.131   0.606  37.044  0.00  0.00     0.275 HD
ENDBRANCH   4   6
BRANCH   4  10
ATOM     10  C   LEU d          35.819  -2.548  37.803  0.00  0.00     0.204 C 
ATOM     11  O   LEU d          36.861  -2.853  37.193  0.00  0.00    -0.646 OA
ATOM     12  OXT LEU d          35.197  -3.380  38.470  0.00  0.00    -0.646 OA
ENDBRANCH   4  10
ENDBRANCH   1   4
BRANCH   1  13
ATOM     13  CG  LEU d          32.705  -0.669  37.828  0.00  0.00    -0.059 C 
ATOM     14  H7  LEU d          31.846  -0.672  37.141  0.00  0.00     0.038 H 
BRANCH  13  15
ATOM     15  CD1 LEU d          32.346  -1.597  39.026  0.00  0.00    -0.073 C 
ATOM     16  H8  LEU d          32.941  -1.308  39.905  0.00  0.00     0.028 H 
ATOM     17  H9  LEU d          32.569  -2.642  38.761  0.00  0.00     0.028 H 
ATOM     18  H10 LEU d          31.275  -1.498  39.258  0.00  0.00     0.028 H 
ENDBRANCH  13  15
BRANCH  13  19
ATOM     19  CD2 LEU d          32.899   0.735  38.293  0.00  0.00    -0.073 C 
ATOM     20  H11 LEU d          33.946   0.878  38.602  0.00  0.00     0.028 H 
ATOM     21  H12 LEU d          32.236   0.933  39.148  0.00  0.00     0.028 H 
ATOM     22  H13 LEU d          32.660   1.429  37.475  0.00  0.00     0.028 H 
ENDBRANCH  13  19
ENDBRANCH   1  13
TORSDOF 6
ENDMDL
MODEL 2
REMARK VINA RESULT:      -4.7      1.478      1.624
REMARK  6 active torsions:
REMARK  status: ('A' for Active; 'I' for Inactive)
REMARK    1  A    between atoms: N_1  and  CA_2 
REMARK    2  A    between atoms: CA_2  and  C_3 
REMARK    3  A    between atoms: CA_2  and  CB_5 
REMARK    4  A    between atoms: CB_5  and  CG_6 
REMARK    5  A    between atoms: CG_6  and  CD1_7 
REMARK    6  A    between atoms: CG_6  and  CD2_8 
ROOT
ATOM      1  CB  LEU d          34.466  -1.005  37.776  0.00  0.00    -0.026 C 
ATOM      2  H5  LEU d          34.680  -1.508  36.821  0.00  0.00     0.037 H 
ATOM      3  H6  LEU d          34.999  -0.044  37.811  0.00  0.00     0.037 H 
ENDROOT
BRANCH   1   4
ATOM      4  CA  LEU d          35.047  -1.877  38.879  0.00  0.00     0.182 C 
ATOM      5  H4  LEU d          34.322  -2.660  39.148  0.00  0.00     0.101 H 
BRANCH   4   6
ATOM      6  N   LEU d          35.362  -1.060  40.068  0.00  0.00    -0.065 N 
ATOM      7  H1  LEU d          35.698  -1.658  40.807  0.00  0.00     0.275 HD
ATOM      8  H2  LEU d          34.531  -0.580  40.376  0.00  0.00     0.275 HD
ATOM      9  H3  LEU d          36.073  -0.385  39.833  0.00  0.00     0.275 HD
ENDBRANCH   4   6
BRANCH   4  10
ATOM     10  C   LEU d          36.321  -2.504  38.395  0.00  0.00     0.204 C 
ATOM     11  O   LEU d          37.156  -2.892  39.233  0.00  0.00    -0.646 OA
ATOM     12  OXT LEU d          36.536  -2.593  37.183  0.00  0.00    -0.646 OA
ENDBRANCH   4  10
ENDBRANCH   1   4
BRANCH   1  13
ATOM     13  CG  LEU d          32.965  -0.686  37.789  0.00  0.00    -0.059 C 
ATOM     14  H7  LEU d          32.606  -0.780  36.754  0.00  0.00     0.038 H 
BRANCH  13  15
ATOM     15  CD1 LEU d          32.155  -1.695  38.656  0.00  0.00    -0.073 C 
ATOM     16  H8  LEU d          32.248  -1.423  39.718  0.00  0.00     0.028 H 
ATOM     17  H9  LEU d          32.549  -2.710  38.502  0.00  0.00     0.028 H 
ATOM     18  H10 LEU d          31.095  -1.663  38.360  0.00  0.00     0.028 H 
ENDBRANCH  13  15
BRANCH  13  19
ATOM     19  CD2 LEU d          32.695   0.715  38.228  0.00  0.00    -0.073 C 
ATOM     20  H11 LEU d          31.913   1.154  37.591  0.00  0.00     0.028 H 
ATOM     21  H12 LEU d          33.616   1.310  38.140  0.00  0.00     0.028 H 
ATOM     22  H13 LEU d          32.359   0.713  39.274  0.00  0.00     0.028 H 
ENDBRANCH  13  19
ENDBRANCH   1  13
TORSDOF 6
ENDMDL
MODEL 3
REMARK VINA RESULT:      -4.7      1.770      2.243
REMARK  6 active torsions:
REMARK  status: ('A' for Active; 'I' for Inactive)
REMARK    1  A    between atoms: N_1  and  CA_2 
REMARK    2  A    between atoms: CA_2  and  C_3 
REMARK    3  A    between atoms: CA_2  and  CB_5 
REMARK    4  A    between atoms: CB_5  and  CG_6 
REMARK    5  A    between atoms: CG_6  and  CD1_7 
REMARK    6  A    between atoms: CG_6  and  CD2_8 
ROOT
ATOM      1  CB  LEU d          34.332  -0.701  39.179  0.00  0.00    -0.026 C 
ATOM      2  H5  LEU d          34.799  -0.069  38.410  0.00  0.00     0.037 H 
ATOM      3  H6  LEU d          34.663  -0.373  40.175  0.00  0.00     0.037 H 
ENDROOT
BRANCH   1   4
ATOM      4  CA  LEU d          34.861  -2.113  38.975  0.00  0.00     0.182 C 
ATOM      5  H4  LEU d          34.018  -2.809  38.856  0.00  0.00     0.101 H 
BRANCH   4   6
ATOM      6  N   LEU d          35.686  -2.524  40.130  0.00  0.00    -0.065 N 
ATOM      7  H1  LEU d          35.126  -3.070  40.765  0.00  0.00     0.275 HD
ATOM      8  H2  LEU d          36.031  -1.704  40.605  0.00  0.00     0.275 HD
ATOM      9  H3  LEU d          36.465  -3.077  39.806  0.00  0.00     0.275 HD
ENDBRANCH   4   6
BRANCH   4  10
ATOM     10  C   LEU d          35.727  -2.146  37.751  0.00  0.00     0.204 C 
ATOM     11  O   LEU d          36.708  -2.912  37.728  0.00  0.00    -0.646 OA
ATOM     12  OXT LEU d          35.478  -1.392  36.806  0.00  0.00    -0.646 OA
ENDBRANCH   4  10
ENDBRANCH   1   4
BRANCH   1  13
ATOM     13  CG  LEU d          32.819  -0.454  39.105  0.00  0.00    -0.059 C 
ATOM     14  H7  LEU d          32.474  -0.259  40.131  0.00  0.00     0.038 H 
BRANCH  13  15
ATOM     15  CD1 LEU d          32.468   0.800  38.250  0.00  0.00    -0.073 C 
ATOM     16  H8  LEU d          32.186   0.484  37.235  0.00  0.00     0.028 H 
ATOM     17  H9  LEU d          33.343   1.465  38.197  0.00  0.00     0.028 H 
ATOM     18  H10 LEU d          31.627   1.337  38.715  0.00  0.00     0.028 H 
ENDBRANCH  13  15
BRANCH  13  19
ATOM     19  CD2 LEU d          32.080  -1.650  38.606  0.00  0.00    -0.073 C 
ATOM     20  H11 LEU d          32.033  -2.410  39.401  0.00  0.00     0.028 H 
ATOM     21  H12 LEU d          32.604  -2.066  37.733  0.00  0.00     0.028 H 
ATOM     22  H13 LEU d          31.061  -1.357  38.316  0.00  0.00     0.028 H 
ENDBRANCH  13  19
ENDBRANCH   1  13
TORSDOF 6
ENDMDL
MODEL 4
REMARK VINA RESULT:      -4.1      1.531      1.993
REMARK  6 active torsions:
REMARK  status: ('A' for Active; 'I' for Inactive)
REMARK    1  A    between atoms: N_1  and  CA_2 
REMARK    2  A    between atoms: CA_2  and  C_3 
REMARK    3  A    between atoms: CA_2  and  CB_5 
REMARK    4  A    between atoms: CB_5  and  CG_6 
REMARK    5  A    between atoms: CG_6  and  CD1_7 
REMARK    6  A    between atoms: CG_6  and  CD2_8 
ROOT
ATOM      1  CB  LEU d          32.797  -1.301  37.905  0.00  0.00    -0.026 C 
ATOM      2  H5  LEU d          32.900  -2.359  37.622  0.00  0.00     0.037 H 
ATOM      3  H6  LEU d          31.895  -0.882  37.437  0.00  0.00     0.037 H 
ENDROOT
BRANCH   1   4
ATOM      4  CA  LEU d          33.990  -0.565  37.312  0.00  0.00     0.182 C 
ATOM      5  H4  LEU d          34.291   0.250  37.987  0.00  0.00     0.101 H 
BRANCH   4   6
ATOM      6  N   LEU d          33.645  -0.013  35.986  0.00  0.00    -0.065 N 
ATOM      7  H1  LEU d          33.505   0.982  36.063  0.00  0.00     0.275 HD
ATOM      8  H2  LEU d          32.799  -0.447  35.651  0.00  0.00     0.275 HD
ATOM      9  H3  LEU d          34.396  -0.199  35.340  0.00  0.00     0.275 HD
ENDBRANCH   4   6
BRANCH   4  10
ATOM     10  C   LEU d          35.127  -1.527  37.134  0.00  0.00     0.204 C 
ATOM     11  O   LEU d          34.915  -2.744  37.291  0.00  0.00    -0.646 OA
ATOM     12  OXT LEU d          36.255  -1.098  36.872  0.00  0.00    -0.646 OA
ENDBRANCH   4  10
ENDBRANCH   1   4
BRANCH   1  13
ATOM     13  CG  LEU d          32.575  -1.262  39.423  0.00  0.00    -0.059 C 
ATOM     14  H7  LEU d          31.489  -1.219  39.589  0.00  0.00     0.038 H 
BRANCH  13  15
ATOM     15  CD1 LEU d          33.103  -2.546  40.130  0.00  0.00    -0.073 C 
ATOM     16  H8  LEU d          34.194  -2.472  40.256  0.00  0.00     0.028 H 
ATOM     17  H9  LEU d          32.865  -3.427  39.516  0.00  0.00     0.028 H 
ATOM     18  H10 LEU d          32.625  -2.644  41.116  0.00  0.00     0.028 H 
ENDBRANCH  13  15
BRANCH  13  19
ATOM     19  CD2 LEU d          33.169  -0.042  40.044  0.00  0.00    -0.073 C 
ATOM     20  H11 LEU d          32.950  -0.035  41.122  0.00  0.00     0.028 H 
ATOM     21  H12 LEU d          32.737   0.855  39.576  0.00  0.00     0.028 H 
ATOM     22  H13 LEU d          34.258  -0.046  39.890  0.00  0.00     0.028 H 
ENDBRANCH  13  19
ENDBRANCH   1  13
TORSDOF 6
ENDMDL
MODEL 5
REMARK VINA RESULT:      -4.1      1.672      2.039
REMARK  6 active torsions:
REMARK  status: ('A' for Active; 'I' for Inactive)
REMARK    1  A    between atoms: N_1  and  CA_2 
REMARK    2  A    between atoms: CA_2  and  C_3 
REMARK    3  A    between atoms: CA_2  and  CB_5 
REMARK    4  A    between atoms: CB_5  and  CG_6 
REMARK    5  A    between atoms: CG_6  and  CD1_7 
REMARK    6  A    between atoms: CG_6  and  CD2_8 
ROOT
ATOM      1  CB  LEU d          34.199  -0.917  38.555  0.00  0.00    -0.026 C 
ATOM      2  H5  LEU d          34.519  -0.722  39.590  0.00  0.00     0.037 H 
ATOM      3  H6  LEU d          33.292  -1.538  38.564  0.00  0.00     0.037 H 
ENDROOT
BRANCH   1   4
ATOM      4  CA  LEU d          35.297  -1.740  37.898  0.00  0.00     0.182 C 
ATOM      5  H4  LEU d          35.862  -1.107  37.198  0.00  0.00     0.101 H 
BRANCH   4   6
ATOM      6  N   LEU d          34.715  -2.888  37.174  0.00  0.00    -0.065 N 
ATOM      7  H1  LEU d          34.787  -3.716  37.744  0.00  0.00     0.275 HD
ATOM      8  H2  LEU d          35.216  -3.030  36.311  0.00  0.00     0.275 HD
ATOM      9  H3  LEU d          33.745  -2.701  36.972  0.00  0.00     0.275 HD
ENDBRANCH   4   6
BRANCH   4  10
ATOM     10  C   LEU d          36.216  -2.276  38.956  0.00  0.00     0.204 C 
ATOM     11  O   LEU d          37.085  -3.107  38.634  0.00  0.00    -0.646 OA
ATOM     12  OXT LEU d          36.073  -1.915  40.129  0.00  0.00    -0.646 OA
ENDBRANCH   4  10
ENDBRANCH   1   4
BRANCH   1  13
ATOM     13  CG  LEU d          33.811   0.435  37.943  0.00  0.00    -0.059 C 
ATOM     14  H7  LEU d          34.506   1.185  38.350  0.00  0.00     0.038 H 
BRANCH  13  15
ATOM     15  CD1 LEU d          33.970   0.448  36.393  0.00  0.00    -0.073 C 
ATOM     16  H8  LEU d          34.439   1.393  36.080  0.00  0.00     0.028 H 
ATOM     17  H9  LEU d          32.979   0.357  35.922  0.00  0.00     0.028 H 
ATOM     18  H10 LEU d          34.603  -0.397  36.083  0.00  0.00     0.028 H 
ENDBRANCH  13  15
BRANCH  13  19
ATOM     19  CD2 LEU d          32.431   0.849  38.330  0.00  0.00    -0.073 C 
ATOM     20  H11 LEU d          32.284   1.911  38.082  0.00  0.00     0.028 H 
ATOM     21  H12 LEU d          32.295   0.704  39.412  0.00  0.00     0.028 H 
ATOM     22  H13 LEU d          31.698   0.239  37.783  0.00  0.00     0.028 H 
ENDBRANCH  13  19
ENDBRANCH   1  13
TORSDOF 6
ENDMDL
MODEL 6
REMARK VINA RESULT:      -3.9      2.442      3.767
REMARK  6 active torsions:
REMARK  status: ('A' for Active; 'I' for Inactive)
REMARK    1  A    between atoms: N_1  and  CA_2 
REMARK    2  A    between atoms: CA_2  and  C_3 
REMARK    3  A    between atoms: CA_2  and  CB_5 
REMARK    4  A    between atoms: CB_5  and  CG_6 
REMARK    5  A    between atoms: CG_6  and  CD1_7 
REMARK    6  A    between atoms: CG_6  and  CD2_8 
ROOT
ATOM      1  CB  LEU d          35.365  -1.016  37.296  0.00  0.00    -0.026 C 
ATOM      2  H5  LEU d          35.740  -0.350  38.088  0.00  0.00     0.037 H 
ATOM      3  H6  LEU d          35.871  -0.779  36.349  0.00  0.00     0.037 H 
ENDROOT
BRANCH   1   4
ATOM      4  CA  LEU d          33.890  -0.694  37.106  0.00  0.00     0.182 C 
ATOM      5  H4  LEU d          33.308  -1.627  37.101  0.00  0.00     0.101 H 
BRANCH   4   6
ATOM      6  N   LEU d          33.682   0.030  35.835  0.00  0.00    -0.065 N 
ATOM      7  H1  LEU d          34.573   0.310  35.459  0.00  0.00     0.275 HD
ATOM      8  H2  LEU d          33.116   0.847  36.003  0.00  0.00     0.275 HD
ATOM      9  H3  LEU d          33.213  -0.574  35.178  0.00  0.00     0.275 HD
ENDBRANCH   4   6
BRANCH   4  10
ATOM     10  C   LEU d          33.428   0.191  38.226  0.00  0.00     0.204 C 
ATOM     11  O   LEU d          33.815  -0.053  39.384  0.00  0.00    -0.646 OA
ATOM     12  OXT LEU d          32.648   1.119  37.990  0.00  0.00    -0.646 OA
ENDBRANCH   4  10
ENDBRANCH   1   4
BRANCH   1  13
ATOM     13  CG  LEU d          35.774  -2.444  37.679  0.00  0.00    -0.059 C 
ATOM     14  H7  LEU d          36.185  -2.915  36.775  0.00  0.00     0.038 H 
BRANCH  13  15
ATOM     15  CD1 LEU d          36.892  -2.466  38.764  0.00  0.00    -0.073 C 
ATOM     16  H8  LEU d          36.664  -1.721  39.540  0.00  0.00     0.028 H 
ATOM     17  H9  LEU d          37.860  -2.226  38.299  0.00  0.00     0.028 H 
ATOM     18  H10 LEU d          36.941  -3.467  39.219  0.00  0.00     0.028 H 
ENDBRANCH  13  15
BRANCH  13  19
ATOM     19  CD2 LEU d          34.605  -3.262  38.116  0.00  0.00    -0.073 C 
ATOM     20  H11 LEU d          33.710  -2.948  37.560  0.00  0.00     0.028 H 
ATOM     21  H12 LEU d          34.437  -3.115  39.193  0.00  0.00     0.028 H 
ATOM     22  H13 LEU d          34.807  -4.325  37.918  0.00  0.00     0.028 H 
ENDBRANCH  13  19
ENDBRANCH   1  13
TORSDOF 6
ENDMDL
MODEL 7
REMARK VINA RESULT:      -3.4      1.942      2.438
REMARK  6 active torsions:
REMARK  status: ('A' for Active; 'I' for Inactive)
REMARK    1  A    between atoms: N_1  and  CA_2 
REMARK    2  A    between atoms: CA_2  and  C_3 
REMARK    3  A    between atoms: CA_2  and  CB_5 
REMARK    4  A    between atoms: CB_5  and  CG_6 
REMARK    5  A    between atoms: CG_6  and  CD1_7 
REMARK    6  A    between atoms: CG_6  and  CD2_8 
ROOT
ATOM      1  CB  LEU d          34.801  -0.059  38.234  0.00  0.00    -0.026 C 
ATOM      2  H5  LEU d          35.344  -0.626  37.464  0.00  0.00     0.037 H 
ATOM      3  H6  LEU d          35.485   0.660  38.709  0.00  0.00     0.037 H 
ENDROOT
BRANCH   1   4
ATOM      4  CA  LEU d          34.384  -1.053  39.307  0.00  0.00     0.182 C 
ATOM      5  H4  LEU d          33.612  -0.600  39.947  0.00  0.00     0.101 H 
BRANCH   4   6
ATOM      6  N   LEU d          35.548  -1.440  40.129  0.00  0.00    -0.065 N 
ATOM      7  H1  LEU d          35.427  -1.093  41.068  0.00  0.00     0.275 HD
ATOM      8  H2  LEU d          36.386  -1.048  39.731  0.00  0.00     0.275 HD
ATOM      9  H3  LEU d          35.625  -2.446  40.150  0.00  0.00     0.275 HD
ENDBRANCH   4   6
BRANCH   4  10
ATOM     10  C   LEU d          33.844  -2.290  38.653  0.00  0.00     0.204 C 
ATOM     11  O   LEU d          34.624  -3.021  38.015  0.00  0.00    -0.646 OA
ATOM     12  OXT LEU d          32.638  -2.544  38.726  0.00  0.00    -0.646 OA
ENDBRANCH   4  10
ENDBRANCH   1   4
BRANCH   1  13
ATOM     13  CG  LEU d          33.721   0.759  37.512  0.00  0.00    -0.059 C 
ATOM     14  H7  LEU d          34.113   1.780  37.396  0.00  0.00     0.038 H 
BRANCH  13  15
ATOM     15  CD1 LEU d          33.422   0.211  36.085  0.00  0.00    -0.073 C 
ATOM     16  H8  LEU d          32.521   0.699  35.686  0.00  0.00     0.028 H 
ATOM     17  H9  LEU d          33.256  -0.876  36.137  0.00  0.00     0.028 H 
ATOM     18  H10 LEU d          34.277   0.421  35.425  0.00  0.00     0.028 H 
ENDBRANCH  13  15
BRANCH  13  19
ATOM     19  CD2 LEU d          32.464   0.852  38.311  0.00  0.00    -0.073 C 
ATOM     20  H11 LEU d          32.516   0.152  39.158  0.00  0.00     0.028 H 
ATOM     21  H12 LEU d          31.605   0.594  37.674  0.00  0.00     0.028 H 
ATOM     22  H13 LEU d          32.345   1.878  38.688  0.00  0.00     0.028 H 
ENDBRANCH  13  19
ENDBRANCH   1  13
TORSDOF 6
ENDMDL
MODEL 8
REMARK VINA RESULT:      -3.3      2.586      3.175
REMARK  6 active torsions:
REMARK  status: ('A' for Active; 'I' for Inactive)
REMARK    1  A    between atoms: N_1  and  CA_2 
REMARK    2  A    between atoms: CA_2  and  C_3 
REMARK    3  A    between atoms: CA_2  and  CB_5 
REMARK    4  A    between atoms: CB_5  and  CG_6 
REMARK    5  A    between atoms: CG_6  and  CD1_7 
REMARK    6  A    between atoms: CG_6  and  CD2_8 
ROOT
ATOM      1  CB  LEU d          34.197  -0.737  39.259  0.00  0.00    -0.026 C 
ATOM      2  H5  LEU d          34.568  -0.316  40.205  0.00  0.00     0.037 H 
ATOM      3  H6  LEU d          34.986  -1.347  38.795  0.00  0.00     0.037 H 
ENDROOT
BRANCH   1   4
ATOM      4  CA  LEU d          33.929   0.434  38.325  0.00  0.00     0.182 C 
ATOM      5  H4  LEU d          34.507   1.308  38.658  0.00  0.00     0.101 H 
BRANCH   4   6
ATOM      6  N   LEU d          32.490   0.762  38.312  0.00  0.00    -0.065 N 
ATOM      7  H1  LEU d          32.095   0.578  39.221  0.00  0.00     0.275 HD
ATOM      8  H2  LEU d          32.022   0.195  37.622  0.00  0.00     0.275 HD
ATOM      9  H3  LEU d          32.369   1.737  38.083  0.00  0.00     0.275 HD
ENDBRANCH   4   6
BRANCH   4  10
ATOM     10  C   LEU d          34.333   0.056  36.930  0.00  0.00     0.204 C 
ATOM     11  O   LEU d          35.306  -0.703  36.771  0.00  0.00    -0.646 OA
ATOM     12  OXT LEU d          33.721   0.529  35.968  0.00  0.00    -0.646 OA
ENDBRANCH   4  10
ENDBRANCH   1   4
BRANCH   1  13
ATOM     13  CG  LEU d          33.045  -1.688  39.613  0.00  0.00    -0.059 C 
ATOM     14  H7  LEU d          32.470  -1.212  40.421  0.00  0.00     0.038 H 
BRANCH  13  15
ATOM     15  CD1 LEU d          32.072  -1.907  38.416  0.00  0.00    -0.073 C 
ATOM     16  H8  LEU d          31.157  -1.317  38.575  0.00  0.00     0.028 H 
ATOM     17  H9  LEU d          31.812  -2.974  38.345  0.00  0.00     0.028 H 
ATOM     18  H10 LEU d          32.560  -1.584  37.484  0.00  0.00     0.028 H 
ENDBRANCH  13  15
BRANCH  13  19
ATOM     19  CD2 LEU d          33.540  -2.998  40.130  0.00  0.00    -0.073 C 
ATOM     20  H11 LEU d          34.435  -2.832  40.750  0.00  0.00     0.028 H 
ATOM     21  H12 LEU d          33.797  -3.652  39.284  0.00  0.00     0.028 H 
ATOM     22  H13 LEU d          32.756  -3.473  40.736  0.00  0.00     0.028 H 
ENDBRANCH  13  19
ENDBRANCH   1  13
TORSDOF 6
ENDMDL
MODEL 9
REMARK VINA RESULT:      -3.1      1.361      1.606
REMARK  6 active torsions:
REMARK  status: ('A' for Active; 'I' for Inactive)
REMARK    1  A    between atoms: N_1  and  CA_2 
REMARK    2  A    between atoms: CA_2  and  C_3 
REMARK    3  A    between atoms: CA_2  and  CB_5 
REMARK    4  A    between atoms: CB_5  and  CG_6 
REMARK    5  A    between atoms: CG_6  and  CD1_7 
REMARK    6  A    between atoms: CG_6  and  CD2_8 
ROOT
ATOM      1  CB  LEU d          34.390  -0.391  37.911  0.00  0.00    -0.026 C 
ATOM      2  H5  LEU d          33.788   0.112  37.141  0.00  0.00     0.037 H 
ATOM      3  H6  LEU d          35.000   0.354  38.443  0.00  0.00     0.037 H 
ENDROOT
BRANCH   1   4
ATOM      4  CA  LEU d          35.352  -1.321  37.187  0.00  0.00     0.182 C 
ATOM      5  H4  LEU d          36.210  -0.742  36.812  0.00  0.00     0.101 H 
BRANCH   4   6
ATOM      6  N   LEU d          34.671  -1.989  36.060  0.00  0.00    -0.065 N 
ATOM      7  H1  LEU d          35.298  -2.041  35.272  0.00  0.00     0.275 HD
ATOM      8  H2  LEU d          33.851  -1.461  35.803  0.00  0.00     0.275 HD
ATOM      9  H3  LEU d          34.399  -2.920  36.336  0.00  0.00     0.275 HD
ENDBRANCH   4   6
BRANCH   4  10
ATOM     10  C   LEU d          35.827  -2.380  38.137  0.00  0.00     0.204 C 
ATOM     11  O   LEU d          36.755  -2.112  38.922  0.00  0.00    -0.646 OA
ATOM     12  OXT LEU d          35.318  -3.505  38.101  0.00  0.00    -0.646 OA
ENDBRANCH   4  10
ENDBRANCH   1   4
BRANCH   1  13
ATOM     13  CG  LEU d          33.409  -0.981  38.934  0.00  0.00    -0.059 C 
ATOM     14  H7  LEU d          33.942  -1.781  39.467  0.00  0.00     0.038 H 
BRANCH  13  15
ATOM     15  CD1 LEU d          32.963   0.068  39.996  0.00  0.00    -0.073 C 
ATOM     16  H8  LEU d          32.303   0.810  39.523  0.00  0.00     0.028 H 
ATOM     17  H9  LEU d          33.849   0.576  40.406  0.00  0.00     0.028 H 
ATOM     18  H10 LEU d          32.422  -0.440  40.808  0.00  0.00     0.028 H 
ENDBRANCH  13  15
BRANCH  13  19
ATOM     19  CD2 LEU d          32.220  -1.598  38.277  0.00  0.00    -0.073 C 
ATOM     20  H11 LEU d          31.883  -0.953  37.451  0.00  0.00     0.028 H 
ATOM     21  H12 LEU d          31.410  -1.705  39.012  0.00  0.00     0.028 H 
ATOM     22  H13 LEU d          32.492  -2.588  37.883  0.00  0.00     0.028 H 
ENDBRANCH  13  19
ENDBRANCH   1  13
TORSDOF 6
ENDMDL
MODEL 10
REMARK VINA RESULT:      -2.7      2.705      3.396
REMARK  6 active torsions:
REMARK  status: ('A' for Active; 'I' for Inactive)
REMARK    1  A    between atoms: N_1  and  CA_2 
REMARK    2  A    between atoms: CA_2  and  C_3 
REMARK    3  A    between atoms: CA_2  and  CB_5 
REMARK    4  A    between atoms: CB_5  and  CG_6 
REMARK    5  A    between atoms: CG_6  and  CD1_7 
REMARK    6  A    between atoms: CG_6  and  CD2_8 
ROOT
ATOM      1  CB  LEU d          33.567  -0.520  39.285  0.00  0.00    -0.026 C 
ATOM      2  H5  LEU d          32.761  -0.422  40.027  0.00  0.00     0.037 H 
ATOM      3  H6  LEU d          34.541  -0.486  39.795  0.00  0.00     0.037 H 
ENDROOT
BRANCH   1   4
ATOM      4  CA  LEU d          33.493   0.705  38.385  0.00  0.00     0.182 C 
ATOM      5  H4  LEU d          34.048   1.535  38.847  0.00  0.00     0.101 H 
BRANCH   4   6
ATOM      6  N   LEU d          32.086   1.103  38.173  0.00  0.00    -0.065 N 
ATOM      7  H1  LEU d          31.531   0.804  38.959  0.00  0.00     0.275 HD
ATOM      8  H2  LEU d          31.738   0.671  37.332  0.00  0.00     0.275 HD
ATOM      9  H3  LEU d          32.030   2.106  38.084  0.00  0.00     0.275 HD
ENDBRANCH   4   6
BRANCH   4  10
ATOM     10  C   LEU d          34.088   0.374  37.048  0.00  0.00     0.204 C 
ATOM     11  O   LEU d          35.325   0.270  36.950  0.00  0.00    -0.646 OA
ATOM     12  OXT LEU d          33.351   0.247  36.066  0.00  0.00    -0.646 OA
ENDBRANCH   4  10
ENDBRANCH   1   4
BRANCH   1  13
ATOM     13  CG  LEU d          33.436  -1.915  38.659  0.00  0.00    -0.059 C 
ATOM     14  H7  LEU d          33.160  -1.771  37.605  0.00  0.00     0.038 H 
BRANCH  13  15
ATOM     15  CD1 LEU d          34.780  -2.702  38.686  0.00  0.00    -0.073 C 
ATOM     16  H8  LEU d          35.521  -2.181  38.062  0.00  0.00     0.028 H 
ATOM     17  H9  LEU d          34.619  -3.717  38.293  0.00  0.00     0.028 H 
ATOM     18  H10 LEU d          35.148  -2.762  39.721  0.00  0.00     0.028 H 
ENDBRANCH  13  15
BRANCH  13  19
ATOM     19  CD2 LEU d          32.350  -2.714  39.299  0.00  0.00    -0.073 C 
ATOM     20  H11 LEU d          32.350  -2.530  40.384  0.00  0.00     0.028 H 
ATOM     21  H12 LEU d          32.521  -3.783  39.108  0.00  0.00     0.028 H 
ATOM     22  H13 LEU d          31.379  -2.417  38.876  0.00  0.00     0.028 H 
ENDBRANCH  13  19
ENDBRANCH   1  13
TORSDOF 6
ENDMDL
