MODEL 1
REMARK VINA RESULT:      -9.1      0.000      0.000
REMARK  7 active torsions:
REMARK  status: ('A' for Active; 'I' for Inactive)
REMARK    1  A    between atoms: C1_1  and  C6_6 
REMARK    2  A    between atoms: C7_7  and  C2_2 
REMARK    3  A    between atoms: N4_4  and  C33_33 
REMARK       I    between atoms: C6_6  and  N11_11 
REMARK       I    between atoms: N8_8  and  C7_7 
REMARK    4  A    between atoms: C19_19  and  N8_8 
REMARK    5  A    between atoms: N11_11  and  C12_12 
REMARK    6  A    between atoms: N25_25  and  C21_21 
REMARK    7  A    between atoms: C33_33  and  C34_34 
ROOT
ATOM      1  C1  XBV d           8.509  67.790   4.137  0.00  0.00     0.060 C 
ATOM      2  C2  XBV d           7.631  67.407   2.935  0.00  0.00     0.060 C 
ATOM      3  C3  XBV d           6.609  68.559   2.820  0.00  0.00     0.096 C 
ATOM      4  N4  XBV d           7.413  69.731   3.289  0.00  0.00    -0.064 N 
ATOM      5  C5  XBV d           8.239  69.279   4.435  0.00  0.00     0.096 C 
ATOM      6  H1  XBV d           8.181  67.201   5.006  0.00  0.00     0.058 H 
ATOM      7  H2  XBV d           8.235  67.333   2.018  0.00  0.00     0.058 H 
ATOM      8  H3  XBV d           5.737  68.386   3.467  0.00  0.00     0.077 H 
ATOM      9  H4  XBV d           6.273  68.694   1.781  0.00  0.00     0.077 H 
ATOM     10  H5  XBV d           8.013  70.046   2.543  0.00  0.00     0.280 HD
ATOM     11  H6  XBV d           9.182  69.845   4.485  0.00  0.00     0.077 H 
ATOM     12  H7  XBV d           7.691  69.395   5.382  0.00  0.00     0.077 H 
ENDROOT
BRANCH   2  13
ATOM     13  C7  XBV d           6.942  66.085   3.194  0.00  0.00     0.229 C 
ATOM     14  N8  XBV d           7.718  65.041   3.075  0.00  0.00    -0.324 N 
ATOM     15  H8  XBV d           8.683  65.211   2.873  0.00  0.00     0.169 HD
ATOM     16  O9  XBV d           5.776  65.999   3.546  0.00  0.00    -0.273 OA
BRANCH  14  17
ATOM     17  C19 XBV d           7.315  63.694   3.205  0.00  0.00     0.073 A 
ATOM     18  C20 XBV d           6.688  63.167   4.340  0.00  0.00    -0.052 A 
ATOM     19  C23 XBV d           6.388  61.801   4.357  0.00  0.00    -0.054 A 
ATOM     20  H13 XBV d           6.442  63.800   5.184  0.00  0.00     0.087 H 
ATOM     21  C21 XBV d           6.765  61.008   3.269  0.00  0.00     0.045 A 
ATOM     22  H15 XBV d           5.869  61.364   5.202  0.00  0.00     0.087 H 
ATOM     23  C22 XBV d           7.400  61.542   2.138  0.00  0.00    -0.017 A 
ATOM     24  C24 XBV d           7.629  62.925   2.120  0.00  0.00     0.145 A 
ATOM     25  H14 XBV d           7.701  60.911   1.310  0.00  0.00     0.091 H 
ATOM     26  F32 XBV d           8.257  63.461   1.063  0.00  0.00    -0.204 F 
BRANCH  21  27
ATOM     27  N25 XBV d           6.494  59.607   3.224  0.00  0.00    -0.290 N 
ATOM     28  C26 XBV d           7.423  58.700   3.755  0.00  0.00    -0.011 A 
ATOM     29  C29 XBV d           7.198  57.358   3.696  0.00  0.00    -0.067 A 
ATOM     30  H16 XBV d           8.335  59.073   4.221  0.00  0.00     0.112 H 
ATOM     31  C27 XBV d           6.022  56.860   3.119  0.00  0.00    -0.076 A 
ATOM     32  H19 XBV d           7.937  56.666   4.098  0.00  0.00     0.085 H 
ATOM     33  C28 XBV d           5.094  57.733   2.595  0.00  0.00    -0.017 A 
ATOM     34  H17 XBV d           5.843  55.787   3.086  0.00  0.00     0.083 H 
ATOM     35  C30 XBV d           5.305  59.158   2.636  0.00  0.00     0.252 A 
ATOM     36  H18 XBV d           4.185  57.340   2.143  0.00  0.00     0.092 H 
ATOM     37  O31 XBV d           4.499  59.963   2.154  0.00  0.00    -0.268 OA
ENDBRANCH  21  27
ENDBRANCH  14  17
ENDBRANCH   2  13
BRANCH   1  38
ATOM     38  C6  XBV d           9.966  67.471   3.912  0.00  0.00     0.230 C 
ATOM     39  O10 XBV d          10.743  68.278   3.425  0.00  0.00    -0.273 OA
ATOM     40  N11 XBV d          10.382  66.277   4.390  0.00  0.00    -0.311 N 
ATOM     41  H9  XBV d           9.725  65.786   4.962  0.00  0.00     0.170 HD
BRANCH  40  42
ATOM     42  C12 XBV d          11.605  65.639   4.193  0.00  0.00     0.129 A 
ATOM     43  N13 XBV d          12.536  65.689   5.160  0.00  0.00    -0.242 NA
ATOM     44  C16 XBV d          13.801  65.232   4.965  0.00  0.00     0.025 A 
ATOM     45  C14 XBV d          14.183  64.726   3.706  0.00  0.00     0.051 A 
ATOM     46  H11 XBV d          14.517  65.255   5.778  0.00  0.00     0.117 H 
ATOM     47  C15 XBV d          13.227  64.684   2.672  0.00  0.00    -0.057 A 
ATOM     48 CL1  XBV d          15.814  64.228   3.382  0.00  0.00    -0.083 Cl
ATOM     49  C17 XBV d          11.937  65.162   2.916  0.00  0.00    -0.037 A 
ATOM     50  H10 XBV d          13.489  64.285   1.699  0.00  0.00     0.086 H 
ATOM     51  H12 XBV d          11.198  65.165   2.124  0.00  0.00     0.089 H 
ENDBRANCH  40  42
ENDBRANCH   1  38
BRANCH   4  52
ATOM     52  C33 XBV d           6.538  70.843   3.697  0.00  0.00     0.137 C 
ATOM     53  H20 XBV d           6.580  70.949   4.791  0.00  0.00     0.084 H 
ATOM     54  H21 XBV d           5.506  70.616   3.391  0.00  0.00     0.084 H 
BRANCH  52  55
ATOM     55  C34 XBV d           6.969  72.161   3.052  0.00  0.00     0.231 C 
ATOM     56  F35 XBV d           8.328  72.179   2.724  0.00  0.00    -0.213 F 
ATOM     57  F36 XBV d           6.303  72.255   1.849  0.00  0.00    -0.213 F 
ATOM     58  H22 XBV d           6.724  73.003   3.717  0.00  0.00     0.147 H 
ENDBRANCH  52  55
ENDBRANCH   4  52
TORSDOF 7
ENDMDL
MODEL 2
REMARK VINA RESULT:      -7.5      3.771      5.962
REMARK  7 active torsions:
REMARK  status: ('A' for Active; 'I' for Inactive)
REMARK    1  A    between atoms: C1_1  and  C6_6 
REMARK    2  A    between atoms: C7_7  and  C2_2 
REMARK    3  A    between atoms: N4_4  and  C33_33 
REMARK       I    between atoms: C6_6  and  N11_11 
REMARK       I    between atoms: N8_8  and  C7_7 
REMARK    4  A    between atoms: C19_19  and  N8_8 
REMARK    5  A    between atoms: N11_11  and  C12_12 
REMARK    6  A    between atoms: N25_25  and  C21_21 
REMARK    7  A    between atoms: C33_33  and  C34_34 
ROOT
ATOM      1  C1  XBV d           9.228  66.769   2.096  0.00  0.00     0.060 C 
ATOM      2  C2  XBV d           8.842  66.029   3.387  0.00  0.00     0.060 C 
ATOM      3  C3  XBV d          10.191  65.647   4.032  0.00  0.00     0.096 C 
ATOM      4  N4  XBV d          11.065  66.789   3.617  0.00  0.00    -0.064 N 
ATOM      5  C5  XBV d          10.723  67.128   2.214  0.00  0.00     0.096 C 
ATOM      6  H1  XBV d           9.108  66.076   1.251  0.00  0.00     0.058 H 
ATOM      7  H2  XBV d           8.265  66.686   4.056  0.00  0.00     0.058 H 
ATOM      8  H3  XBV d          10.566  64.691   3.638  0.00  0.00     0.077 H 
ATOM      9  H4  XBV d          10.107  65.584   5.127  0.00  0.00     0.077 H 
ATOM     10  H5  XBV d          10.884  67.583   4.210  0.00  0.00     0.280 HD
ATOM     11  H6  XBV d          10.884  68.200   2.021  0.00  0.00     0.077 H 
ATOM     12  H7  XBV d          11.325  66.534   1.510  0.00  0.00     0.077 H 
ENDROOT
BRANCH   2  13
ATOM     13  C7  XBV d           8.022  64.801   3.056  0.00  0.00     0.229 C 
ATOM     14  N8  XBV d           8.557  63.675   3.445  0.00  0.00    -0.324 N 
ATOM     15  H8  XBV d           9.417  63.731   3.954  0.00  0.00     0.169 HD
ATOM     16  O9  XBV d           6.923  64.857   2.525  0.00  0.00    -0.273 OA
BRANCH  14  17
ATOM     17  C19 XBV d           8.031  62.386   3.211  0.00  0.00     0.073 A 
ATOM     18  C20 XBV d           8.327  61.608   2.087  0.00  0.00    -0.052 A 
ATOM     19  C23 XBV d           7.696  60.367   1.955  0.00  0.00    -0.054 A 
ATOM     20  H13 XBV d           9.028  61.957   1.338  0.00  0.00     0.087 H 
ATOM     21  C21 XBV d           6.761  59.973   2.917  0.00  0.00     0.045 A 
ATOM     22  H15 XBV d           7.928  59.719   1.117  0.00  0.00     0.087 H 
ATOM     23  C22 XBV d           6.464  60.762   4.038  0.00  0.00    -0.017 A 
ATOM     24  C24 XBV d           7.161  61.970   4.180  0.00  0.00     0.145 A 
ATOM     25  H14 XBV d           5.725  60.450   4.767  0.00  0.00     0.091 H 
ATOM     26  F32 XBV d           6.880  62.758   5.228  0.00  0.00    -0.204 F 
BRANCH  21  27
ATOM     27  N25 XBV d           6.077  58.722   2.840  0.00  0.00    -0.290 N 
ATOM     28  C26 XBV d           4.806  58.658   2.248  0.00  0.00    -0.011 A 
ATOM     29  C29 XBV d           4.124  57.481   2.191  0.00  0.00    -0.067 A 
ATOM     30  H16 XBV d           4.361  59.560   1.829  0.00  0.00     0.112 H 
ATOM     31  C27 XBV d           4.688  56.308   2.706  0.00  0.00    -0.076 A 
ATOM     32  H19 XBV d           3.132  57.452   1.743  0.00  0.00     0.085 H 
ATOM     33  C28 XBV d           5.937  56.346   3.288  0.00  0.00    -0.017 A 
ATOM     34  H17 XBV d           4.142  55.368   2.647  0.00  0.00     0.083 H 
ATOM     35  C30 XBV d           6.682  57.576   3.371  0.00  0.00     0.252 A 
ATOM     36  H18 XBV d           6.368  55.431   3.692  0.00  0.00     0.092 H 
ATOM     37  O31 XBV d           7.795  57.645   3.907  0.00  0.00    -0.268 OA
ENDBRANCH  21  27
ENDBRANCH  14  17
ENDBRANCH   2  13
BRANCH   1  38
ATOM     38  C6  XBV d           8.339  67.957   1.824  0.00  0.00     0.230 C 
ATOM     39  O10 XBV d           8.383  68.578   0.773  0.00  0.00    -0.273 OA
ATOM     40  N11 XBV d           7.409  68.219   2.771  0.00  0.00    -0.311 N 
ATOM     41  H9  XBV d           7.310  67.526   3.485  0.00  0.00     0.170 HD
BRANCH  40  42
ATOM     42  C12 XBV d           6.570  69.325   2.884  0.00  0.00     0.129 A 
ATOM     43  N13 XBV d           6.902  70.317   3.726  0.00  0.00    -0.242 NA
ATOM     44  C16 XBV d           6.050  71.340   4.004  0.00  0.00     0.025 A 
ATOM     45  C14 XBV d           4.760  71.357   3.439  0.00  0.00     0.051 A 
ATOM     46  H11 XBV d           6.365  72.143   4.661  0.00  0.00     0.117 H 
ATOM     47  C15 XBV d           4.384  70.314   2.570  0.00  0.00    -0.057 A 
ATOM     48 CL1  XBV d           3.604  72.586   3.848  0.00  0.00    -0.083 Cl
ATOM     49  C17 XBV d           5.291  69.284   2.309  0.00  0.00    -0.037 A 
ATOM     50  H10 XBV d           3.403  70.311   2.109  0.00  0.00     0.086 H 
ATOM     51  H12 XBV d           5.008  68.458   1.667  0.00  0.00     0.089 H 
ENDBRANCH  40  42
ENDBRANCH   1  38
BRANCH   4  52
ATOM     52  C33 XBV d          12.489  66.430   3.724  0.00  0.00     0.137 C 
ATOM     53  H20 XBV d          12.867  66.754   4.705  0.00  0.00     0.084 H 
ATOM     54  H21 XBV d          13.048  66.944   2.928  0.00  0.00     0.084 H 
BRANCH  52  55
ATOM     55  C34 XBV d          12.699  64.921   3.584  0.00  0.00     0.231 C 
ATOM     56  F35 XBV d          13.207  64.564   2.331  0.00  0.00    -0.213 F 
ATOM     57  F36 XBV d          13.679  64.568   4.487  0.00  0.00    -0.213 F 
ATOM     58  H22 XBV d          11.756  64.389   3.781  0.00  0.00     0.147 H 
ENDBRANCH  52  55
ENDBRANCH   4  52
TORSDOF 7
ENDMDL
MODEL 3
REMARK VINA RESULT:      -6.5      3.627      8.890
REMARK  7 active torsions:
REMARK  status: ('A' for Active; 'I' for Inactive)
REMARK    1  A    between atoms: C1_1  and  C6_6 
REMARK    2  A    between atoms: C7_7  and  C2_2 
REMARK    3  A    between atoms: N4_4  and  C33_33 
REMARK       I    between atoms: C6_6  and  N11_11 
REMARK       I    between atoms: N8_8  and  C7_7 
REMARK    4  A    between atoms: C19_19  and  N8_8 
REMARK    5  A    between atoms: N11_11  and  C12_12 
REMARK    6  A    between atoms: N25_25  and  C21_21 
REMARK    7  A    between atoms: C33_33  and  C34_34 
ROOT
ATOM      1  C1  XBV d           8.850  63.215   2.394  0.00  0.00     0.060 C 
ATOM      2  C2  XBV d           8.216  63.521   1.028  0.00  0.00     0.060 C 
ATOM      3  C3  XBV d           9.418  63.734   0.082  0.00  0.00     0.096 C 
ATOM      4  N4  XBV d          10.433  62.798   0.659  0.00  0.00    -0.064 N 
ATOM      5  C5  XBV d          10.334  62.884   2.137  0.00  0.00     0.096 C 
ATOM      6  H1  XBV d           8.804  64.126   3.008  0.00  0.00     0.058 H 
ATOM      7  H2  XBV d           7.599  62.677   0.685  0.00  0.00     0.058 H 
ATOM      8  H3  XBV d           9.771  64.776   0.113  0.00  0.00     0.077 H 
ATOM      9  H4  XBV d           9.166  63.463  -0.954  0.00  0.00     0.077 H 
ATOM     10  H5  XBV d          10.228  61.857   0.361  0.00  0.00     0.280 HD
ATOM     11  H6  XBV d          10.608  61.925   2.604  0.00  0.00     0.077 H 
ATOM     12  H7  XBV d          10.986  63.680   2.526  0.00  0.00     0.077 H 
ENDROOT
BRANCH   2  13
ATOM     13  C7  XBV d           7.361  64.767   1.119  0.00  0.00     0.229 C 
ATOM     14  N8  XBV d           7.384  65.352   2.286  0.00  0.00    -0.324 N 
ATOM     15  H8  XBV d           7.987  64.959   2.981  0.00  0.00     0.169 HD
ATOM     16  O9  XBV d           6.747  65.224   0.167  0.00  0.00    -0.273 OA
BRANCH  14  17
ATOM     17  C19 XBV d           6.634  66.491   2.654  0.00  0.00     0.073 A 
ATOM     18  C20 XBV d           5.270  66.467   2.964  0.00  0.00    -0.052 A 
ATOM     19  C23 XBV d           4.638  67.678   3.263  0.00  0.00    -0.054 A 
ATOM     20  H13 XBV d           4.718  65.535   2.972  0.00  0.00     0.087 H 
ATOM     21  C21 XBV d           5.373  68.865   3.194  0.00  0.00     0.045 A 
ATOM     22  H15 XBV d           3.592  67.696   3.545  0.00  0.00     0.087 H 
ATOM     23  C22 XBV d           6.739  68.881   2.875  0.00  0.00    -0.017 A 
ATOM     24  C24 XBV d           7.363  67.648   2.645  0.00  0.00     0.145 A 
ATOM     25  H14 XBV d           7.291  69.812   2.809  0.00  0.00     0.091 H 
ATOM     26  F32 XBV d           8.662  67.632   2.313  0.00  0.00    -0.204 F 
BRANCH  21  27
ATOM     27  N25 XBV d           4.788  70.135   3.481  0.00  0.00    -0.290 N 
ATOM     28  C26 XBV d           4.651  70.554   4.814  0.00  0.00    -0.011 A 
ATOM     29  C29 XBV d           4.068  71.749   5.111  0.00  0.00    -0.067 A 
ATOM     30  H16 XBV d           5.016  69.917   5.619  0.00  0.00     0.112 H 
ATOM     31  C27 XBV d           3.612  72.590   4.089  0.00  0.00    -0.076 A 
ATOM     32  H19 XBV d           3.955  72.052   6.151  0.00  0.00     0.085 H 
ATOM     33  C28 XBV d           3.740  72.201   2.773  0.00  0.00    -0.017 A 
ATOM     34  H17 XBV d           3.158  73.549   4.333  0.00  0.00     0.083 H 
ATOM     35  C30 XBV d           4.345  70.941   2.425  0.00  0.00     0.252 A 
ATOM     36  H18 XBV d           3.378  72.857   1.983  0.00  0.00     0.092 H 
ATOM     37  O31 XBV d           4.454  70.556   1.254  0.00  0.00    -0.268 OA
ENDBRANCH  21  27
ENDBRANCH  14  17
ENDBRANCH   2  13
BRANCH   1  38
ATOM     38  C6  XBV d           8.110  62.137   3.145  0.00  0.00     0.230 C 
ATOM     39  O10 XBV d           7.877  62.217   4.341  0.00  0.00    -0.273 OA
ATOM     40  N11 XBV d           7.619  61.130   2.387  0.00  0.00    -0.311 N 
ATOM     41  H9  XBV d           7.673  61.266   1.398  0.00  0.00     0.170 HD
BRANCH  40  42
ATOM     42  C12 XBV d           7.047  59.929   2.800  0.00  0.00     0.129 A 
ATOM     43  N13 XBV d           7.846  58.922   3.190  0.00  0.00    -0.242 NA
ATOM     44  C16 XBV d           7.361  57.677   3.446  0.00  0.00     0.025 A 
ATOM     45  C14 XBV d           5.993  57.401   3.259  0.00  0.00     0.051 A 
ATOM     46  H11 XBV d           8.029  56.897   3.793  0.00  0.00     0.117 H 
ATOM     47  C15 XBV d           5.141  58.437   2.830  0.00  0.00    -0.057 A 
ATOM     48 CL1  XBV d           5.350  55.802   3.472  0.00  0.00    -0.083 Cl
ATOM     49  C17 XBV d           5.680  59.703   2.581  0.00  0.00    -0.037 A 
ATOM     50  H10 XBV d           4.081  58.257   2.693  0.00  0.00     0.086 H 
ATOM     51  H12 XBV d           5.046  60.504   2.221  0.00  0.00     0.089 H 
ENDBRANCH  40  42
ENDBRANCH   1  38
BRANCH   4  52
ATOM     52  C33 XBV d          11.791  63.152   0.216  0.00  0.00     0.137 C 
ATOM     53  H20 XBV d          11.741  63.548  -0.810  0.00  0.00     0.084 H 
ATOM     54  H21 XBV d          12.419  62.249   0.229  0.00  0.00     0.084 H 
BRANCH  52  55
ATOM     55  C34 XBV d          12.421  64.208   1.126  0.00  0.00     0.231 C 
ATOM     56  F35 XBV d          13.661  63.810   1.633  0.00  0.00    -0.213 F 
ATOM     57  F36 XBV d          12.687  65.308   0.338  0.00  0.00    -0.213 F 
ATOM     58  H22 XBV d          11.732  64.457   1.947  0.00  0.00     0.147 H 
ENDBRANCH  52  55
ENDBRANCH   4  52
TORSDOF 7
ENDMDL
MODEL 4
REMARK VINA RESULT:      -6.5      3.626      8.798
REMARK  7 active torsions:
REMARK  status: ('A' for Active; 'I' for Inactive)
REMARK    1  A    between atoms: C1_1  and  C6_6 
REMARK    2  A    between atoms: C7_7  and  C2_2 
REMARK    3  A    between atoms: N4_4  and  C33_33 
REMARK       I    between atoms: C6_6  and  N11_11 
REMARK       I    between atoms: N8_8  and  C7_7 
REMARK    4  A    between atoms: C19_19  and  N8_8 
REMARK    5  A    between atoms: N11_11  and  C12_12 
REMARK    6  A    between atoms: N25_25  and  C21_21 
REMARK    7  A    between atoms: C33_33  and  C34_34 
ROOT
ATOM      1  C1  XBV d           9.991  64.011   2.333  0.00  0.00     0.060 C 
ATOM      2  C2  XBV d          10.379  64.975   1.201  0.00  0.00     0.060 C 
ATOM      3  C3  XBV d          11.791  65.469   1.580  0.00  0.00     0.096 C 
ATOM      4  N4  XBV d          12.361  64.271   2.273  0.00  0.00    -0.064 N 
ATOM      5  C5  XBV d          11.285  63.680   3.105  0.00  0.00     0.096 C 
ATOM      6  H1  XBV d           9.310  64.538   3.018  0.00  0.00     0.058 H 
ATOM      7  H2  XBV d          10.399  64.452   0.233  0.00  0.00     0.058 H 
ATOM      8  H3  XBV d          11.744  66.337   2.254  0.00  0.00     0.077 H 
ATOM      9  H4  XBV d          12.377  65.731   0.686  0.00  0.00     0.077 H 
ATOM     10  H5  XBV d          12.664  63.599   1.585  0.00  0.00     0.280 HD
ATOM     11  H6  XBV d          11.416  62.591   3.199  0.00  0.00     0.077 H 
ATOM     12  H7  XBV d          11.271  64.135   4.106  0.00  0.00     0.077 H 
ENDROOT
BRANCH   2  13
ATOM     13  C7  XBV d           9.394  66.122   1.134  0.00  0.00     0.229 C 
ATOM     14  N8  XBV d           9.297  66.814   2.238  0.00  0.00    -0.324 N 
ATOM     15  H8  XBV d           9.901  66.556   2.992  0.00  0.00     0.169 HD
ATOM     16  O9  XBV d           8.784  66.418   0.118  0.00  0.00    -0.273 OA
BRANCH  14  17
ATOM     17  C19 XBV d           8.414  67.893   2.461  0.00  0.00     0.073 A 
ATOM     18  C20 XBV d           8.709  69.226   2.156  0.00  0.00    -0.052 A 
ATOM     19  C23 XBV d           7.763  70.204   2.476  0.00  0.00    -0.054 A 
ATOM     20  H13 XBV d           9.647  69.494   1.684  0.00  0.00     0.087 H 
ATOM     21  C21 XBV d           6.586  69.825   3.128  0.00  0.00     0.045 A 
ATOM     22  H15 XBV d           7.939  71.243   2.221  0.00  0.00     0.087 H 
ATOM     23  C22 XBV d           6.300  68.487   3.437  0.00  0.00    -0.017 A 
ATOM     24  C24 XBV d           7.236  67.520   3.045  0.00  0.00     0.145 A 
ATOM     25  H14 XBV d           5.391  68.211   3.958  0.00  0.00     0.091 H 
ATOM     26  F32 XBV d           7.003  66.235   3.349  0.00  0.00    -0.204 F 
BRANCH  21  27
ATOM     27  N25 XBV d           5.581  70.773   3.488  0.00  0.00    -0.290 N 
ATOM     28  C26 XBV d           5.426  71.149   4.831  0.00  0.00    -0.011 A 
ATOM     29  C29 XBV d           4.454  72.029   5.199  0.00  0.00    -0.067 A 
ATOM     30  H16 XBV d           6.091  70.733   5.587  0.00  0.00     0.112 H 
ATOM     31  C27 XBV d           3.603  72.590   4.239  0.00  0.00    -0.076 A 
ATOM     32  H19 XBV d           4.337  72.298   6.248  0.00  0.00     0.085 H 
ATOM     33  C28 XBV d           3.739  72.238   2.914  0.00  0.00    -0.017 A 
ATOM     34  H17 XBV d           2.836  73.301   4.539  0.00  0.00     0.083 H 
ATOM     35  C30 XBV d           4.752  71.304   2.492  0.00  0.00     0.252 A 
ATOM     36  H18 XBV d           3.070  72.672   2.173  0.00  0.00     0.092 H 
ATOM     37  O31 XBV d           4.883  70.954   1.312  0.00  0.00    -0.268 OA
ENDBRANCH  21  27
ENDBRANCH  14  17
ENDBRANCH   2  13
BRANCH   1  38
ATOM     38  C6  XBV d           9.257  62.794   1.830  0.00  0.00     0.230 C 
ATOM     39  O10 XBV d           9.326  62.425   0.667  0.00  0.00    -0.273 OA
ATOM     40  N11 XBV d           8.613  62.070   2.773  0.00  0.00    -0.311 N 
ATOM     41  H9  XBV d           8.797  62.330   3.720  0.00  0.00     0.170 HD
BRANCH  40  42
ATOM     42  C12 XBV d           7.726  61.009   2.600  0.00  0.00     0.129 A 
ATOM     43  N13 XBV d           6.427  61.269   2.375  0.00  0.00    -0.242 NA
ATOM     44  C16 XBV d           5.488  60.286   2.363  0.00  0.00     0.025 A 
ATOM     45  C14 XBV d           5.857  58.954   2.636  0.00  0.00     0.051 A 
ATOM     46  H11 XBV d           4.454  60.527   2.142  0.00  0.00     0.117 H 
ATOM     47  C15 XBV d           7.211  58.663   2.897  0.00  0.00    -0.057 A 
ATOM     48 CL1  XBV d           4.677  57.685   2.735  0.00  0.00    -0.083 Cl
ATOM     49  C17 XBV d           8.144  59.704   2.896  0.00  0.00    -0.037 A 
ATOM     50  H10 XBV d           7.525  57.645   3.094  0.00  0.00     0.086 H 
ATOM     51  H12 XBV d           9.184  59.503   3.124  0.00  0.00     0.089 H 
ENDBRANCH  40  42
ENDBRANCH   1  38
BRANCH   4  52
ATOM     52  C33 XBV d          13.512  64.644   3.112  0.00  0.00     0.137 C 
ATOM     53  H20 XBV d          14.144  65.354   2.559  0.00  0.00     0.084 H 
ATOM     54  H21 XBV d          14.093  63.739   3.344  0.00  0.00     0.084 H 
BRANCH  52  55
ATOM     55  C34 XBV d          13.062  65.295   4.421  0.00  0.00     0.231 C 
ATOM     56  F35 XBV d          14.105  65.419   5.345  0.00  0.00    -0.213 F 
ATOM     57  F36 XBV d          12.689  66.587   4.119  0.00  0.00    -0.213 F 
ATOM     58  H22 XBV d          12.228  64.725   4.859  0.00  0.00     0.147 H 
ENDBRANCH  52  55
ENDBRANCH   4  52
TORSDOF 7
ENDMDL
MODEL 5
REMARK VINA RESULT:      -6.4      2.599      8.600
REMARK  7 active torsions:
REMARK  status: ('A' for Active; 'I' for Inactive)
REMARK    1  A    between atoms: C1_1  and  C6_6 
REMARK    2  A    between atoms: C7_7  and  C2_2 
REMARK    3  A    between atoms: N4_4  and  C33_33 
REMARK       I    between atoms: C6_6  and  N11_11 
REMARK       I    between atoms: N8_8  and  C7_7 
REMARK    4  A    between atoms: C19_19  and  N8_8 
REMARK    5  A    between atoms: N11_11  and  C12_12 
REMARK    6  A    between atoms: N25_25  and  C21_21 
REMARK    7  A    between atoms: C33_33  and  C34_34 
ROOT
ATOM      1  C1  XBV d           7.280  62.017   1.748  0.00  0.00     0.060 C 
ATOM      2  C2  XBV d           6.566  62.194   3.097  0.00  0.00     0.060 C 
ATOM      3  C3  XBV d           5.475  61.101   3.103  0.00  0.00     0.096 C 
ATOM      4  N4  XBV d           6.130  60.007   2.320  0.00  0.00    -0.064 N 
ATOM      5  C5  XBV d           6.865  60.638   1.196  0.00  0.00     0.096 C 
ATOM      6  H1  XBV d           6.910  62.788   1.057  0.00  0.00     0.058 H 
ATOM      7  H2  XBV d           7.266  62.046   3.933  0.00  0.00     0.058 H 
ATOM      8  H3  XBV d           4.555  61.451   2.610  0.00  0.00     0.077 H 
ATOM      9  H4  XBV d           5.240  60.776   4.128  0.00  0.00     0.077 H 
ATOM     10  H5  XBV d           6.779  59.513   2.913  0.00  0.00     0.280 HD
ATOM     11  H6  XBV d           7.750  60.043   0.925  0.00  0.00     0.077 H 
ATOM     12  H7  XBV d           6.213  60.748   0.317  0.00  0.00     0.077 H 
ENDROOT
BRANCH   2  13
ATOM     13  C7  XBV d           5.959  63.578   3.186  0.00  0.00     0.229 C 
ATOM     14  N8  XBV d           6.737  64.473   3.732  0.00  0.00    -0.324 N 
ATOM     15  H8  XBV d           7.657  64.178   3.993  0.00  0.00     0.169 HD
ATOM     16  O9  XBV d           4.859  63.853   2.732  0.00  0.00    -0.273 OA
BRANCH  14  17
ATOM     17  C19 XBV d           6.395  65.819   3.988  0.00  0.00     0.073 A 
ATOM     18  C20 XBV d           5.655  66.245   5.096  0.00  0.00    -0.052 A 
ATOM     19  C23 XBV d           5.343  67.604   5.201  0.00  0.00    -0.054 A 
ATOM     20  H13 XBV d           5.332  65.541   5.853  0.00  0.00     0.087 H 
ATOM     21  C21 XBV d           5.736  68.474   4.178  0.00  0.00     0.045 A 
ATOM     22  H15 XBV d           4.804  67.979   6.063  0.00  0.00     0.087 H 
ATOM     23  C22 XBV d           6.472  68.037   3.067  0.00  0.00    -0.017 A 
ATOM     24  C24 XBV d           6.828  66.683   3.020  0.00  0.00     0.145 A 
ATOM     25  H14 XBV d           6.754  68.720   2.274  0.00  0.00     0.091 H 
ATOM     26  F32 XBV d           7.509  66.230   1.958  0.00  0.00    -0.204 F 
BRANCH  21  27
ATOM     27  N25 XBV d           5.445  69.871   4.220  0.00  0.00    -0.290 N 
ATOM     28  C26 XBV d           4.120  70.302   4.391  0.00  0.00    -0.011 A 
ATOM     29  C29 XBV d           3.817  71.630   4.403  0.00  0.00    -0.067 A 
ATOM     30  H16 XBV d           3.326  69.567   4.515  0.00  0.00     0.112 H 
ATOM     31  C27 XBV d           4.827  72.590   4.264  0.00  0.00    -0.076 A 
ATOM     32  H19 XBV d           2.782  71.948   4.521  0.00  0.00     0.085 H 
ATOM     33  C28 XBV d           6.135  72.189   4.099  0.00  0.00    -0.017 A 
ATOM     34  H17 XBV d           4.580  73.650   4.287  0.00  0.00     0.083 H 
ATOM     35  C30 XBV d           6.489  70.793   4.075  0.00  0.00     0.252 A 
ATOM     36  H18 XBV d           6.915  72.941   3.986  0.00  0.00     0.092 H 
ATOM     37  O31 XBV d           7.651  70.404   3.907  0.00  0.00    -0.268 OA
ENDBRANCH  21  27
ENDBRANCH  14  17
ENDBRANCH   2  13
BRANCH   1  38
ATOM     38  C6  XBV d           8.773  62.201   1.858  0.00  0.00     0.230 C 
ATOM     39  O10 XBV d           9.546  61.256   1.905  0.00  0.00    -0.273 OA
ATOM     40  N11 XBV d           9.210  63.479   1.783  0.00  0.00    -0.311 N 
ATOM     41  H9  XBV d           8.522  64.158   1.527  0.00  0.00     0.170 HD
BRANCH  40  42
ATOM     42  C12 XBV d          10.490  63.976   2.015  0.00  0.00     0.129 A 
ATOM     43  N13 XBV d          11.500  63.588   1.218  0.00  0.00    -0.242 NA
ATOM     44  C16 XBV d          12.794  63.905   1.491  0.00  0.00     0.025 A 
ATOM     45  C14 XBV d          13.114  64.621   2.662  0.00  0.00     0.051 A 
ATOM     46  H11 XBV d          13.580  63.606   0.808  0.00  0.00     0.117 H 
ATOM     47  C15 XBV d          12.072  65.019   3.522  0.00  0.00    -0.057 A 
ATOM     48 CL1  XBV d          14.759  64.956   3.103  0.00  0.00    -0.083 Cl
ATOM     49  C17 XBV d          10.755  64.675   3.202  0.00  0.00    -0.037 A 
ATOM     50  H10 XBV d          12.288  65.585   4.421  0.00  0.00     0.086 H 
ATOM     51  H12 XBV d           9.944  64.946   3.868  0.00  0.00     0.089 H 
ENDBRANCH  40  42
ENDBRANCH   1  38
BRANCH   4  52
ATOM     52  C33 XBV d           5.133  59.053   1.809  0.00  0.00     0.137 C 
ATOM     53  H20 XBV d           5.253  58.960   0.719  0.00  0.00     0.084 H 
ATOM     54  H21 XBV d           4.126  59.432   2.036  0.00  0.00     0.084 H 
BRANCH  52  55
ATOM     55  C34 XBV d           5.300  57.672   2.445  0.00  0.00     0.231 C 
ATOM     56  F35 XBV d           6.038  56.796   1.643  0.00  0.00    -0.213 F 
ATOM     57  F36 XBV d           6.057  57.845   3.585  0.00  0.00    -0.213 F 
ATOM     58  H22 XBV d           4.314  57.242   2.677  0.00  0.00     0.147 H 
ENDBRANCH  52  55
ENDBRANCH   4  52
TORSDOF 7
ENDMDL
