MODEL 1
REMARK VINA RESULT:      -4.7      0.000      0.000
REMARK  2 active torsions:
REMARK  status: ('A' for Active; 'I' for Inactive)
REMARK    1  A    between atoms: C7_4  and  N6_8 
REMARK    2  A    between atoms: N6_8  and  C5_9 
ROOT
ATOM      1  O13 GZ2 d          -6.395  51.340   8.784  0.00  0.00    -0.293 OA
ATOM      2  C11 GZ2 d          -6.577  51.722   9.931  0.00  0.00     0.151 C 
ATOM      3  C12 GZ2 d          -5.496  52.447  10.633  0.00  0.00    -0.017 C 
ATOM      4  C7  GZ2 d          -5.679  52.930  11.876  0.00  0.00     0.030 C 
ATOM      5  C8  GZ2 d          -7.002  52.789  12.597  0.00  0.00    -0.026 C 
ATOM      6  C9  GZ2 d          -8.190  52.507  11.681  0.00  0.00    -0.054 C 
ATOM      7  C10 GZ2 d          -7.899  51.455  10.621  0.00  0.00    -0.006 C 
ATOM      8  H1  GZ2 d          -4.537  52.591  10.138  0.00  0.00     0.092 H 
ATOM      9  H2  GZ2 d          -7.200  53.724  13.140  0.00  0.00     0.042 H 
ATOM     10  H3  GZ2 d          -6.915  51.959  13.314  0.00  0.00     0.042 H 
ATOM     11  H4  GZ2 d          -8.471  53.443  11.175  0.00  0.00     0.034 H 
ATOM     12  H5  GZ2 d          -9.031  52.157  12.298  0.00  0.00     0.034 H 
ATOM     13  H6  GZ2 d          -7.860  50.466  11.099  0.00  0.00     0.044 H 
ATOM     14  H7  GZ2 d          -8.704  51.469   9.872  0.00  0.00     0.044 H 
ENDROOT
BRANCH   4  15
ATOM     15  N6  GZ2 d          -4.738  53.552  12.599  0.00  0.00    -0.192 N 
ATOM     16  H8  GZ2 d          -5.073  54.252  13.277  0.00  0.00     0.184 HD
BRANCH  15  17
ATOM     17  C5  GZ2 d          -3.386  53.366  12.543  0.00  0.00     0.732 A 
ATOM     18  N4  GZ2 d          -2.745  52.751  11.539  0.00  0.00    -0.115 N 
ATOM     19  N3  GZ2 d          -1.393  52.790  11.918  0.00  0.00     0.008 NA
ATOM     20  H9  GZ2 d          -3.151  52.343  10.686  0.00  0.00     0.203 HD
ATOM     21  N2  GZ2 d          -1.302  53.463  13.152  0.00  0.00     0.033 NA
ATOM     22  N1  GZ2 d          -2.593  53.825  13.534  0.00  0.00     0.030 NA
ENDBRANCH  15  17
ENDBRANCH   4  15
TORSDOF 2
ENDMDL
