MODEL 1
REMARK VINA RESULT:      -5.5      0.000      0.000
REMARK  2 active torsions:
REMARK  status: ('A' for Active; 'I' for Inactive)
REMARK    1  A    between atoms: C7_4  and  N6_8 
REMARK    2  A    between atoms: N6_8  and  C5_9 
ROOT
ATOM      1  O13 GZ2 d          -8.206  54.104  13.540  0.00  0.00    -0.293 OA
ATOM      2  C11 GZ2 d          -7.686  53.287  12.794  0.00  0.00     0.151 C 
ATOM      3  C12 GZ2 d          -6.273  52.907  13.008  0.00  0.00    -0.017 C 
ATOM      4  C7  GZ2 d          -5.684  51.971  12.242  0.00  0.00     0.030 C 
ATOM      5  C8  GZ2 d          -6.441  51.242  11.154  0.00  0.00    -0.026 C 
ATOM      6  C9  GZ2 d          -7.960  51.291  11.304  0.00  0.00    -0.054 C 
ATOM      7  C10 GZ2 d          -8.485  52.672  11.663  0.00  0.00    -0.006 C 
ATOM      8  H1  GZ2 d          -5.701  53.391  13.798  0.00  0.00     0.092 H 
ATOM      9  H2  GZ2 d          -6.129  50.187  11.164  0.00  0.00     0.042 H 
ATOM     10  H3  GZ2 d          -6.175  51.694  10.187  0.00  0.00     0.042 H 
ATOM     11  H4  GZ2 d          -8.256  50.588  12.097  0.00  0.00     0.034 H 
ATOM     12  H5  GZ2 d          -8.414  50.982  10.351  0.00  0.00     0.034 H 
ATOM     13  H6  GZ2 d          -8.416  53.324  10.780  0.00  0.00     0.044 H 
ATOM     14  H7  GZ2 d          -9.537  52.586  11.973  0.00  0.00     0.044 H 
ENDROOT
BRANCH   4  15
ATOM     15  N6  GZ2 d          -4.398  51.605  12.337  0.00  0.00    -0.192 N 
ATOM     16  H8  GZ2 d          -4.222  50.625  12.601  0.00  0.00     0.184 HD
BRANCH  15  17
ATOM     17  C5  GZ2 d          -3.294  52.381  12.126  0.00  0.00     0.732 A 
ATOM     18  N4  GZ2 d          -2.888  52.814  10.924  0.00  0.00    -0.115 N 
ATOM     19  N3  GZ2 d          -1.727  53.556  11.199  0.00  0.00     0.008 NA
ATOM     20  H9  GZ2 d          -3.327  52.642  10.009  0.00  0.00     0.203 HD
ATOM     21  N2  GZ2 d          -1.514  53.538  12.591  0.00  0.00     0.033 NA
ATOM     22  N1  GZ2 d          -2.532  52.780  13.167  0.00  0.00     0.030 NA
ENDBRANCH  15  17
ENDBRANCH   4  15
TORSDOF 2
ENDMDL
MODEL 2
REMARK VINA RESULT:      -5.1      1.757      2.194
REMARK  2 active torsions:
REMARK  status: ('A' for Active; 'I' for Inactive)
REMARK    1  A    between atoms: C7_4  and  N6_8 
REMARK    2  A    between atoms: N6_8  and  C5_9 
ROOT
ATOM      1  O13 GZ2 d          -8.674  53.979   9.731  0.00  0.00    -0.293 OA
ATOM      2  C11 GZ2 d          -7.784  53.418  10.353  0.00  0.00     0.151 C 
ATOM      3  C12 GZ2 d          -6.751  54.232  11.031  0.00  0.00    -0.017 C 
ATOM      4  C7  GZ2 d          -5.788  53.653  11.770  0.00  0.00     0.030 C 
ATOM      5  C8  GZ2 d          -5.733  52.154  11.972  0.00  0.00    -0.026 C 
ATOM      6  C9  GZ2 d          -7.051  51.435  11.698  0.00  0.00    -0.054 C 
ATOM      7  C10 GZ2 d          -7.742  51.906  10.428  0.00  0.00    -0.006 C 
ATOM      8  H1  GZ2 d          -6.771  55.317  10.930  0.00  0.00     0.092 H 
ATOM      9  H2  GZ2 d          -5.444  51.957  13.015  0.00  0.00     0.042 H 
ATOM     10  H3  GZ2 d          -4.969  51.743  11.295  0.00  0.00     0.042 H 
ATOM     11  H4  GZ2 d          -7.728  51.609  12.548  0.00  0.00     0.034 H 
ATOM     12  H5  GZ2 d          -6.848  50.358  11.605  0.00  0.00     0.034 H 
ATOM     13  H6  GZ2 d          -7.194  51.519   9.556  0.00  0.00     0.044 H 
ATOM     14  H7  GZ2 d          -8.771  51.518  10.414  0.00  0.00     0.044 H 
ENDROOT
BRANCH   4  15
ATOM     15  N6  GZ2 d          -4.789  54.312  12.373  0.00  0.00    -0.192 N 
ATOM     16  H8  GZ2 d          -5.033  55.218  12.799  0.00  0.00     0.184 HD
BRANCH  15  17
ATOM     17  C5  GZ2 d          -3.485  53.923  12.490  0.00  0.00     0.732 A 
ATOM     18  N4  GZ2 d          -2.785  53.942  13.632  0.00  0.00    -0.115 N 
ATOM     19  N3  GZ2 d          -1.514  53.469  13.266  0.00  0.00     0.008 NA
ATOM     20  H9  GZ2 d          -3.106  54.237  14.565  0.00  0.00     0.203 HD
ATOM     21  N2  GZ2 d          -1.537  53.168  11.891  0.00  0.00     0.033 NA
ATOM     22  N1  GZ2 d          -2.813  53.465  11.412  0.00  0.00     0.030 NA
ENDBRANCH  15  17
ENDBRANCH   4  15
TORSDOF 2
ENDMDL
MODEL 3
REMARK VINA RESULT:      -4.9      3.317      5.274
REMARK  2 active torsions:
REMARK  status: ('A' for Active; 'I' for Inactive)
REMARK    1  A    between atoms: C7_4  and  N6_8 
REMARK    2  A    between atoms: N6_8  and  C5_9 
ROOT
ATOM      1  O13 GZ2 d          -2.123  50.952  10.301  0.00  0.00    -0.293 OA
ATOM      2  C11 GZ2 d          -2.494  51.784  11.116  0.00  0.00     0.151 C 
ATOM      3  C12 GZ2 d          -3.761  51.567  11.847  0.00  0.00    -0.017 C 
ATOM      4  C7  GZ2 d          -4.174  52.433  12.791  0.00  0.00     0.030 C 
ATOM      5  C8  GZ2 d          -3.350  53.643  13.174  0.00  0.00    -0.026 C 
ATOM      6  C9  GZ2 d          -1.877  53.551  12.783  0.00  0.00    -0.054 C 
ATOM      7  C10 GZ2 d          -1.659  53.022  11.374  0.00  0.00    -0.006 C 
ATOM      8  H1  GZ2 d          -4.371  50.694  11.618  0.00  0.00     0.092 H 
ATOM      9  H2  GZ2 d          -3.409  53.770  14.265  0.00  0.00     0.042 H 
ATOM     10  H3  GZ2 d          -3.783  54.525  12.679  0.00  0.00     0.042 H 
ATOM     11  H4  GZ2 d          -1.370  52.877  13.490  0.00  0.00     0.034 H 
ATOM     12  H5  GZ2 d          -1.435  54.556  12.851  0.00  0.00     0.034 H 
ATOM     13  H6  GZ2 d          -1.942  53.801  10.651  0.00  0.00     0.044 H 
ATOM     14  H7  GZ2 d          -0.596  52.771  11.245  0.00  0.00     0.044 H 
ENDROOT
BRANCH   4  15
ATOM     15  N6  GZ2 d          -5.330  52.337  13.462  0.00  0.00    -0.192 N 
ATOM     16  H8  GZ2 d          -5.312  51.768  14.320  0.00  0.00     0.184 HD
BRANCH  15  17
ATOM     17  C5  GZ2 d          -6.529  52.907  13.139  0.00  0.00     0.732 A 
ATOM     18  N4  GZ2 d          -7.369  52.435  12.209  0.00  0.00    -0.115 N 
ATOM     19  N3  GZ2 d          -8.445  53.338  12.225  0.00  0.00     0.008 NA
ATOM     20  H9  GZ2 d          -7.252  51.601  11.617  0.00  0.00     0.203 HD
ATOM     21  N2  GZ2 d          -8.185  54.312  13.207  0.00  0.00     0.033 NA
ATOM     22  N1  GZ2 d          -6.950  54.017  13.783  0.00  0.00     0.030 NA
ENDBRANCH  15  17
ENDBRANCH   4  15
TORSDOF 2
ENDMDL
MODEL 4
REMARK VINA RESULT:      -4.8      1.697      2.190
REMARK  2 active torsions:
REMARK  status: ('A' for Active; 'I' for Inactive)
REMARK    1  A    between atoms: C7_4  and  N6_8 
REMARK    2  A    between atoms: N6_8  and  C5_9 
ROOT
ATOM      1  O13 GZ2 d          -7.746  50.985  10.333  0.00  0.00    -0.293 OA
ATOM      2  C11 GZ2 d          -7.486  51.792  11.213  0.00  0.00     0.151 C 
ATOM      3  C12 GZ2 d          -6.236  51.640  11.989  0.00  0.00    -0.017 C 
ATOM      4  C7  GZ2 d          -5.889  52.539  12.928  0.00  0.00     0.030 C 
ATOM      5  C8  GZ2 d          -6.738  53.759  13.212  0.00  0.00    -0.026 C 
ATOM      6  C9  GZ2 d          -7.701  54.130  12.087  0.00  0.00    -0.054 C 
ATOM      7  C10 GZ2 d          -8.437  52.934  11.504  0.00  0.00    -0.006 C 
ATOM      8  H1  GZ2 d          -5.585  50.788  11.797  0.00  0.00     0.092 H 
ATOM      9  H2  GZ2 d          -6.067  54.613  13.387  0.00  0.00     0.042 H 
ATOM     10  H3  GZ2 d          -7.328  53.564  14.121  0.00  0.00     0.042 H 
ATOM     11  H4  GZ2 d          -7.127  54.613  11.282  0.00  0.00     0.034 H 
ATOM     12  H5  GZ2 d          -8.444  54.838  12.484  0.00  0.00     0.034 H 
ATOM     13  H6  GZ2 d          -9.196  52.594  12.224  0.00  0.00     0.044 H 
ATOM     14  H7  GZ2 d          -8.930  53.237  10.569  0.00  0.00     0.044 H 
ENDROOT
BRANCH   4  15
ATOM     15  N6  GZ2 d          -4.802  52.448  13.708  0.00  0.00    -0.192 N 
ATOM     16  H8  GZ2 d          -4.974  52.277  14.709  0.00  0.00     0.184 HD
BRANCH  15  17
ATOM     17  C5  GZ2 d          -3.495  52.555  13.328  0.00  0.00     0.732 A 
ATOM     18  N4  GZ2 d          -2.787  51.572  12.756  0.00  0.00    -0.115 N 
ATOM     19  N3  GZ2 d          -1.515  52.135  12.556  0.00  0.00     0.008 NA
ATOM     20  H9  GZ2 d          -3.102  50.622  12.518  0.00  0.00     0.203 HD
ATOM     21  N2  GZ2 d          -1.547  53.465  13.015  0.00  0.00     0.033 NA
ATOM     22  N1  GZ2 d          -2.828  53.715  13.506  0.00  0.00     0.030 NA
ENDBRANCH  15  17
ENDBRANCH   4  15
TORSDOF 2
ENDMDL
MODEL 5
REMARK VINA RESULT:      -4.6      3.533      4.991
REMARK  2 active torsions:
REMARK  status: ('A' for Active; 'I' for Inactive)
REMARK    1  A    between atoms: C7_4  and  N6_8 
REMARK    2  A    between atoms: N6_8  and  C5_9 
ROOT
ATOM      1  O13 GZ2 d          -1.514  53.639  13.094  0.00  0.00    -0.293 OA
ATOM      2  C11 GZ2 d          -2.594  53.081  12.963  0.00  0.00     0.151 C 
ATOM      3  C12 GZ2 d          -3.832  53.891  12.966  0.00  0.00    -0.017 C 
ATOM      4  C7  GZ2 d          -5.034  53.318  12.770  0.00  0.00     0.030 C 
ATOM      5  C8  GZ2 d          -5.175  51.835  12.505  0.00  0.00    -0.026 C 
ATOM      6  C9  GZ2 d          -3.895  51.160  12.019  0.00  0.00    -0.054 C 
ATOM      7  C10 GZ2 d          -2.659  51.577  12.800  0.00  0.00    -0.006 C 
ATOM      8  H1  GZ2 d          -3.770  54.966  13.129  0.00  0.00     0.092 H 
ATOM      9  H2  GZ2 d          -5.951  51.694  11.738  0.00  0.00     0.042 H 
ATOM     10  H3  GZ2 d          -5.489  51.347  13.439  0.00  0.00     0.042 H 
ATOM     11  H4  GZ2 d          -3.743  51.420  10.960  0.00  0.00     0.034 H 
ATOM     12  H5  GZ2 d          -4.018  50.071  12.115  0.00  0.00     0.034 H 
ATOM     13  H6  GZ2 d          -2.688  51.109  13.795  0.00  0.00     0.044 H 
ATOM     14  H7  GZ2 d          -1.762  51.236  12.261  0.00  0.00     0.044 H 
ENDROOT
BRANCH   4  15
ATOM     15  N6  GZ2 d          -6.205  53.970  12.808  0.00  0.00    -0.192 N 
ATOM     16  H8  GZ2 d          -6.426  54.457  13.688  0.00  0.00     0.184 HD
BRANCH  15  17
ATOM     17  C5  GZ2 d          -7.137  54.064  11.814  0.00  0.00     0.732 A 
ATOM     18  N4  GZ2 d          -6.853  54.292  10.525  0.00  0.00    -0.115 N 
ATOM     19  N3  GZ2 d          -8.109  54.312   9.894  0.00  0.00     0.008 NA
ATOM     20  H9  GZ2 d          -5.927  54.422  10.095  0.00  0.00     0.203 HD
ATOM     21  N2  GZ2 d          -9.094  54.068  10.869  0.00  0.00     0.033 NA
ATOM     22  N1  GZ2 d          -8.449  53.910  12.095  0.00  0.00     0.030 NA
ENDBRANCH  15  17
ENDBRANCH   4  15
TORSDOF 2
ENDMDL
MODEL 6
REMARK VINA RESULT:      -4.3      3.438      5.243
REMARK  2 active torsions:
REMARK  status: ('A' for Active; 'I' for Inactive)
REMARK    1  A    between atoms: C7_4  and  N6_8 
REMARK    2  A    between atoms: N6_8  and  C5_9 
ROOT
ATOM      1  O13 GZ2 d          -1.902  50.938  12.740  0.00  0.00    -0.293 OA
ATOM      2  C11 GZ2 d          -2.687  51.875  12.716  0.00  0.00     0.151 C 
ATOM      3  C12 GZ2 d          -4.132  51.614  12.894  0.00  0.00    -0.017 C 
ATOM      4  C7  GZ2 d          -5.020  52.625  12.927  0.00  0.00     0.030 C 
ATOM      5  C8  GZ2 d          -4.584  54.069  12.820  0.00  0.00    -0.026 C 
ATOM      6  C9  GZ2 d          -3.111  54.307  13.144  0.00  0.00    -0.054 C 
ATOM      7  C10 GZ2 d          -2.181  53.287  12.506  0.00  0.00    -0.006 C 
ATOM      8  H1  GZ2 d          -4.483  50.588  13.000  0.00  0.00     0.092 H 
ATOM      9  H2  GZ2 d          -5.190  54.665  13.518  0.00  0.00     0.042 H 
ATOM     10  H3  GZ2 d          -4.770  54.410  11.790  0.00  0.00     0.042 H 
ATOM     11  H4  GZ2 d          -2.982  54.262  14.236  0.00  0.00     0.034 H 
ATOM     12  H5  GZ2 d          -2.832  55.308  12.783  0.00  0.00     0.034 H 
ATOM     13  H6  GZ2 d          -2.115  53.488  11.426  0.00  0.00     0.044 H 
ATOM     14  H7  GZ2 d          -1.182  53.381  12.957  0.00  0.00     0.044 H 
ENDROOT
BRANCH   4  15
ATOM     15  N6  GZ2 d          -6.347  52.471  13.034  0.00  0.00    -0.192 N 
ATOM     16  H8  GZ2 d          -6.684  52.008  13.891  0.00  0.00     0.184 HD
BRANCH  15  17
ATOM     17  C5  GZ2 d          -7.304  52.857  12.140  0.00  0.00     0.732 A 
ATOM     18  N4  GZ2 d          -7.455  52.335  10.915  0.00  0.00    -0.115 N 
ATOM     19  N3  GZ2 d          -8.543  53.039  10.372  0.00  0.00     0.008 NA
ATOM     20  H9  GZ2 d          -6.900  51.588  10.474  0.00  0.00     0.203 HD
ATOM     21  N2  GZ2 d          -9.002  53.952  11.339  0.00  0.00     0.033 NA
ATOM     22  N1  GZ2 d          -8.194  53.818  12.468  0.00  0.00     0.030 NA
ENDBRANCH  15  17
ENDBRANCH   4  15
TORSDOF 2
ENDMDL
MODEL 7
REMARK VINA RESULT:      -4.1      3.342      5.185
REMARK  2 active torsions:
REMARK  status: ('A' for Active; 'I' for Inactive)
REMARK    1  A    between atoms: C7_4  and  N6_8 
REMARK    2  A    between atoms: N6_8  and  C5_9 
ROOT
ATOM      1  O13 GZ2 d          -1.514  53.659  13.448  0.00  0.00    -0.293 OA
ATOM      2  C11 GZ2 d          -2.457  53.113  12.895  0.00  0.00     0.151 C 
ATOM      3  C12 GZ2 d          -3.672  53.899  12.590  0.00  0.00    -0.017 C 
ATOM      4  C7  GZ2 d          -4.709  53.346  11.933  0.00  0.00     0.030 C 
ATOM      5  C8  GZ2 d          -4.668  51.914  11.447  0.00  0.00    -0.026 C 
ATOM      6  C9  GZ2 d          -3.263  51.329  11.330  0.00  0.00    -0.054 C 
ATOM      7  C10 GZ2 d          -2.378  51.645  12.525  0.00  0.00    -0.006 C 
ATOM      8  H1  GZ2 d          -3.730  54.941  12.902  0.00  0.00     0.092 H 
ATOM      9  H2  GZ2 d          -5.141  51.874  10.454  0.00  0.00     0.042 H 
ATOM     10  H3  GZ2 d          -5.243  51.295  12.152  0.00  0.00     0.042 H 
ATOM     11  H4  GZ2 d          -2.788  51.738  10.426  0.00  0.00     0.034 H 
ATOM     12  H5  GZ2 d          -3.348  50.236  11.238  0.00  0.00     0.034 H 
ATOM     13  H6  GZ2 d          -2.705  51.042  13.384  0.00  0.00     0.044 H 
ATOM     14  H7  GZ2 d          -1.336  51.394  12.276  0.00  0.00     0.044 H 
ENDROOT
BRANCH   4  15
ATOM     15  N6  GZ2 d          -5.862  53.973  11.663  0.00  0.00    -0.192 N 
ATOM     16  H8  GZ2 d          -5.791  54.971  11.418  0.00  0.00     0.184 HD
BRANCH  15  17
ATOM     17  C5  GZ2 d          -7.121  53.441  11.675  0.00  0.00     0.732 A 
ATOM     18  N4  GZ2 d          -7.841  53.219  12.783  0.00  0.00    -0.115 N 
ATOM     19  N3  GZ2 d          -9.043  52.667  12.308  0.00  0.00     0.008 NA
ATOM     20  H9  GZ2 d          -7.575  53.409  13.759  0.00  0.00     0.203 HD
ATOM     21  N2  GZ2 d          -8.974  52.610  10.903  0.00  0.00     0.033 NA
ATOM     22  N1  GZ2 d          -7.732  53.113  10.517  0.00  0.00     0.030 NA
ENDBRANCH  15  17
ENDBRANCH   4  15
TORSDOF 2
ENDMDL
