MODEL 1
REMARK VINA RESULT:      -9.0      0.000      0.000
REMARK  6 active torsions:
REMARK  status: ('A' for Active; 'I' for Inactive)
REMARK    1  A    between atoms: N16_6  and  C12_7 
REMARK    2  A    between atoms: C9_12  and  N7_13 
REMARK    3  A    between atoms: N7_13  and  C4_14 
REMARK    4  A    between atoms: C6_19  and  C15_20 
REMARK    5  A    between atoms: N25_24  and  C29_25 
REMARK    6  A    between atoms: C26_26  and  C27_27 
ROOT
ATOM      1  C12 Y8L d          21.862  25.384  28.829  0.00  0.00     0.030 A 
ATOM      2  C13 Y8L d          22.174  26.112  27.679  0.00  0.00    -0.055 A 
ATOM      3  C14 Y8L d          22.609  27.443  27.763  0.00  0.00    -0.054 A 
ATOM      4  C11 Y8L d          22.022  25.991  30.071  0.00  0.00    -0.055 A 
ATOM      5  C10 Y8L d          22.483  27.311  30.136  0.00  0.00    -0.054 A 
ATOM      6  C9  Y8L d          22.760  28.066  28.992  0.00  0.00     0.049 A 
ATOM      7  H11 Y8L d          22.079  25.642  26.707  0.00  0.00     0.087 H 
ATOM      8  H12 Y8L d          22.830  27.991  26.854  0.00  0.00     0.087 H 
ATOM      9  H13 Y8L d          21.791  25.447  30.980  0.00  0.00     0.087 H 
ATOM     10  H14 Y8L d          22.632  27.766  31.109  0.00  0.00     0.087 H 
ENDROOT
BRANCH   6  11
ATOM     11  N7  Y8L d          23.202  29.328  29.145  0.00  0.00    -0.188 N 
ATOM     12  H15 Y8L d          22.680  29.915  29.812  0.00  0.00     0.184 HD
BRANCH  11  13
ATOM     13  C4  Y8L d          24.246  29.914  28.529  0.00  0.00     0.727 A 
ATOM     14  N5  Y8L d          25.171  29.261  27.794  0.00  0.00    -0.061 NA
ATOM     15  C6  Y8L d          26.206  29.903  27.214  0.00  0.00     0.096 A 
ATOM     16  C1  Y8L d          26.255  31.295  27.303  0.00  0.00    -0.036 A 
ATOM     17  C2  Y8L d          25.271  31.953  28.020  0.00  0.00     0.023 A 
ATOM     18  H17 Y8L d          27.050  31.850  26.819  0.00  0.00     0.089 H 
ATOM     19  N3  Y8L d          24.302  31.258  28.595  0.00  0.00    -0.075 NA
ATOM     20  H16 Y8L d          25.294  33.033  28.110  0.00  0.00     0.115 H 
BRANCH  15  21
ATOM     21  C15 Y8L d          27.157  29.237  26.423  0.00  0.00     0.062 A 
ATOM     22  S23 Y8L d          28.491  29.949  25.602  0.00  0.00    -0.025 SA
ATOM     23  C24 Y8L d          28.949  28.504  24.848  0.00  0.00     0.291 A 
ATOM     24  O28 Y8L d          29.924  28.352  24.115  0.00  0.00    -0.259 OA
ATOM     25  N25 Y8L d          28.137  27.517  25.235  0.00  0.00    -0.316 N 
ATOM     26  C26 Y8L d          27.158  27.875  26.077  0.00  0.00     0.030 A 
BRANCH  25  27
ATOM     27  C29 Y8L d          28.317  26.118  24.756  0.00  0.00    -0.011 C 
ATOM     28  H18 Y8L d          29.208  25.680  25.229  0.00  0.00     0.057 H 
ATOM     29  H19 Y8L d          28.445  26.118  23.663  0.00  0.00     0.057 H 
ATOM     30  H20 Y8L d          27.431  25.523  25.021  0.00  0.00     0.057 H 
ENDBRANCH  25  27
BRANCH  26  31
ATOM     31  C27 Y8L d          26.153  26.850  26.610  0.00  0.00    -0.036 C 
ATOM     32  H21 Y8L d          25.296  26.786  25.925  0.00  0.00     0.035 H 
ATOM     33  H22 Y8L d          25.804  27.162  27.606  0.00  0.00     0.035 H 
ATOM     34  H23 Y8L d          26.638  25.865  26.683  0.00  0.00     0.035 H 
ENDBRANCH  26  31
ENDBRANCH  15  21
ENDBRANCH  11  13
ENDBRANCH   6  11
BRANCH   1  35
ATOM     35  N16 Y8L d          21.376  24.061  28.741  0.00  0.00    -0.378 N 
ATOM     36  C17 Y8L d          20.651  23.653  27.521  0.00  0.00     0.018 C 
ATOM     37  C18 Y8L d          19.814  22.366  27.647  0.00  0.00     0.096 C 
ATOM     38  H1  Y8L d          19.974  24.472  27.239  0.00  0.00     0.066 H 
ATOM     39  H2  Y8L d          21.392  23.498  26.722  0.00  0.00     0.066 H 
ATOM     40  N19 Y8L d          19.899  21.763  28.986  0.00  0.00    -0.072 N 
ATOM     41  H3  Y8L d          20.176  21.636  26.909  0.00  0.00     0.078 H 
ATOM     42  H4  Y8L d          18.761  22.609  27.437  0.00  0.00     0.078 H 
ATOM     43  C20 Y8L d          21.303  21.672  29.362  0.00  0.00     0.096 C 
ATOM     44  H5  Y8L d          19.490  20.842  28.971  0.00  0.00     0.277 HD
ATOM     45  H6  Y8L d          19.405  22.339  29.650  0.00  0.00     0.277 HD
ATOM     46  C21 Y8L d          21.778  23.071  29.756  0.00  0.00     0.018 C 
ATOM     47  H7  Y8L d          21.894  21.304  28.511  0.00  0.00     0.078 H 
ATOM     48  H8  Y8L d          21.418  20.985  30.213  0.00  0.00     0.078 H 
ATOM     49  H9  Y8L d          22.875  23.069  29.843  0.00  0.00     0.066 H 
ATOM     50  H10 Y8L d          21.334  23.345  30.724  0.00  0.00     0.066 H 
ENDBRANCH   1  35
TORSDOF 6
ENDMDL
MODEL 2
REMARK VINA RESULT:      -8.1      3.955      8.359
REMARK  6 active torsions:
REMARK  status: ('A' for Active; 'I' for Inactive)
REMARK    1  A    between atoms: N16_6  and  C12_7 
REMARK    2  A    between atoms: C9_12  and  N7_13 
REMARK    3  A    between atoms: N7_13  and  C4_14 
REMARK    4  A    between atoms: C6_19  and  C15_20 
REMARK    5  A    between atoms: N25_24  and  C29_25 
REMARK    6  A    between atoms: C26_26  and  C27_27 
ROOT
ATOM      1  C12 Y8L d          25.536  29.077  27.384  0.00  0.00     0.030 A 
ATOM      2  C13 Y8L d          24.650  29.747  28.231  0.00  0.00    -0.055 A 
ATOM      3  C14 Y8L d          23.478  29.126  28.688  0.00  0.00    -0.054 A 
ATOM      4  C11 Y8L d          25.255  27.762  27.024  0.00  0.00    -0.055 A 
ATOM      5  C10 Y8L d          24.094  27.150  27.513  0.00  0.00    -0.054 A 
ATOM      6  C9  Y8L d          23.177  27.822  28.326  0.00  0.00     0.049 A 
ATOM      7  H11 Y8L d          24.872  30.762  28.540  0.00  0.00     0.087 H 
ATOM      8  H12 Y8L d          22.799  29.674  29.331  0.00  0.00     0.087 H 
ATOM      9  H13 Y8L d          25.928  27.217  26.372  0.00  0.00     0.087 H 
ATOM     10  H14 Y8L d          23.898  26.117  27.250  0.00  0.00     0.087 H 
ENDROOT
BRANCH   6  11
ATOM     11  N7  Y8L d          22.087  27.157  28.753  0.00  0.00    -0.188 N 
ATOM     12  H15 Y8L d          21.286  27.736  29.043  0.00  0.00     0.184 HD
BRANCH  11  13
ATOM     13  C4  Y8L d          21.921  25.824  28.846  0.00  0.00     0.727 A 
ATOM     14  N5  Y8L d          21.580  25.018  27.818  0.00  0.00    -0.061 NA
ATOM     15  C6  Y8L d          21.412  23.689  27.977  0.00  0.00     0.096 A 
ATOM     16  C1  Y8L d          21.697  23.131  29.224  0.00  0.00    -0.036 A 
ATOM     17  C2  Y8L d          22.091  23.966  30.255  0.00  0.00     0.023 A 
ATOM     18  H17 Y8L d          21.609  22.063  29.383  0.00  0.00     0.089 H 
ATOM     19  N3  Y8L d          22.202  25.268  30.040  0.00  0.00    -0.075 NA
ATOM     20  H16 Y8L d          22.308  23.556  31.235  0.00  0.00     0.115 H 
BRANCH  15  21
ATOM     21  C15 Y8L d          21.088  22.837  26.908  0.00  0.00     0.062 A 
ATOM     22  S23 Y8L d          19.520  22.263  26.491  0.00  0.00    -0.025 SA
ATOM     23  C24 Y8L d          20.089  21.257  25.254  0.00  0.00     0.291 A 
ATOM     24  O28 Y8L d          19.395  20.570  24.508  0.00  0.00    -0.259 OA
ATOM     25  N25 Y8L d          21.414  21.385  25.144  0.00  0.00    -0.316 N 
ATOM     26  C26 Y8L d          21.986  22.220  26.021  0.00  0.00     0.030 A 
BRANCH  25  27
ATOM     27  C29 Y8L d          22.193  20.640  24.114  0.00  0.00    -0.011 C 
ATOM     28  H18 Y8L d          22.174  21.198  23.166  0.00  0.00     0.057 H 
ATOM     29  H19 Y8L d          21.745  19.647  23.963  0.00  0.00     0.057 H 
ATOM     30  H20 Y8L d          23.233  20.527  24.452  0.00  0.00     0.057 H 
ENDBRANCH  25  27
BRANCH  26  31
ATOM     31  C27 Y8L d          23.497  22.470  26.013  0.00  0.00    -0.036 C 
ATOM     32  H21 Y8L d          23.701  23.468  25.599  0.00  0.00     0.035 H 
ATOM     33  H22 Y8L d          23.991  21.709  25.392  0.00  0.00     0.035 H 
ATOM     34  H23 Y8L d          23.884  22.414  27.041  0.00  0.00     0.035 H 
ENDBRANCH  26  31
ENDBRANCH  15  21
ENDBRANCH  11  13
ENDBRANCH   6  11
BRANCH   1  35
ATOM     35  N16 Y8L d          26.690  29.720  26.885  0.00  0.00    -0.378 N 
ATOM     36  C17 Y8L d          27.570  28.976  25.962  0.00  0.00     0.018 C 
ATOM     37  C18 Y8L d          28.983  29.562  25.779  0.00  0.00     0.096 C 
ATOM     38  H1  Y8L d          27.675  27.951  26.346  0.00  0.00     0.066 H 
ATOM     39  H2  Y8L d          27.084  28.950  24.975  0.00  0.00     0.066 H 
ATOM     40  N19 Y8L d          29.197  30.785  26.567  0.00  0.00    -0.072 N 
ATOM     41  H3  Y8L d          29.131  29.798  24.715  0.00  0.00     0.078 H 
ATOM     42  H4  Y8L d          29.720  28.807  26.093  0.00  0.00     0.078 H 
ATOM     43  C20 Y8L d          28.077  31.686  26.331  0.00  0.00     0.096 C 
ATOM     44  H5  Y8L d          30.056  31.229  26.281  0.00  0.00     0.277 HD
ATOM     45  H6  Y8L d          29.248  30.554  27.547  0.00  0.00     0.277 HD
ATOM     46  C21 Y8L d          26.875  31.163  27.119  0.00  0.00     0.018 C 
ATOM     47  H7  Y8L d          27.837  31.710  25.258  0.00  0.00     0.078 H 
ATOM     48  H8  Y8L d          28.335  32.700  26.672  0.00  0.00     0.078 H 
ATOM     49  H9  Y8L d          25.971  31.700  26.798  0.00  0.00     0.066 H 
ATOM     50  H10 Y8L d          27.044  31.336  28.192  0.00  0.00     0.066 H 
ENDBRANCH   1  35
TORSDOF 6
ENDMDL
MODEL 3
REMARK VINA RESULT:      -7.6      2.292      4.046
REMARK  6 active torsions:
REMARK  status: ('A' for Active; 'I' for Inactive)
REMARK    1  A    between atoms: N16_6  and  C12_7 
REMARK    2  A    between atoms: C9_12  and  N7_13 
REMARK    3  A    between atoms: N7_13  and  C4_14 
REMARK    4  A    between atoms: C6_19  and  C15_20 
REMARK    5  A    between atoms: N25_24  and  C29_25 
REMARK    6  A    between atoms: C26_26  and  C27_27 
ROOT
ATOM      1  C12 Y8L d          21.857  24.599  27.996  0.00  0.00     0.030 A 
ATOM      2  C13 Y8L d          22.231  25.933  27.820  0.00  0.00    -0.055 A 
ATOM      3  C14 Y8L d          23.094  26.310  26.781  0.00  0.00    -0.054 A 
ATOM      4  C11 Y8L d          22.330  23.646  27.099  0.00  0.00    -0.055 A 
ATOM      5  C10 Y8L d          23.168  24.046  26.051  0.00  0.00    -0.054 A 
ATOM      6  C9  Y8L d          23.584  25.370  25.887  0.00  0.00     0.049 A 
ATOM      7  H11 Y8L d          21.848  26.689  28.497  0.00  0.00     0.087 H 
ATOM      8  H12 Y8L d          23.382  27.350  26.676  0.00  0.00     0.087 H 
ATOM      9  H13 Y8L d          22.051  22.604  27.209  0.00  0.00     0.087 H 
ATOM     10  H14 Y8L d          23.508  23.301  25.340  0.00  0.00     0.087 H 
ENDROOT
BRANCH   6  11
ATOM     11  N7  Y8L d          24.390  25.668  24.851  0.00  0.00    -0.188 N 
ATOM     12  H15 Y8L d          24.010  25.482  23.911  0.00  0.00     0.184 HD
BRANCH  11  13
ATOM     13  C4  Y8L d          25.634  26.181  24.897  0.00  0.00     0.727 A 
ATOM     14  N5  Y8L d          25.921  27.490  25.067  0.00  0.00    -0.061 NA
ATOM     15  C6  Y8L d          27.190  27.946  25.089  0.00  0.00     0.096 A 
ATOM     16  C1  Y8L d          28.228  27.015  25.031  0.00  0.00    -0.036 A 
ATOM     17  C2  Y8L d          27.916  25.672  24.906  0.00  0.00     0.023 A 
ATOM     18  H17 Y8L d          29.262  27.338  25.083  0.00  0.00     0.089 H 
ATOM     19  N3  Y8L d          26.648  25.296  24.855  0.00  0.00    -0.075 NA
ATOM     20  H16 Y8L d          28.707  24.933  24.850  0.00  0.00     0.115 H 
BRANCH  15  21
ATOM     21  C15 Y8L d          27.500  29.300  25.294  0.00  0.00     0.062 A 
ATOM     22  S23 Y8L d          28.661  30.232  24.430  0.00  0.00    -0.025 SA
ATOM     23  C24 Y8L d          28.457  31.603  25.402  0.00  0.00     0.291 A 
ATOM     24  O28 Y8L d          29.021  32.684  25.248  0.00  0.00    -0.259 OA
ATOM     25  N25 Y8L d          27.519  31.367  26.322  0.00  0.00    -0.316 N 
ATOM     26  C26 Y8L d          26.986  30.138  26.299  0.00  0.00     0.030 A 
BRANCH  25  27
ATOM     27  C29 Y8L d          27.101  32.408  27.304  0.00  0.00    -0.011 C 
ATOM     28  H18 Y8L d          26.240  32.042  27.882  0.00  0.00     0.057 H 
ATOM     29  H19 Y8L d          26.819  33.326  26.767  0.00  0.00     0.057 H 
ATOM     30  H20 Y8L d          27.936  32.624  27.986  0.00  0.00     0.057 H 
ENDBRANCH  25  27
BRANCH  26  31
ATOM     31  C27 Y8L d          25.896  29.724  27.291  0.00  0.00    -0.036 C 
ATOM     32  H21 Y8L d          26.349  29.165  28.122  0.00  0.00     0.035 H 
ATOM     33  H22 Y8L d          25.158  29.087  26.780  0.00  0.00     0.035 H 
ATOM     34  H23 Y8L d          25.396  30.623  27.682  0.00  0.00     0.035 H 
ENDBRANCH  26  31
ENDBRANCH  15  21
ENDBRANCH  11  13
ENDBRANCH   6  11
BRANCH   1  35
ATOM     35  N16 Y8L d          21.028  24.213  29.073  0.00  0.00    -0.378 N 
ATOM     36  C17 Y8L d          21.499  23.148  29.981  0.00  0.00     0.018 C 
ATOM     37  C18 Y8L d          20.414  22.503  30.864  0.00  0.00     0.096 C 
ATOM     38  H1  Y8L d          21.953  22.356  29.368  0.00  0.00     0.066 H 
ATOM     39  H2  Y8L d          22.263  23.581  30.645  0.00  0.00     0.066 H 
ATOM     40  N19 Y8L d          19.082  23.085  30.641  0.00  0.00    -0.072 N 
ATOM     41  H3  Y8L d          20.688  22.646  31.919  0.00  0.00     0.078 H 
ATOM     42  H4  Y8L d          20.371  21.427  30.638  0.00  0.00     0.078 H 
ATOM     43  C20 Y8L d          19.198  24.536  30.697  0.00  0.00     0.096 C 
ATOM     44  H5  Y8L d          18.447  22.766  31.356  0.00  0.00     0.277 HD
ATOM     45  H6  Y8L d          18.736  22.806  29.736  0.00  0.00     0.277 HD
ATOM     46  C21 Y8L d          19.831  25.011  29.389  0.00  0.00     0.018 C 
ATOM     47  H7  Y8L d          19.833  24.826  31.546  0.00  0.00     0.078 H 
ATOM     48  H8  Y8L d          18.200  24.986  30.815  0.00  0.00     0.078 H 
ATOM     49  H9  Y8L d          20.117  26.068  29.489  0.00  0.00     0.066 H 
ATOM     50  H10 Y8L d          19.100  24.904  28.574  0.00  0.00     0.066 H 
ENDBRANCH   1  35
TORSDOF 6
ENDMDL
MODEL 4
REMARK VINA RESULT:      -7.4      4.237      8.785
REMARK  6 active torsions:
REMARK  status: ('A' for Active; 'I' for Inactive)
REMARK    1  A    between atoms: N16_6  and  C12_7 
REMARK    2  A    between atoms: C9_12  and  N7_13 
REMARK    3  A    between atoms: N7_13  and  C4_14 
REMARK    4  A    between atoms: C6_19  and  C15_20 
REMARK    5  A    between atoms: N25_24  and  C29_25 
REMARK    6  A    between atoms: C26_26  and  C27_27 
ROOT
ATOM      1  C12 Y8L d          26.333  28.563  26.071  0.00  0.00     0.030 A 
ATOM      2  C13 Y8L d          27.435  27.733  26.290  0.00  0.00    -0.055 A 
ATOM      3  C14 Y8L d          27.504  26.456  25.713  0.00  0.00    -0.054 A 
ATOM      4  C11 Y8L d          25.312  28.115  25.237  0.00  0.00    -0.055 A 
ATOM      5  C10 Y8L d          25.412  26.849  24.648  0.00  0.00    -0.054 A 
ATOM      6  C9  Y8L d          26.488  25.991  24.892  0.00  0.00     0.049 A 
ATOM      7  H11 Y8L d          28.249  28.080  26.916  0.00  0.00     0.087 H 
ATOM      8  H12 Y8L d          28.363  25.825  25.912  0.00  0.00     0.087 H 
ATOM      9  H13 Y8L d          24.448  28.742  25.046  0.00  0.00     0.087 H 
ATOM     10  H14 Y8L d          24.625  26.521  23.978  0.00  0.00     0.087 H 
ENDROOT
BRANCH   6  11
ATOM     11  N7  Y8L d          26.505  24.791  24.282  0.00  0.00    -0.188 N 
ATOM     12  H15 Y8L d          27.122  24.707  23.461  0.00  0.00     0.184 HD
BRANCH  11  13
ATOM     13  C4  Y8L d          25.812  23.687  24.620  0.00  0.00     0.727 A 
ATOM     14  N5  Y8L d          24.565  23.690  25.138  0.00  0.00    -0.061 NA
ATOM     15  C6  Y8L d          23.927  22.550  25.471  0.00  0.00     0.096 A 
ATOM     16  C1  Y8L d          24.547  21.335  25.177  0.00  0.00    -0.036 A 
ATOM     17  C2  Y8L d          25.805  21.349  24.601  0.00  0.00     0.023 A 
ATOM     18  H17 Y8L d          24.052  20.396  25.396  0.00  0.00     0.089 H 
ATOM     19  N3  Y8L d          26.390  22.506  24.331  0.00  0.00    -0.075 NA
ATOM     20  H16 Y8L d          26.310  20.418  24.372  0.00  0.00     0.115 H 
BRANCH  15  21
ATOM     21  C15 Y8L d          22.619  22.540  25.983  0.00  0.00     0.062 A 
ATOM     22  S23 Y8L d          21.445  21.298  25.783  0.00  0.00    -0.025 SA
ATOM     23  C24 Y8L d          20.219  22.168  26.562  0.00  0.00     0.291 A 
ATOM     24  O28 Y8L d          19.080  21.765  26.782  0.00  0.00    -0.259 OA
ATOM     25  N25 Y8L d          20.699  23.340  26.985  0.00  0.00    -0.316 N 
ATOM     26  C26 Y8L d          21.983  23.578  26.686  0.00  0.00     0.030 A 
BRANCH  25  27
ATOM     27  C29 Y8L d          19.853  24.311  27.735  0.00  0.00    -0.011 C 
ATOM     28  H18 Y8L d          18.924  23.817  28.055  0.00  0.00     0.057 H 
ATOM     29  H19 Y8L d          19.608  25.164  27.084  0.00  0.00     0.057 H 
ATOM     30  H20 Y8L d          20.400  24.668  28.619  0.00  0.00     0.057 H 
ENDBRANCH  25  27
BRANCH  26  31
ATOM     31  C27 Y8L d          22.671  24.878  27.111  0.00  0.00    -0.036 C 
ATOM     32  H21 Y8L d          21.944  25.529  27.618  0.00  0.00     0.035 H 
ATOM     33  H22 Y8L d          23.064  25.393  26.222  0.00  0.00     0.035 H 
ATOM     34  H23 Y8L d          23.499  24.648  27.798  0.00  0.00     0.035 H 
ENDBRANCH  26  31
ENDBRANCH  15  21
ENDBRANCH  11  13
ENDBRANCH   6  11
BRANCH   1  35
ATOM     35  N16 Y8L d          26.241  29.828  26.693  0.00  0.00    -0.378 N 
ATOM     36  C17 Y8L d          25.479  29.943  27.951  0.00  0.00     0.018 C 
ATOM     37  C18 Y8L d          25.079  31.375  28.354  0.00  0.00     0.096 C 
ATOM     38  H1  Y8L d          24.558  29.351  27.845  0.00  0.00     0.066 H 
ATOM     39  H2  Y8L d          26.093  29.522  28.761  0.00  0.00     0.066 H 
ATOM     40  N19 Y8L d          25.549  32.386  27.395  0.00  0.00    -0.072 N 
ATOM     41  H3  Y8L d          25.512  31.597  29.340  0.00  0.00     0.078 H 
ATOM     42  H4  Y8L d          23.981  31.430  28.415  0.00  0.00     0.078 H 
ATOM     43  C20 Y8L d          26.961  32.148  27.130  0.00  0.00     0.096 C 
ATOM     44  H5  Y8L d          25.426  33.308  27.784  0.00  0.00     0.277 HD
ATOM     45  H6  Y8L d          25.024  32.311  26.537  0.00  0.00     0.277 HD
ATOM     46  C21 Y8L d          27.070  30.941  26.198  0.00  0.00     0.018 C 
ATOM     47  H7  Y8L d          27.487  31.940  28.072  0.00  0.00     0.078 H 
ATOM     48  H8  Y8L d          27.405  33.033  26.649  0.00  0.00     0.078 H 
ATOM     49  H9  Y8L d          28.120  30.616  26.149  0.00  0.00     0.066 H 
ATOM     50  H10 Y8L d          26.727  31.228  25.193  0.00  0.00     0.066 H 
ENDBRANCH   1  35
TORSDOF 6
ENDMDL
MODEL 5
REMARK VINA RESULT:      -7.2      2.264      4.343
REMARK  6 active torsions:
REMARK  status: ('A' for Active; 'I' for Inactive)
REMARK    1  A    between atoms: N16_6  and  C12_7 
REMARK    2  A    between atoms: C9_12  and  N7_13 
REMARK    3  A    between atoms: N7_13  and  C4_14 
REMARK    4  A    between atoms: C6_19  and  C15_20 
REMARK    5  A    between atoms: N25_24  and  C29_25 
REMARK    6  A    between atoms: C26_26  and  C27_27 
ROOT
ATOM      1  C12 Y8L d          22.525  24.050  26.783  0.00  0.00     0.030 A 
ATOM      2  C13 Y8L d          23.182  23.113  25.981  0.00  0.00    -0.055 A 
ATOM      3  C14 Y8L d          24.197  23.505  25.097  0.00  0.00    -0.054 A 
ATOM      4  C11 Y8L d          22.920  25.383  26.717  0.00  0.00    -0.055 A 
ATOM      5  C10 Y8L d          23.955  25.750  25.848  0.00  0.00    -0.054 A 
ATOM      6  C9  Y8L d          24.592  24.832  25.010  0.00  0.00     0.049 A 
ATOM      7  H11 Y8L d          22.902  22.068  26.043  0.00  0.00     0.087 H 
ATOM      8  H12 Y8L d          24.681  22.761  24.474  0.00  0.00     0.087 H 
ATOM      9  H13 Y8L d          22.430  26.129  27.332  0.00  0.00     0.087 H 
ATOM     10  H14 Y8L d          24.274  26.786  25.825  0.00  0.00     0.087 H 
ENDROOT
BRANCH   6  11
ATOM     11  N7  Y8L d          25.579  25.270  24.207  0.00  0.00    -0.188 N 
ATOM     12  H15 Y8L d          25.656  24.810  23.288  0.00  0.00     0.184 HD
BRANCH  11  13
ATOM     13  C4  Y8L d          26.478  26.239  24.462  0.00  0.00     0.727 A 
ATOM     14  N5  Y8L d          26.202  27.394  25.105  0.00  0.00    -0.061 NA
ATOM     15  C6  Y8L d          27.144  28.336  25.318  0.00  0.00     0.096 A 
ATOM     16  C1  Y8L d          28.458  28.053  24.943  0.00  0.00    -0.036 A 
ATOM     17  C2  Y8L d          28.733  26.844  24.328  0.00  0.00     0.023 A 
ATOM     18  H17 Y8L d          29.251  28.769  25.130  0.00  0.00     0.089 H 
ATOM     19  N3  Y8L d          27.754  25.978  24.118  0.00  0.00    -0.075 NA
ATOM     20  H16 Y8L d          29.745  26.607  24.020  0.00  0.00     0.115 H 
BRANCH  15  21
ATOM     21  C15 Y8L d          26.875  29.527  26.011  0.00  0.00     0.062 A 
ATOM     22  S23 Y8L d          27.694  31.030  25.830  0.00  0.00    -0.025 SA
ATOM     23  C24 Y8L d          26.842  31.779  27.088  0.00  0.00     0.291 A 
ATOM     24  O28 Y8L d          26.960  32.951  27.438  0.00  0.00    -0.259 OA
ATOM     25  N25 Y8L d          25.950  30.927  27.597  0.00  0.00    -0.316 N 
ATOM     26  C26 Y8L d          25.943  29.705  27.048  0.00  0.00     0.030 A 
BRANCH  25  27
ATOM     27  C29 Y8L d          25.030  31.319  28.702  0.00  0.00    -0.011 C 
ATOM     28  H18 Y8L d          24.362  32.122  28.357  0.00  0.00     0.057 H 
ATOM     29  H19 Y8L d          25.619  31.677  29.560  0.00  0.00     0.057 H 
ATOM     30  H20 Y8L d          24.430  30.449  29.006  0.00  0.00     0.057 H 
ENDBRANCH  25  27
BRANCH  26  31
ATOM     31  C27 Y8L d          24.969  28.624  27.526  0.00  0.00    -0.036 C 
ATOM     32  H21 Y8L d          25.363  28.154  28.438  0.00  0.00     0.035 H 
ATOM     33  H22 Y8L d          24.855  27.861  26.741  0.00  0.00     0.035 H 
ATOM     34  H23 Y8L d          23.991  29.079  27.740  0.00  0.00     0.035 H 
ENDBRANCH  26  31
ENDBRANCH  15  21
ENDBRANCH  11  13
ENDBRANCH   6  11
BRANCH   1  35
ATOM     35  N16 Y8L d          21.468  23.662  27.636  0.00  0.00    -0.378 N 
ATOM     36  C17 Y8L d          20.402  24.639  27.930  0.00  0.00     0.018 C 
ATOM     37  C18 Y8L d          19.522  24.312  29.151  0.00  0.00     0.096 C 
ATOM     38  H1  Y8L d          20.876  25.616  28.105  0.00  0.00     0.066 H 
ATOM     39  H2  Y8L d          19.747  24.703  27.048  0.00  0.00     0.066 H 
ATOM     40  N19 Y8L d          19.909  23.055  29.808  0.00  0.00    -0.072 N 
ATOM     41  H3  Y8L d          18.476  24.229  28.820  0.00  0.00     0.078 H 
ATOM     42  H4  Y8L d          19.611  25.133  29.879  0.00  0.00     0.078 H 
ATOM     43  C20 Y8L d          20.029  22.021  28.790  0.00  0.00     0.096 C 
ATOM     44  H5  Y8L d          19.205  22.791  30.480  0.00  0.00     0.277 HD
ATOM     45  H6  Y8L d          20.793  23.175  30.278  0.00  0.00     0.277 HD
ATOM     46  C21 Y8L d          21.340  22.250  28.037  0.00  0.00     0.018 C 
ATOM     47  H7  Y8L d          19.183  22.085  28.091  0.00  0.00     0.078 H 
ATOM     48  H8  Y8L d          20.040  21.028  29.265  0.00  0.00     0.078 H 
ATOM     49  H9  Y8L d          21.356  21.616  27.138  0.00  0.00     0.066 H 
ATOM     50  H10 Y8L d          22.184  21.981  28.690  0.00  0.00     0.066 H 
ENDBRANCH   1  35
TORSDOF 6
ENDMDL
MODEL 6
REMARK VINA RESULT:      -6.5      3.081      7.879
REMARK  6 active torsions:
REMARK  status: ('A' for Active; 'I' for Inactive)
REMARK    1  A    between atoms: N16_6  and  C12_7 
REMARK    2  A    between atoms: C9_12  and  N7_13 
REMARK    3  A    between atoms: N7_13  and  C4_14 
REMARK    4  A    between atoms: C6_19  and  C15_20 
REMARK    5  A    between atoms: N25_24  and  C29_25 
REMARK    6  A    between atoms: C26_26  and  C27_27 
ROOT
ATOM      1  C12 Y8L d          26.212  29.453  27.028  0.00  0.00     0.030 A 
ATOM      2  C13 Y8L d          25.693  30.466  27.838  0.00  0.00    -0.055 A 
ATOM      3  C14 Y8L d          24.528  30.263  28.591  0.00  0.00    -0.054 A 
ATOM      4  C11 Y8L d          25.570  28.218  27.005  0.00  0.00    -0.055 A 
ATOM      5  C10 Y8L d          24.423  28.026  27.785  0.00  0.00    -0.054 A 
ATOM      6  C9  Y8L d          23.869  29.043  28.567  0.00  0.00     0.049 A 
ATOM      7  H11 Y8L d          26.199  31.424  27.885  0.00  0.00     0.087 H 
ATOM      8  H12 Y8L d          24.137  31.070  29.199  0.00  0.00     0.087 H 
ATOM      9  H13 Y8L d          25.955  27.413  26.389  0.00  0.00     0.087 H 
ATOM     10  H14 Y8L d          23.947  27.052  27.782  0.00  0.00     0.087 H 
ENDROOT
BRANCH   6  11
ATOM     11  N7  Y8L d          22.765  28.771  29.288  0.00  0.00    -0.188 N 
ATOM     12  H15 Y8L d          22.324  29.572  29.764  0.00  0.00     0.184 HD
BRANCH  11  13
ATOM     13  C4  Y8L d          22.170  27.577  29.462  0.00  0.00     0.727 A 
ATOM     14  N5  Y8L d          22.341  26.507  28.656  0.00  0.00    -0.061 NA
ATOM     15  C6  Y8L d          21.703  25.339  28.874  0.00  0.00     0.096 A 
ATOM     16  C1  Y8L d          20.921  25.216  30.023  0.00  0.00    -0.036 A 
ATOM     17  C2  Y8L d          20.794  26.308  30.864  0.00  0.00     0.023 A 
ATOM     18  H17 Y8L d          20.421  24.282  30.252  0.00  0.00     0.089 H 
ATOM     19  N3  Y8L d          21.420  27.437  30.573  0.00  0.00    -0.075 NA
ATOM     20  H16 Y8L d          20.184  26.239  31.757  0.00  0.00     0.115 H 
BRANCH  15  21
ATOM     21  C15 Y8L d          21.898  24.211  28.059  0.00  0.00     0.062 A 
ATOM     22  S23 Y8L d          21.970  24.185  26.339  0.00  0.00    -0.025 SA
ATOM     23  C24 Y8L d          22.073  22.497  26.253  0.00  0.00     0.291 A 
ATOM     24  O28 Y8L d          22.197  21.836  25.225  0.00  0.00    -0.259 OA
ATOM     25  N25 Y8L d          22.086  21.983  27.485  0.00  0.00    -0.316 N 
ATOM     26  C26 Y8L d          21.987  22.874  28.481  0.00  0.00     0.030 A 
BRANCH  25  27
ATOM     27  C29 Y8L d          22.202  20.516  27.724  0.00  0.00    -0.011 C 
ATOM     28  H18 Y8L d          23.243  20.266  27.973  0.00  0.00     0.057 H 
ATOM     29  H19 Y8L d          21.901  19.972  26.815  0.00  0.00     0.057 H 
ATOM     30  H20 Y8L d          21.546  20.228  28.558  0.00  0.00     0.057 H 
ENDBRANCH  25  27
BRANCH  26  31
ATOM     31  C27 Y8L d          21.994  22.432  29.947  0.00  0.00    -0.036 C 
ATOM     32  H21 Y8L d          22.949  21.937  30.177  0.00  0.00     0.035 H 
ATOM     33  H22 Y8L d          21.166  21.728  30.122  0.00  0.00     0.035 H 
ATOM     34  H23 Y8L d          21.871  23.311  30.596  0.00  0.00     0.035 H 
ENDBRANCH  26  31
ENDBRANCH  15  21
ENDBRANCH  11  13
ENDBRANCH   6  11
BRANCH   1  35
ATOM     35  N16 Y8L d          27.357  29.675  26.231  0.00  0.00    -0.378 N 
ATOM     36  C17 Y8L d          27.590  28.796  25.068  0.00  0.00     0.018 C 
ATOM     37  C18 Y8L d          29.020  28.820  24.496  0.00  0.00     0.096 C 
ATOM     38  H1  Y8L d          27.363  27.764  25.372  0.00  0.00     0.066 H 
ATOM     39  H2  Y8L d          26.899  29.102  24.268  0.00  0.00     0.066 H 
ATOM     40  N19 Y8L d          29.906  29.740  25.224  0.00  0.00    -0.072 N 
ATOM     41  H3  Y8L d          28.973  29.136  23.443  0.00  0.00     0.078 H 
ATOM     42  H4  Y8L d          29.440  27.805  24.555  0.00  0.00     0.078 H 
ATOM     43  C20 Y8L d          29.230  31.023  25.356  0.00  0.00     0.096 C 
ATOM     44  H5  Y8L d          30.767  29.860  24.713  0.00  0.00     0.277 HD
ATOM     45  H6  Y8L d          30.108  29.366  26.138  0.00  0.00     0.277 HD
ATOM     46  C21 Y8L d          28.166  30.887  26.446  0.00  0.00     0.018 C 
ATOM     47  H7  Y8L d          28.754  31.294  24.403  0.00  0.00     0.078 H 
ATOM     48  H8  Y8L d          29.956  31.801  25.638  0.00  0.00     0.078 H 
ATOM     49  H9  Y8L d          27.509  31.769  26.422  0.00  0.00     0.066 H 
ATOM     50  H10 Y8L d          28.660  30.823  27.427  0.00  0.00     0.066 H 
ENDBRANCH   1  35
TORSDOF 6
ENDMDL
MODEL 7
REMARK VINA RESULT:      -6.3      1.938      2.703
REMARK  6 active torsions:
REMARK  status: ('A' for Active; 'I' for Inactive)
REMARK    1  A    between atoms: N16_6  and  C12_7 
REMARK    2  A    between atoms: C9_12  and  N7_13 
REMARK    3  A    between atoms: N7_13  and  C4_14 
REMARK    4  A    between atoms: C6_19  and  C15_20 
REMARK    5  A    between atoms: N25_24  and  C29_25 
REMARK    6  A    between atoms: C26_26  and  C27_27 
ROOT
ATOM      1  C12 Y8L d          22.193  24.308  27.022  0.00  0.00     0.030 A 
ATOM      2  C13 Y8L d          21.380  24.947  27.961  0.00  0.00    -0.055 A 
ATOM      3  C14 Y8L d          21.565  26.301  28.274  0.00  0.00    -0.054 A 
ATOM      4  C11 Y8L d          23.176  25.049  26.372  0.00  0.00    -0.055 A 
ATOM      5  C10 Y8L d          23.327  26.406  26.678  0.00  0.00    -0.054 A 
ATOM      6  C9  Y8L d          22.549  27.049  27.645  0.00  0.00     0.049 A 
ATOM      7  H11 Y8L d          20.593  24.388  28.455  0.00  0.00     0.087 H 
ATOM      8  H12 Y8L d          20.931  26.769  29.018  0.00  0.00     0.087 H 
ATOM      9  H13 Y8L d          23.817  24.579  25.635  0.00  0.00     0.087 H 
ATOM     10  H14 Y8L d          24.077  26.981  26.145  0.00  0.00     0.087 H 
ENDROOT
BRANCH   6  11
ATOM     11  N7  Y8L d          22.760  28.358  27.876  0.00  0.00    -0.188 N 
ATOM     12  H15 Y8L d          21.918  28.946  27.961  0.00  0.00     0.184 HD
BRANCH  11  13
ATOM     13  C4  Y8L d          23.942  28.990  28.008  0.00  0.00     0.727 A 
ATOM     14  N5  Y8L d          24.957  28.917  27.121  0.00  0.00    -0.061 NA
ATOM     15  C6  Y8L d          26.125  29.561  27.317  0.00  0.00     0.096 A 
ATOM     16  C1  Y8L d          26.239  30.402  28.426  0.00  0.00    -0.036 A 
ATOM     17  C2  Y8L d          25.171  30.503  29.300  0.00  0.00     0.023 A 
ATOM     18  H17 Y8L d          27.148  30.965  28.599  0.00  0.00     0.089 H 
ATOM     19  N3  Y8L d          24.064  29.814  29.066  0.00  0.00    -0.075 NA
ATOM     20  H16 Y8L d          25.240  31.142  30.172  0.00  0.00     0.115 H 
BRANCH  15  21
ATOM     21  C15 Y8L d          27.177  29.516  26.386  0.00  0.00     0.062 A 
ATOM     22  S23 Y8L d          27.878  28.104  25.695  0.00  0.00    -0.025 SA
ATOM     23  C24 Y8L d          29.078  28.964  24.867  0.00  0.00     0.291 A 
ATOM     24  O28 Y8L d          29.920  28.480  24.114  0.00  0.00    -0.259 OA
ATOM     25  N25 Y8L d          28.926  30.273  25.084  0.00  0.00    -0.316 N 
ATOM     26  C26 Y8L d          27.918  30.607  25.901  0.00  0.00     0.030 A 
BRANCH  25  27
ATOM     27  C29 Y8L d          29.823  31.283  24.456  0.00  0.00    -0.011 C 
ATOM     28  H18 Y8L d          29.868  31.110  23.371  0.00  0.00     0.057 H 
ATOM     29  H19 Y8L d          30.833  31.193  24.884  0.00  0.00     0.057 H 
ATOM     30  H20 Y8L d          29.432  32.292  24.650  0.00  0.00     0.057 H 
ENDBRANCH  25  27
BRANCH  26  31
ATOM     31  C27 Y8L d          27.618  32.070  26.237  0.00  0.00    -0.036 C 
ATOM     32  H21 Y8L d          28.291  32.407  27.040  0.00  0.00     0.035 H 
ATOM     33  H22 Y8L d          26.574  32.163  26.572  0.00  0.00     0.035 H 
ATOM     34  H23 Y8L d          27.774  32.692  25.343  0.00  0.00     0.035 H 
ENDBRANCH  26  31
ENDBRANCH  15  21
ENDBRANCH  11  13
ENDBRANCH   6  11
BRANCH   1  35
ATOM     35  N16 Y8L d          22.038  22.932  26.744  0.00  0.00    -0.378 N 
ATOM     36  C17 Y8L d          23.222  22.159  26.318  0.00  0.00     0.018 C 
ATOM     37  C18 Y8L d          22.923  20.802  25.653  0.00  0.00     0.096 C 
ATOM     38  H1  Y8L d          23.786  22.772  25.599  0.00  0.00     0.066 H 
ATOM     39  H2  Y8L d          23.843  21.972  27.206  0.00  0.00     0.066 H 
ATOM     40  N19 Y8L d          21.483  20.516  25.572  0.00  0.00    -0.072 N 
ATOM     41  H3  Y8L d          23.407  20.008  26.241  0.00  0.00     0.078 H 
ATOM     42  H4  Y8L d          23.339  20.810  24.634  0.00  0.00     0.078 H 
ATOM     43  C20 Y8L d          20.892  20.750  26.882  0.00  0.00     0.096 C 
ATOM     44  H5  Y8L d          21.341  19.555  25.301  0.00  0.00     0.277 HD
ATOM     45  H6  Y8L d          21.053  21.123  24.891  0.00  0.00     0.277 HD
ATOM     46  C21 Y8L d          20.771  22.261  27.083  0.00  0.00     0.018 C 
ATOM     47  H7  Y8L d          21.535  20.320  27.664  0.00  0.00     0.078 H 
ATOM     48  H8  Y8L d          19.895  20.286  26.931  0.00  0.00     0.078 H 
ATOM     49  H9  Y8L d          20.524  22.467  28.135  0.00  0.00     0.066 H 
ATOM     50  H10 Y8L d          19.971  22.649  26.435  0.00  0.00     0.066 H 
ENDBRANCH   1  35
TORSDOF 6
ENDMDL
