MODEL 1
REMARK VINA RESULT:      -5.9      0.000      0.000
REMARK  5 active torsions:
REMARK  status: ('A' for Active; 'I' for Inactive)
REMARK    1  A    between atoms: C2_2  and  O2_8 
REMARK    2  A    between atoms: C3_3  and  O3_9 
REMARK    3  A    between atoms: C4_4  and  O4_10 
REMARK    4  A    between atoms: C5_5  and  C6_6 
REMARK    5  A    between atoms: C6_6  and  O6_12 
ROOT
ATOM      1  C1  MOL d         -10.338 -29.681 -28.889  0.00  0.00     0.291 C 
ATOM      2  C2  MOL d         -11.423 -28.868 -28.166  0.00  0.00     0.146 C 
ATOM      3  C3  MOL d         -10.912 -28.428 -26.794  0.00  0.00     0.096 C 
ATOM      4  C4  MOL d         -10.383 -29.629 -26.014  0.00  0.00     0.090 C 
ATOM      5  C5  MOL d          -9.104 -30.127 -26.712  0.00  0.00     0.095 C 
ATOM      6  O1  MOL d         -10.398 -29.833 -30.083  0.00  0.00    -0.262 OA
ATOM      7  O5  MOL d          -9.289 -30.245 -28.181  0.00  0.00    -0.309 OA
ATOM      8  H1  MOL d         -12.322 -29.490 -28.044  0.00  0.00     0.103 H 
ATOM      9  H2  MOL d         -10.100 -27.699 -26.925  0.00  0.00     0.091 H 
ATOM     10  H3  MOL d         -10.152 -29.329 -24.981  0.00  0.00     0.091 H 
ATOM     11  H4  MOL d          -8.294 -29.411 -26.510  0.00  0.00     0.091 H 
ENDROOT
BRANCH   5  12
ATOM     12  C6  MOL d          -8.705 -31.502 -26.176  0.00  0.00     0.044 C 
ATOM     13  H5  MOL d          -7.662 -31.711 -26.453  0.00  0.00     0.078 H 
ATOM     14  H6  MOL d          -9.363 -32.267 -26.615  0.00  0.00     0.078 H 
BRANCH  12  15
ATOM     15  O6  MOL d          -8.830 -31.533 -24.756  0.00  0.00    -0.398 OA
ATOM     16  H10 MOL d          -9.705 -31.254 -24.509  0.00  0.00     0.209 HD
ENDBRANCH  12  15
ENDBRANCH   5  12
BRANCH   4  17
ATOM     17  O4  MOL d         -11.366 -30.674 -26.000  0.00  0.00    -0.390 OA
ATOM     18  H9  MOL d         -12.104 -30.420 -26.541  0.00  0.00     0.210 HD
ENDBRANCH   4  17
BRANCH   3  19
ATOM     19  O3  MOL d         -11.976 -27.823 -26.086  0.00  0.00    -0.390 OA
ATOM     20  H8  MOL d         -12.109 -28.281 -25.265  0.00  0.00     0.210 HD
ENDBRANCH   3  19
BRANCH   2  21
ATOM     21  O2  MOL d         -11.749 -27.693 -28.926  0.00  0.00    -0.383 OA
ATOM     22  H7  MOL d         -12.067 -27.016 -28.340  0.00  0.00     0.210 HD
ENDBRANCH   2  21
TORSDOF 5
ENDMDL
MODEL 2
REMARK VINA RESULT:      -5.4      1.443      3.924
REMARK  5 active torsions:
REMARK  status: ('A' for Active; 'I' for Inactive)
REMARK    1  A    between atoms: C2_2  and  O2_8 
REMARK    2  A    between atoms: C3_3  and  O3_9 
REMARK    3  A    between atoms: C4_4  and  O4_10 
REMARK    4  A    between atoms: C5_5  and  C6_6 
REMARK    5  A    between atoms: C6_6  and  O6_12 
ROOT
ATOM      1  C1  MOL d         -10.850 -27.835 -26.596  0.00  0.00     0.291 C 
ATOM      2  C2  MOL d          -9.978 -28.892 -25.901  0.00  0.00     0.146 C 
ATOM      3  C3  MOL d          -9.018 -29.519 -26.912  0.00  0.00     0.096 C 
ATOM      4  C4  MOL d          -9.786 -30.022 -28.132  0.00  0.00     0.090 C 
ATOM      5  C5  MOL d         -10.333 -28.798 -28.891  0.00  0.00     0.095 C 
ATOM      6  O1  MOL d         -11.422 -27.003 -25.939  0.00  0.00    -0.262 OA
ATOM      7  O5  MOL d         -10.988 -27.830 -27.975  0.00  0.00    -0.309 OA
ATOM      8  H1  MOL d         -10.624 -29.671 -25.471  0.00  0.00     0.103 H 
ATOM      9  H2  MOL d          -8.287 -28.764 -27.235  0.00  0.00     0.091 H 
ATOM     10  H3  MOL d          -9.113 -30.596 -28.784  0.00  0.00     0.091 H 
ATOM     11  H4  MOL d          -9.496 -28.299 -29.400  0.00  0.00     0.091 H 
ENDROOT
BRANCH   5  12
ATOM     12  C6  MOL d         -11.366 -29.235 -29.930  0.00  0.00     0.044 C 
ATOM     13  H5  MOL d         -11.664 -28.365 -30.533  0.00  0.00     0.078 H 
ATOM     14  H6  MOL d         -12.248 -29.645 -29.416  0.00  0.00     0.078 H 
BRANCH  12  15
ATOM     15  O6  MOL d         -10.814 -30.233 -30.786  0.00  0.00    -0.398 OA
ATOM     16  H10 MOL d         -10.439 -30.929 -30.258  0.00  0.00     0.209 HD
ENDBRANCH  12  15
ENDBRANCH   5  12
BRANCH   4  17
ATOM     17  O4  MOL d         -10.874 -30.859 -27.713  0.00  0.00    -0.390 OA
ATOM     18  H9  MOL d         -11.675 -30.569 -28.134  0.00  0.00     0.210 HD
ENDBRANCH   4  17
BRANCH   3  19
ATOM     19  O3  MOL d          -8.341 -30.593 -26.291  0.00  0.00    -0.390 OA
ATOM     20  H8  MOL d          -7.906 -31.116 -26.953  0.00  0.00     0.210 HD
ENDBRANCH   3  19
BRANCH   2  21
ATOM     21  O2  MOL d          -9.201 -28.282 -24.857  0.00  0.00    -0.383 OA
ATOM     22  H7  MOL d          -9.713 -28.255 -24.057  0.00  0.00     0.210 HD
ENDBRANCH   2  21
TORSDOF 5
ENDMDL
MODEL 3
REMARK VINA RESULT:      -4.5      1.416      3.644
REMARK  5 active torsions:
REMARK  status: ('A' for Active; 'I' for Inactive)
REMARK    1  A    between atoms: C2_2  and  O2_8 
REMARK    2  A    between atoms: C3_3  and  O3_9 
REMARK    3  A    between atoms: C4_4  and  O4_10 
REMARK    4  A    between atoms: C5_5  and  C6_6 
REMARK    5  A    between atoms: C6_6  and  O6_12 
ROOT
ATOM      1  C1  MOL d          -9.107 -30.748 -27.413  0.00  0.00     0.291 C 
ATOM      2  C2  MOL d          -9.036 -29.617 -26.375  0.00  0.00     0.146 C 
ATOM      3  C3  MOL d         -10.385 -28.903 -26.294  0.00  0.00     0.096 C 
ATOM      4  C4  MOL d         -10.842 -28.470 -27.685  0.00  0.00     0.090 C 
ATOM      5  C5  MOL d         -11.173 -29.737 -28.495  0.00  0.00     0.095 C 
ATOM      6  O1  MOL d          -8.287 -31.630 -27.396  0.00  0.00    -0.262 OA
ATOM      7  O5  MOL d         -10.107 -30.763 -28.373  0.00  0.00    -0.309 OA
ATOM      8  H1  MOL d          -8.256 -28.901 -26.671  0.00  0.00     0.103 H 
ATOM      9  H2  MOL d         -11.133 -29.587 -25.867  0.00  0.00     0.091 H 
ATOM     10  H3  MOL d         -11.737 -27.836 -27.601  0.00  0.00     0.091 H 
ATOM     11  H4  MOL d         -12.118 -30.157 -28.119  0.00  0.00     0.091 H 
ENDROOT
BRANCH   5  12
ATOM     12  C6  MOL d         -11.329 -29.395 -29.977  0.00  0.00     0.044 C 
ATOM     13  H5  MOL d         -10.984 -28.365 -30.150  0.00  0.00     0.078 H 
ATOM     14  H6  MOL d         -12.389 -29.480 -30.259  0.00  0.00     0.078 H 
BRANCH  12  15
ATOM     15  O6  MOL d         -10.557 -30.290 -30.774  0.00  0.00    -0.398 OA
ATOM     16  H10 MOL d          -9.861 -29.808 -31.206  0.00  0.00     0.209 HD
ENDBRANCH  12  15
ENDBRANCH   5  12
BRANCH   4  17
ATOM     17  O4  MOL d          -9.795 -27.737 -28.337  0.00  0.00    -0.390 OA
ATOM     18  H9  MOL d          -9.731 -26.871 -27.954  0.00  0.00     0.210 HD
ENDBRANCH   4  17
BRANCH   3  19
ATOM     19  O3  MOL d         -10.252 -27.773 -25.456  0.00  0.00    -0.390 OA
ATOM     20  H8  MOL d         -10.729 -27.043 -25.833  0.00  0.00     0.210 HD
ENDBRANCH   3  19
BRANCH   2  21
ATOM     21  O2  MOL d          -8.729 -30.155 -25.078  0.00  0.00    -0.383 OA
ATOM     22  H7  MOL d          -7.791 -30.113 -24.933  0.00  0.00     0.210 HD
ENDBRANCH   2  21
TORSDOF 5
ENDMDL
MODEL 4
REMARK VINA RESULT:      -4.3      1.327      3.880
REMARK  5 active torsions:
REMARK  status: ('A' for Active; 'I' for Inactive)
REMARK    1  A    between atoms: C2_2  and  O2_8 
REMARK    2  A    between atoms: C3_3  and  O3_9 
REMARK    3  A    between atoms: C4_4  and  O4_10 
REMARK    4  A    between atoms: C5_5  and  C6_6 
REMARK    5  A    between atoms: C6_6  and  O6_12 
ROOT
ATOM      1  C1  MOL d          -9.320 -29.677 -26.959  0.00  0.00     0.291 C 
ATOM      2  C2  MOL d         -10.112 -30.425 -25.876  0.00  0.00     0.146 C 
ATOM      3  C3  MOL d         -11.372 -31.039 -26.486  0.00  0.00     0.096 C 
ATOM      4  C4  MOL d         -12.166 -29.979 -27.245  0.00  0.00     0.090 C 
ATOM      5  C5  MOL d         -11.350 -29.566 -28.485  0.00  0.00     0.095 C 
ATOM      6  O1  MOL d          -8.158 -29.414 -26.778  0.00  0.00    -0.262 OA
ATOM      7  O5  MOL d          -9.929 -29.298 -28.144  0.00  0.00    -0.309 OA
ATOM      8  H1  MOL d         -10.393 -29.720 -25.079  0.00  0.00     0.103 H 
ATOM      9  H2  MOL d         -11.085 -31.840 -27.183  0.00  0.00     0.091 H 
ATOM     10  H3  MOL d         -13.136 -30.393 -27.557  0.00  0.00     0.091 H 
ATOM     11  H4  MOL d         -11.393 -30.383 -29.220  0.00  0.00     0.091 H 
ENDROOT
BRANCH   5  12
ATOM     12  C6  MOL d         -11.932 -28.297 -29.107  0.00  0.00     0.044 C 
ATOM     13  H5  MOL d         -12.150 -27.570 -28.311  0.00  0.00     0.078 H 
ATOM     14  H6  MOL d         -12.861 -28.548 -29.640  0.00  0.00     0.078 H 
BRANCH  12  15
ATOM     15  O6  MOL d         -11.001 -27.725 -30.024  0.00  0.00    -0.398 OA
ATOM     16  H10 MOL d         -11.400 -27.671 -30.885  0.00  0.00     0.209 HD
ENDBRANCH  12  15
ENDBRANCH   5  12
BRANCH   4  17
ATOM     17  O4  MOL d         -12.382 -28.836 -26.405  0.00  0.00    -0.390 OA
ATOM     18  H9  MOL d         -13.291 -28.813 -26.132  0.00  0.00     0.210 HD
ENDBRANCH   4  17
BRANCH   3  19
ATOM     19  O3  MOL d         -12.162 -31.582 -25.448  0.00  0.00    -0.390 OA
ATOM     20  H8  MOL d         -12.991 -31.121 -25.408  0.00  0.00     0.210 HD
ENDBRANCH   3  19
BRANCH   2  21
ATOM     21  O2  MOL d          -9.314 -31.485 -25.322  0.00  0.00    -0.383 OA
ATOM     22  H7  MOL d          -9.759 -32.314 -25.451  0.00  0.00     0.210 HD
ENDBRANCH   2  21
TORSDOF 5
ENDMDL
MODEL 5
REMARK VINA RESULT:      -3.8      1.297      3.448
REMARK  5 active torsions:
REMARK  status: ('A' for Active; 'I' for Inactive)
REMARK    1  A    between atoms: C2_2  and  O2_8 
REMARK    2  A    between atoms: C3_3  and  O3_9 
REMARK    3  A    between atoms: C4_4  and  O4_10 
REMARK    4  A    between atoms: C5_5  and  C6_6 
REMARK    5  A    between atoms: C6_6  and  O6_12 
ROOT
ATOM      1  C1  MOL d         -10.585 -29.661 -29.049  0.00  0.00     0.291 C 
ATOM      2  C2  MOL d          -9.447 -30.167 -28.148  0.00  0.00     0.146 C 
ATOM      3  C3  MOL d          -9.947 -30.306 -26.711  0.00  0.00     0.096 C 
ATOM      4  C4  MOL d         -10.604 -29.008 -26.248  0.00  0.00     0.090 C 
ATOM      5  C5  MOL d         -11.907 -28.819 -27.047  0.00  0.00     0.095 C 
ATOM      6  O1  MOL d         -10.511 -29.799 -30.243  0.00  0.00    -0.262 OA
ATOM      7  O5  MOL d         -11.699 -29.045 -28.501  0.00  0.00    -0.309 OA
ATOM      8  H1  MOL d          -8.612 -29.451 -28.182  0.00  0.00     0.103 H 
ATOM      9  H2  MOL d         -10.686 -31.120 -26.660  0.00  0.00     0.091 H 
ATOM     10  H3  MOL d         -10.831 -29.069 -25.173  0.00  0.00     0.091 H 
ATOM     11  H4  MOL d         -12.652 -29.539 -26.677  0.00  0.00     0.091 H 
ENDROOT
BRANCH   5  12
ATOM     12  C6  MOL d         -12.443 -27.400 -26.863  0.00  0.00     0.044 C 
ATOM     13  H5  MOL d         -13.479 -27.353 -27.232  0.00  0.00     0.078 H 
ATOM     14  H6  MOL d         -11.818 -26.699 -27.435  0.00  0.00     0.078 H 
BRANCH  12  15
ATOM     15  O6  MOL d         -12.418 -27.037 -25.485  0.00  0.00    -0.398 OA
ATOM     16  H10 MOL d         -12.312 -26.096 -25.407  0.00  0.00     0.209 HD
ENDBRANCH  12  15
ENDBRANCH   5  12
BRANCH   4  17
ATOM     17  O4  MOL d          -9.723 -27.902 -26.489  0.00  0.00    -0.390 OA
ATOM     18  H9  MOL d          -9.489 -27.499 -25.662  0.00  0.00     0.210 HD
ENDBRANCH   4  17
BRANCH   3  19
ATOM     19  O3  MOL d          -8.850 -30.617 -25.875  0.00  0.00    -0.390 OA
ATOM     20  H8  MOL d          -8.164 -29.973 -26.005  0.00  0.00     0.210 HD
ENDBRANCH   3  19
BRANCH   2  21
ATOM     21  O2  MOL d          -8.996 -31.455 -28.598  0.00  0.00    -0.383 OA
ATOM     22  H7  MOL d          -9.700 -31.890 -29.065  0.00  0.00     0.210 HD
ENDBRANCH   2  21
TORSDOF 5
ENDMDL
