REMARK  2 active torsions:
REMARK  status: ('A' for Active; 'I' for Inactive)
REMARK    1  A    between atoms: C6_1  and  N4_2 
REMARK    2  A    between atoms: C8_7  and  N2_8 
ROOT
ATOM      1  C6  DQU d          18.250  16.945  19.276  0.00  0.00     0.026 C 
ATOM      2  C1  DQU d          16.974  16.506  18.908  0.00  0.00    -0.056 C 
ATOM      3  C2  DQU d          16.029  16.214  19.868  0.00  0.00    -0.051 C 
ATOM      4  C3  DQU d          16.314  16.491  21.224  0.00  0.00     0.091 A 
ATOM      5  N3  DQU d          15.350  16.320  22.195  0.00  0.00    -0.064 NA
ATOM      6  C8  DQU d          15.588  16.535  23.461  0.00  0.00     0.701 A 
ATOM      7  N1  DQU d          16.821  17.052  23.922  0.00  0.00    -0.154 N 
ATOM      8  C7  DQU d          17.828  17.326  22.973  0.00  0.00     0.272 A 
ATOM      9  O1  DQU d          18.964  17.672  23.333  0.00  0.00    -0.267 OA
ATOM     10  C4  DQU d          17.564  17.044  21.569  0.00  0.00     0.064 A 
ATOM     11  C5  DQU d          18.500  17.314  20.577  0.00  0.00    -0.040 C 
ATOM     12  H3  DQU d          16.726  16.394  17.859  0.00  0.00     0.087 H 
ATOM     13  H4  DQU d          15.078  15.777  19.586  0.00  0.00     0.087 H 
ATOM     14  H7  DQU d          16.975  17.219  24.896  0.00  0.00     0.187 HD
ATOM     15  H8  DQU d          19.427  17.816  20.829  0.00  0.00     0.088 H 
ENDROOT
BRANCH   1  16
ATOM     16  N4  DQU d          19.220  17.322  18.201  0.00  0.00    -0.399 N 
ATOM     17  H1  DQU d          19.039  17.049  17.225  0.00  0.00     0.156 HD
ATOM     18  H2  DQU d          20.069  17.855  18.437  0.00  0.00     0.156 HD
ENDBRANCH   1  16
BRANCH   6  19
ATOM     19  N2  DQU d          14.629  16.333  24.449  0.00  0.00    -0.233 N 
ATOM     20  H5  DQU d          13.703  15.959  24.199  0.00  0.00     0.174 HD
ATOM     21  H6  DQU d          14.846  16.558  25.431  0.00  0.00     0.174 HD
ENDBRANCH   6  19
TORSDOF 2
