MODEL 1
REMARK VINA RESULT:      -5.4      0.000      0.000
REMARK  2 active torsions:
REMARK  status: ('A' for Active; 'I' for Inactive)
REMARK    1  A    between atoms: C6_1  and  N4_2 
REMARK    2  A    between atoms: C8_7  and  N2_8 
ROOT
ATOM      1  C6  DQU d          18.770  17.104  18.600  0.00  0.00     0.026 C 
ATOM      2  C1  DQU d          19.619  17.288  19.696  0.00  0.00    -0.056 C 
ATOM      3  C2  DQU d          19.118  17.275  20.980  0.00  0.00    -0.051 C 
ATOM      4  C3  DQU d          17.762  16.939  21.189  0.00  0.00     0.091 A 
ATOM      5  N3  DQU d          17.259  16.803  22.466  0.00  0.00    -0.064 NA
ATOM      6  C8  DQU d          16.003  16.525  22.696  0.00  0.00     0.701 A 
ATOM      7  N1  DQU d          15.087  16.247  21.655  0.00  0.00    -0.154 N 
ATOM      8  C7  DQU d          15.553  16.290  20.324  0.00  0.00     0.272 A 
ATOM      9  O1  DQU d          14.768  16.166  19.371  0.00  0.00    -0.267 OA
ATOM     10  C4  DQU d          16.945  16.640  20.080  0.00  0.00     0.064 A 
ATOM     11  C5  DQU d          17.478  16.676  18.796  0.00  0.00    -0.040 C 
ATOM     12  H3  DQU d          20.679  17.443  19.535  0.00  0.00     0.087 H 
ATOM     13  H4  DQU d          19.758  17.520  21.821  0.00  0.00     0.087 H 
ATOM     14  H7  DQU d          14.133  16.026  21.858  0.00  0.00     0.187 HD
ATOM     15  H8  DQU d          16.876  16.366  17.950  0.00  0.00     0.088 H 
ENDROOT
BRANCH   1  16
ATOM     16  N4  DQU d          19.367  17.051  17.228  0.00  0.00    -0.399 N 
ATOM     17  H1  DQU d          19.787  16.177  16.883  0.00  0.00     0.156 HD
ATOM     18  H2  DQU d          19.356  17.888  16.629  0.00  0.00     0.156 HD
ENDBRANCH   1  16
BRANCH   6  19
ATOM     19  N2  DQU d          15.483  16.419  23.982  0.00  0.00    -0.233 N 
ATOM     20  H5  DQU d          15.091  15.524  24.307  0.00  0.00     0.174 HD
ATOM     21  H6  DQU d          15.489  17.237  24.609  0.00  0.00     0.174 HD
ENDBRANCH   6  19
TORSDOF 2
ENDMDL
MODEL 2
REMARK VINA RESULT:      -3.9      1.888      2.553
REMARK  2 active torsions:
REMARK  status: ('A' for Active; 'I' for Inactive)
REMARK    1  A    between atoms: C6_1  and  N4_2 
REMARK    2  A    between atoms: C8_7  and  N2_8 
ROOT
ATOM      1  C6  DQU d          16.107  16.332  18.648  0.00  0.00     0.026 C 
ATOM      2  C1  DQU d          17.480  16.498  18.436  0.00  0.00    -0.056 C 
ATOM      3  C2  DQU d          18.316  16.831  19.480  0.00  0.00    -0.051 C 
ATOM      4  C3  DQU d          17.798  16.870  20.794  0.00  0.00     0.091 A 
ATOM      5  N3  DQU d          18.629  17.085  21.872  0.00  0.00    -0.064 NA
ATOM      6  C8  DQU d          18.180  17.160  23.097  0.00  0.00     0.701 A 
ATOM      7  N1  DQU d          16.823  16.929  23.420  0.00  0.00    -0.154 N 
ATOM      8  C7  DQU d          15.928  16.625  22.373  0.00  0.00     0.272 A 
ATOM      9  O1  DQU d          14.710  16.526  22.586  0.00  0.00    -0.267 OA
ATOM     10  C4  DQU d          16.434  16.585  21.008  0.00  0.00     0.064 A 
ATOM     11  C5  DQU d          15.615  16.266  19.931  0.00  0.00    -0.040 C 
ATOM     12  H3  DQU d          17.890  16.365  17.441  0.00  0.00     0.087 H 
ATOM     13  H4  DQU d          19.359  17.061  19.295  0.00  0.00     0.087 H 
ATOM     14  H7  DQU d          16.506  16.981  24.367  0.00  0.00     0.187 HD
ATOM     15  H8  DQU d          14.588  15.964  20.101  0.00  0.00     0.088 H 
ENDROOT
BRANCH   1  16
ATOM     16  N4  DQU d          15.248  15.898  17.503  0.00  0.00    -0.399 N 
ATOM     17  H1  DQU d          14.775  14.984  17.532  0.00  0.00     0.156 HD
ATOM     18  H2  DQU d          15.131  16.513  16.685  0.00  0.00     0.156 HD
ENDBRANCH   1  16
BRANCH   6  19
ATOM     19  N2  DQU d          19.010  17.409  24.186  0.00  0.00    -0.233 N 
ATOM     20  H5  DQU d          19.782  18.085  24.101  0.00  0.00     0.174 HD
ATOM     21  H6  DQU d          18.853  16.915  25.077  0.00  0.00     0.174 HD
ENDBRANCH   6  19
TORSDOF 2
ENDMDL
MODEL 3
REMARK VINA RESULT:      -3.4      1.924      4.922
REMARK  2 active torsions:
REMARK  status: ('A' for Active; 'I' for Inactive)
REMARK    1  A    between atoms: C6_1  and  N4_2 
REMARK    2  A    between atoms: C8_7  and  N2_8 
ROOT
ATOM      1  C6  DQU d          15.759  16.511  22.590  0.00  0.00     0.026 C 
ATOM      2  C1  DQU d          14.981  16.069  21.515  0.00  0.00    -0.056 C 
ATOM      3  C2  DQU d          15.466  16.129  20.226  0.00  0.00    -0.051 C 
ATOM      4  C3  DQU d          16.809  16.515  20.011  0.00  0.00     0.091 A 
ATOM      5  N3  DQU d          17.359  16.475  18.748  0.00  0.00    -0.064 NA
ATOM      6  C8  DQU d          18.585  16.855  18.508  0.00  0.00     0.701 A 
ATOM      7  N1  DQU d          19.472  17.245  19.538  0.00  0.00    -0.154 N 
ATOM      8  C7  DQU d          18.999  17.234  20.867  0.00  0.00     0.272 A 
ATOM      9  O1  DQU d          19.698  17.674  21.794  0.00  0.00    -0.267 OA
ATOM     10  C4  DQU d          17.618  16.847  21.117  0.00  0.00     0.064 A 
ATOM     11  C5  DQU d          17.093  16.788  22.403  0.00  0.00    -0.040 C 
ATOM     12  H3  DQU d          13.988  15.675  21.696  0.00  0.00     0.087 H 
ATOM     13  H4  DQU d          14.826  15.883  19.387  0.00  0.00     0.087 H 
ATOM     14  H7  DQU d          20.411  17.521  19.330  0.00  0.00     0.187 HD
ATOM     15  H8  DQU d          17.735  16.960  23.259  0.00  0.00     0.088 H 
ENDROOT
BRANCH   1  16
ATOM     16  N4  DQU d          15.223  16.358  23.978  0.00  0.00    -0.399 N 
ATOM     17  H1  DQU d          14.210  16.253  24.131  0.00  0.00     0.156 HD
ATOM     18  H2  DQU d          15.867  16.356  24.782  0.00  0.00     0.156 HD
ENDBRANCH   1  16
BRANCH   6  19
ATOM     19  N2  DQU d          19.136  16.847  17.230  0.00  0.00    -0.233 N 
ATOM     20  H5  DQU d          19.920  16.218  17.011  0.00  0.00     0.174 HD
ATOM     21  H6  DQU d          18.758  17.472  16.502  0.00  0.00     0.174 HD
ENDBRANCH   6  19
TORSDOF 2
ENDMDL
