MODEL 1
REMARK VINA RESULT:      -6.8      0.000      0.000
REMARK  4 active torsions:
REMARK  status: ('A' for Active; 'I' for Inactive)
REMARK    1  A    between atoms: C1_2  and  C6_3 
REMARK    2  A    between atoms: C6_3  and  C7_4 
REMARK    3  A    between atoms: C7_4  and  C8_5 
REMARK    4  A    between atoms: C8_5  and  C9_6 
ROOT
ATOM      1  N1  BDI d          15.597  17.012  20.187  0.00  0.00    -0.338 N 
ATOM      2  C1  BDI d          16.790  17.355  19.733  0.00  0.00     0.105 A 
ATOM      3  N2  BDI d          17.587  17.571  20.642  0.00  0.00    -0.227 NA
ATOM      4  C2  BDI d          17.003  17.394  21.931  0.00  0.00     0.160 A 
ATOM      5  C4  BDI d          17.515  17.527  23.329  0.00  0.00     0.291 A 
ATOM      6  N5  BDI d          16.589  17.256  24.343  0.00  0.00    -0.262 N 
ATOM      7  N4  BDI d          15.166  16.856  24.072  0.00  0.00    -0.262 N 
ATOM      8  C5  BDI d          14.636  16.717  22.776  0.00  0.00     0.289 A 
ATOM      9  O1  BDI d          13.439  16.380  22.532  0.00  0.00    -0.264 OA
ATOM     10  C3  BDI d          15.654  17.014  21.637  0.00  0.00     0.138 A 
ATOM     11  O3  BDI d          18.682  17.854  23.534  0.00  0.00    -0.264 OA
ATOM     12  H1  BDI d          14.772  16.784  19.613  0.00  0.00     0.167 HD
ATOM     13  H11 BDI d          16.889  17.333  25.294  0.00  0.00     0.190 HD
ATOM     14  H12 BDI d          14.565  16.681  24.852  0.00  0.00     0.190 HD
ENDROOT
BRANCH   2  15
ATOM     15  C6  BDI d          17.099  17.462  18.237  0.00  0.00    -0.010 C 
ATOM     16  H2  BDI d          17.451  16.476  17.902  0.00  0.00     0.044 H 
ATOM     17  H3  BDI d          17.906  18.199  18.118  0.00  0.00     0.044 H 
BRANCH  15  18
ATOM     18  C7  BDI d          15.929  17.889  17.294  0.00  0.00    -0.059 C 
ATOM     19  H4  BDI d          15.257  18.577  17.830  0.00  0.00     0.033 H 
ATOM     20  H5  BDI d          15.365  16.999  16.979  0.00  0.00     0.033 H 
BRANCH  18  21
ATOM     21  C8  BDI d          16.518  18.607  16.036  0.00  0.00    -0.068 C 
ATOM     22  H6  BDI d          16.935  17.845  15.361  0.00  0.00     0.032 H 
ATOM     23  H7  BDI d          17.320  19.286  16.363  0.00  0.00     0.032 H 
BRANCH  21  24
ATOM     24  C9  BDI d          15.461  19.430  15.259  0.00  0.00    -0.077 C 
ATOM     25  H8  BDI d          14.552  19.528  15.870  0.00  0.00     0.027 H 
ATOM     26  H9  BDI d          15.215  18.915  14.318  0.00  0.00     0.027 H 
ATOM     27  H10 BDI d          15.864  20.429  15.037  0.00  0.00     0.027 H 
ENDBRANCH  21  24
ENDBRANCH  18  21
ENDBRANCH  15  18
ENDBRANCH   2  15
TORSDOF 4
ENDMDL
MODEL 2
REMARK VINA RESULT:      -6.5      0.995      1.108
REMARK  4 active torsions:
REMARK  status: ('A' for Active; 'I' for Inactive)
REMARK    1  A    between atoms: C1_2  and  C6_3 
REMARK    2  A    between atoms: C6_3  and  C7_4 
REMARK    3  A    between atoms: C7_4  and  C8_5 
REMARK    4  A    between atoms: C8_5  and  C9_6 
ROOT
ATOM      1  N1  BDI d          14.435  16.549  20.622  0.00  0.00    -0.338 N 
ATOM      2  C1  BDI d          15.389  16.721  19.723  0.00  0.00     0.105 A 
ATOM      3  N2  BDI d          16.463  17.019  20.239  0.00  0.00    -0.227 NA
ATOM      4  C2  BDI d          16.381  17.099  21.661  0.00  0.00     0.160 A 
ATOM      5  C4  BDI d          17.364  17.417  22.740  0.00  0.00     0.291 A 
ATOM      6  N5  BDI d          16.862  17.386  24.047  0.00  0.00    -0.262 N 
ATOM      7  N4  BDI d          15.432  17.058  24.371  0.00  0.00    -0.262 N 
ATOM      8  C5  BDI d          14.468  16.751  23.392  0.00  0.00     0.289 A 
ATOM      9  O1  BDI d          13.260  16.472  23.650  0.00  0.00    -0.264 OA
ATOM     10  C3  BDI d          15.011  16.781  21.934  0.00  0.00     0.138 A 
ATOM     11  O3  BDI d          18.531  17.682  22.459  0.00  0.00    -0.264 OA
ATOM     12  H1  BDI d          13.456  16.295  20.427  0.00  0.00     0.167 HD
ATOM     13  H11 BDI d          17.485  17.593  24.801  0.00  0.00     0.190 HD
ATOM     14  H12 BDI d          15.151  17.058  25.331  0.00  0.00     0.190 HD
ENDROOT
BRANCH   2  15
ATOM     15  C6  BDI d          15.140  16.560  18.222  0.00  0.00    -0.010 C 
ATOM     16  H2  BDI d          14.170  16.056  18.100  0.00  0.00     0.044 H 
ATOM     17  H3  BDI d          15.939  15.919  17.821  0.00  0.00     0.044 H 
BRANCH  15  18
ATOM     18  C7  BDI d          15.106  17.862  17.359  0.00  0.00    -0.059 C 
ATOM     19  H4  BDI d          14.702  18.691  17.960  0.00  0.00     0.033 H 
ATOM     20  H5  BDI d          14.467  17.704  16.478  0.00  0.00     0.033 H 
BRANCH  18  21
ATOM     21  C8  BDI d          16.558  18.211  16.897  0.00  0.00    -0.068 C 
ATOM     22  H6  BDI d          17.122  17.274  16.773  0.00  0.00     0.032 H 
ATOM     23  H7  BDI d          17.036  18.827  17.674  0.00  0.00     0.032 H 
BRANCH  21  24
ATOM     24  C9  BDI d          16.596  18.989  15.558  0.00  0.00    -0.077 C 
ATOM     25  H8  BDI d          15.776  18.644  14.911  0.00  0.00     0.027 H 
ATOM     26  H9  BDI d          17.559  18.811  15.057  0.00  0.00     0.027 H 
ATOM     27  H10 BDI d          16.478  20.065  15.756  0.00  0.00     0.027 H 
ENDBRANCH  21  24
ENDBRANCH  18  21
ENDBRANCH  15  18
ENDBRANCH   2  15
TORSDOF 4
ENDMDL
MODEL 3
REMARK VINA RESULT:      -6.4      1.334      2.792
REMARK  4 active torsions:
REMARK  status: ('A' for Active; 'I' for Inactive)
REMARK    1  A    between atoms: C1_2  and  C6_3 
REMARK    2  A    between atoms: C6_3  and  C7_4 
REMARK    3  A    between atoms: C7_4  and  C8_5 
REMARK    4  A    between atoms: C8_5  and  C9_6 
ROOT
ATOM      1  N1  BDI d          16.166  16.989  19.929  0.00  0.00    -0.338 N 
ATOM      2  C1  BDI d          14.869  16.763  19.803  0.00  0.00     0.105 A 
ATOM      3  N2  BDI d          14.302  16.700  20.891  0.00  0.00    -0.227 NA
ATOM      4  C2  BDI d          15.198  16.886  21.985  0.00  0.00     0.160 A 
ATOM      5  C4  BDI d          15.034  16.901  23.469  0.00  0.00     0.291 A 
ATOM      6  N5  BDI d          16.203  17.122  24.207  0.00  0.00    -0.262 N 
ATOM      7  N4  BDI d          17.549  17.332  23.573  0.00  0.00    -0.262 N 
ATOM      8  C5  BDI d          17.757  17.328  22.181  0.00  0.00     0.289 A 
ATOM      9  O1  BDI d          18.884  17.504  21.632  0.00  0.00    -0.264 OA
ATOM     10  C3  BDI d          16.466  17.084  21.346  0.00  0.00     0.138 A 
ATOM     11  O3  BDI d          13.926  16.729  23.973  0.00  0.00    -0.264 OA
ATOM     12  H1  BDI d          16.843  17.082  19.159  0.00  0.00     0.167 HD
ATOM     13  H11 BDI d          16.140  17.140  25.205  0.00  0.00     0.190 HD
ATOM     14  H12 BDI d          18.337  17.483  24.170  0.00  0.00     0.190 HD
ENDROOT
BRANCH   2  15
ATOM     15  C6  BDI d          14.194  16.602  18.439  0.00  0.00    -0.010 C 
ATOM     16  H2  BDI d          13.499  17.445  18.313  0.00  0.00     0.044 H 
ATOM     17  H3  BDI d          13.627  15.660  18.460  0.00  0.00     0.044 H 
BRANCH  15  18
ATOM     18  C7  BDI d          15.122  16.565  17.182  0.00  0.00    -0.059 C 
ATOM     19  H4  BDI d          14.724  15.844  16.453  0.00  0.00     0.033 H 
ATOM     20  H5  BDI d          16.136  16.262  17.482  0.00  0.00     0.033 H 
BRANCH  18  21
ATOM     21  C8  BDI d          15.171  17.989  16.537  0.00  0.00    -0.068 C 
ATOM     22  H6  BDI d          14.615  18.686  17.182  0.00  0.00     0.032 H 
ATOM     23  H7  BDI d          14.692  17.943  15.548  0.00  0.00     0.032 H 
BRANCH  21  24
ATOM     24  C9  BDI d          16.614  18.523  16.362  0.00  0.00    -0.077 C 
ATOM     25  H8  BDI d          16.625  19.301  15.584  0.00  0.00     0.027 H 
ATOM     26  H9  BDI d          17.277  17.698  16.063  0.00  0.00     0.027 H 
ATOM     27  H10 BDI d          16.965  18.951  17.313  0.00  0.00     0.027 H 
ENDBRANCH  21  24
ENDBRANCH  18  21
ENDBRANCH  15  18
ENDBRANCH   2  15
TORSDOF 4
ENDMDL
MODEL 4
REMARK VINA RESULT:      -5.5      2.390      3.304
REMARK  4 active torsions:
REMARK  status: ('A' for Active; 'I' for Inactive)
REMARK    1  A    between atoms: C1_2  and  C6_3 
REMARK    2  A    between atoms: C6_3  and  C7_4 
REMARK    3  A    between atoms: C7_4  and  C8_5 
REMARK    4  A    between atoms: C8_5  and  C9_6 
ROOT
ATOM      1  N1  BDI d          14.680  17.674  17.464  0.00  0.00    -0.338 N 
ATOM      2  C1  BDI d          15.715  18.034  16.726  0.00  0.00     0.105 A 
ATOM      3  N2  BDI d          16.768  18.004  17.358  0.00  0.00    -0.227 NA
ATOM      4  C2  BDI d          16.580  17.592  18.711  0.00  0.00     0.160 A 
ATOM      5  C4  BDI d          17.498  17.394  19.872  0.00  0.00     0.291 A 
ATOM      6  N5  BDI d          16.891  16.970  21.061  0.00  0.00    -0.262 N 
ATOM      7  N4  BDI d          15.415  16.721  21.187  0.00  0.00    -0.262 N 
ATOM      8  C5  BDI d          14.508  16.892  20.124  0.00  0.00     0.289 A 
ATOM      9  O1  BDI d          13.262  16.686  20.216  0.00  0.00    -0.264 OA
ATOM     10  C3  BDI d          15.168  17.364  18.796  0.00  0.00     0.138 A 
ATOM     11  O3  BDI d          18.704  17.600  19.753  0.00  0.00    -0.264 OA
ATOM     12  H1  BDI d          13.700  17.622  17.151  0.00  0.00     0.167 HD
ATOM     13  H11 BDI d          17.468  16.825  21.865  0.00  0.00     0.190 HD
ATOM     14  H12 BDI d          15.058  16.420  22.072  0.00  0.00     0.190 HD
ENDROOT
BRANCH   2  15
ATOM     15  C6  BDI d          15.574  18.437  15.256  0.00  0.00    -0.010 C 
ATOM     16  H2  BDI d          16.445  18.036  14.718  0.00  0.00     0.044 H 
ATOM     17  H3  BDI d          15.591  19.536  15.212  0.00  0.00     0.044 H 
BRANCH  15  18
ATOM     18  C7  BDI d          14.293  17.956  14.503  0.00  0.00    -0.059 C 
ATOM     19  H4  BDI d          14.135  18.578  13.610  0.00  0.00     0.033 H 
ATOM     20  H5  BDI d          13.420  18.042  15.168  0.00  0.00     0.033 H 
BRANCH  18  21
ATOM     21  C8  BDI d          14.478  16.463  14.075  0.00  0.00    -0.068 C 
ATOM     22  H6  BDI d          15.394  16.074  14.545  0.00  0.00     0.032 H 
ATOM     23  H7  BDI d          14.583  16.423  12.980  0.00  0.00     0.032 H 
BRANCH  21  24
ATOM     24  C9  BDI d          13.289  15.563  14.491  0.00  0.00    -0.077 C 
ATOM     25  H8  BDI d          13.446  15.200  15.517  0.00  0.00     0.027 H 
ATOM     26  H9  BDI d          13.221  14.705  13.805  0.00  0.00     0.027 H 
ATOM     27  H10 BDI d          12.356  16.143  14.445  0.00  0.00     0.027 H 
ENDBRANCH  21  24
ENDBRANCH  18  21
ENDBRANCH  15  18
ENDBRANCH   2  15
TORSDOF 4
ENDMDL
MODEL 5
REMARK VINA RESULT:      -5.4      2.947      5.610
REMARK  4 active torsions:
REMARK  status: ('A' for Active; 'I' for Inactive)
REMARK    1  A    between atoms: C1_2  and  C6_3 
REMARK    2  A    between atoms: C6_3  and  C7_4 
REMARK    3  A    between atoms: C7_4  and  C8_5 
REMARK    4  A    between atoms: C8_5  and  C9_6 
ROOT
ATOM      1  N1  BDI d          16.161  16.825  19.963  0.00  0.00    -0.338 N 
ATOM      2  C1  BDI d          17.266  17.529  19.789  0.00  0.00     0.105 A 
ATOM      3  N2  BDI d          17.337  18.008  18.660  0.00  0.00    -0.227 NA
ATOM      4  C2  BDI d          16.209  17.671  17.853  0.00  0.00     0.160 A 
ATOM      5  C4  BDI d          15.808  17.983  16.449  0.00  0.00     0.291 A 
ATOM      6  N5  BDI d          14.587  17.439  16.031  0.00  0.00    -0.262 N 
ATOM      7  N4  BDI d          13.717  16.594  16.917  0.00  0.00    -0.262 N 
ATOM      8  C5  BDI d          14.049  16.273  18.247  0.00  0.00     0.289 A 
ATOM      9  O1  BDI d          13.325  15.562  19.006  0.00  0.00    -0.264 OA
ATOM     10  C3  BDI d          15.404  16.869  18.726  0.00  0.00     0.138 A 
ATOM     11  O3  BDI d          16.531  18.676  15.736  0.00  0.00    -0.264 OA
ATOM     12  H1  BDI d          15.886  16.333  20.825  0.00  0.00     0.167 HD
ATOM     13  H11 BDI d          14.280  17.623  15.097  0.00  0.00     0.190 HD
ATOM     14  H12 BDI d          12.858  16.242  16.543  0.00  0.00     0.190 HD
ENDROOT
BRANCH   2  15
ATOM     15  C6  BDI d          18.314  17.699  20.892  0.00  0.00    -0.010 C 
ATOM     16  H2  BDI d          18.375  18.771  21.126  0.00  0.00     0.044 H 
ATOM     17  H3  BDI d          19.277  17.356  20.489  0.00  0.00     0.044 H 
BRANCH  15  18
ATOM     18  C7  BDI d          18.068  16.937  22.234  0.00  0.00    -0.059 C 
ATOM     19  H4  BDI d          19.033  16.646  22.674  0.00  0.00     0.033 H 
ATOM     20  H5  BDI d          17.466  16.036  22.041  0.00  0.00     0.033 H 
BRANCH  18  21
ATOM     21  C8  BDI d          17.302  17.875  23.225  0.00  0.00    -0.068 C 
ATOM     22  H6  BDI d          17.241  18.880  22.780  0.00  0.00     0.032 H 
ATOM     23  H7  BDI d          17.866  17.924  24.167  0.00  0.00     0.032 H 
BRANCH  21  24
ATOM     24  C9  BDI d          15.866  17.384  23.533  0.00  0.00    -0.077 C 
ATOM     25  H8  BDI d          15.287  18.205  23.982  0.00  0.00     0.027 H 
ATOM     26  H9  BDI d          15.910  16.540  24.237  0.00  0.00     0.027 H 
ATOM     27  H10 BDI d          15.381  17.059  22.601  0.00  0.00     0.027 H 
ENDBRANCH  21  24
ENDBRANCH  18  21
ENDBRANCH  15  18
ENDBRANCH   2  15
TORSDOF 4
ENDMDL
MODEL 6
REMARK VINA RESULT:      -5.4      3.928      6.651
REMARK  4 active torsions:
REMARK  status: ('A' for Active; 'I' for Inactive)
REMARK    1  A    between atoms: C1_2  and  C6_3 
REMARK    2  A    between atoms: C6_3  and  C7_4 
REMARK    3  A    between atoms: C7_4  and  C8_5 
REMARK    4  A    between atoms: C8_5  and  C9_6 
ROOT
ATOM      1  N1  BDI d          14.204  16.350  17.844  0.00  0.00    -0.338 N 
ATOM      2  C1  BDI d          14.918  17.019  18.733  0.00  0.00     0.105 A 
ATOM      3  N2  BDI d          15.697  17.808  18.203  0.00  0.00    -0.227 NA
ATOM      4  C2  BDI d          15.617  17.778  16.779  0.00  0.00     0.160 A 
ATOM      5  C4  BDI d          16.322  18.511  15.685  0.00  0.00     0.291 A 
ATOM      6  N5  BDI d          15.936  18.175  14.381  0.00  0.00    -0.262 N 
ATOM      7  N4  BDI d          14.883  17.148  14.074  0.00  0.00    -0.262 N 
ATOM      8  C5  BDI d          14.189  16.432  15.068  0.00  0.00     0.289 A 
ATOM      9  O1  BDI d          13.299  15.564  14.824  0.00  0.00    -0.264 OA
ATOM     10  C3  BDI d          14.607  16.794  16.522  0.00  0.00     0.138 A 
ATOM     11  O3  BDI d          17.181  19.349  15.952  0.00  0.00    -0.264 OA
ATOM     12  H1  BDI d          13.489  15.638  18.052  0.00  0.00     0.167 HD
ATOM     13  H11 BDI d          16.384  18.641  13.618  0.00  0.00     0.190 HD
ATOM     14  H12 BDI d          14.665  16.965  13.116  0.00  0.00     0.190 HD
ENDROOT
BRANCH   2  15
ATOM     15  C6  BDI d          14.761  16.805  20.240  0.00  0.00    -0.010 C 
ATOM     16  H2  BDI d          14.437  15.766  20.394  0.00  0.00     0.044 H 
ATOM     17  H3  BDI d          13.976  17.490  20.591  0.00  0.00     0.044 H 
BRANCH  15  18
ATOM     18  C7  BDI d          16.023  17.041  21.130  0.00  0.00    -0.059 C 
ATOM     19  H4  BDI d          16.486  18.004  20.865  0.00  0.00     0.033 H 
ATOM     20  H5  BDI d          16.747  16.230  20.966  0.00  0.00     0.033 H 
BRANCH  18  21
ATOM     21  C8  BDI d          15.595  17.063  22.634  0.00  0.00    -0.068 C 
ATOM     22  H6  BDI d          15.759  16.061  23.060  0.00  0.00     0.032 H 
ATOM     23  H7  BDI d          14.526  17.315  22.691  0.00  0.00     0.032 H 
BRANCH  21  24
ATOM     24  C9  BDI d          16.390  18.092  23.474  0.00  0.00    -0.077 C 
ATOM     25  H8  BDI d          15.705  18.614  24.159  0.00  0.00     0.027 H 
ATOM     26  H9  BDI d          16.865  18.824  22.804  0.00  0.00     0.027 H 
ATOM     27  H10 BDI d          17.165  17.571  24.057  0.00  0.00     0.027 H 
ENDBRANCH  21  24
ENDBRANCH  18  21
ENDBRANCH  15  18
ENDBRANCH   2  15
TORSDOF 4
ENDMDL
MODEL 7
REMARK VINA RESULT:      -4.7      1.585      3.059
REMARK  4 active torsions:
REMARK  status: ('A' for Active; 'I' for Inactive)
REMARK    1  A    between atoms: C1_2  and  C6_3 
REMARK    2  A    between atoms: C6_3  and  C7_4 
REMARK    3  A    between atoms: C7_4  and  C8_5 
REMARK    4  A    between atoms: C8_5  and  C9_6 
ROOT
ATOM      1  N1  BDI d          16.149  17.288  18.640  0.00  0.00    -0.338 N 
ATOM      2  C1  BDI d          14.849  17.090  18.507  0.00  0.00     0.105 A 
ATOM      3  N2  BDI d          14.283  16.983  19.592  0.00  0.00    -0.227 NA
ATOM      4  C2  BDI d          15.186  17.099  20.691  0.00  0.00     0.160 A 
ATOM      5  C4  BDI d          15.026  17.043  22.175  0.00  0.00     0.291 A 
ATOM      6  N5  BDI d          16.201  17.207  22.919  0.00  0.00    -0.262 N 
ATOM      7  N4  BDI d          17.549  17.426  22.291  0.00  0.00    -0.262 N 
ATOM      8  C5  BDI d          17.752  17.488  20.899  0.00  0.00     0.289 A 
ATOM      9  O1  BDI d          18.881  17.672  20.355  0.00  0.00    -0.264 OA
ATOM     10  C3  BDI d          16.455  17.307  20.058  0.00  0.00     0.138 A 
ATOM     11  O3  BDI d          13.917  16.864  22.674  0.00  0.00    -0.264 OA
ATOM     12  H1  BDI d          16.826  17.407  17.872  0.00  0.00     0.167 HD
ATOM     13  H11 BDI d          16.141  17.177  23.917  0.00  0.00     0.190 HD
ATOM     14  H12 BDI d          18.341  17.534  22.892  0.00  0.00     0.190 HD
ENDROOT
BRANCH   2  15
ATOM     15  C6  BDI d          14.167  17.008  17.139  0.00  0.00    -0.010 C 
ATOM     16  H2  BDI d          13.105  16.780  17.312  0.00  0.00     0.044 H 
ATOM     17  H3  BDI d          14.634  16.181  16.586  0.00  0.00     0.044 H 
BRANCH  15  18
ATOM     18  C7  BDI d          14.234  18.278  16.230  0.00  0.00    -0.059 C 
ATOM     19  H4  BDI d          14.223  19.181  16.859  0.00  0.00     0.033 H 
ATOM     20  H5  BDI d          13.366  18.293  15.554  0.00  0.00     0.033 H 
BRANCH  18  21
ATOM     21  C8  BDI d          15.552  18.240  15.390  0.00  0.00    -0.068 C 
ATOM     22  H6  BDI d          15.384  18.786  14.450  0.00  0.00     0.032 H 
ATOM     23  H7  BDI d          15.795  17.191  15.165  0.00  0.00     0.032 H 
BRANCH  21  24
ATOM     24  C9  BDI d          16.756  18.879  16.124  0.00  0.00    -0.077 C 
ATOM     25  H8  BDI d          17.174  18.156  16.840  0.00  0.00     0.027 H 
ATOM     26  H9  BDI d          16.421  19.778  16.664  0.00  0.00     0.027 H 
ATOM     27  H10 BDI d          17.527  19.157  15.391  0.00  0.00     0.027 H 
ENDBRANCH  21  24
ENDBRANCH  18  21
ENDBRANCH  15  18
ENDBRANCH   2  15
TORSDOF 4
ENDMDL
MODEL 8
REMARK VINA RESULT:      -4.5      2.692      5.492
REMARK  4 active torsions:
REMARK  status: ('A' for Active; 'I' for Inactive)
REMARK    1  A    between atoms: C1_2  and  C6_3 
REMARK    2  A    between atoms: C6_3  and  C7_4 
REMARK    3  A    between atoms: C7_4  and  C8_5 
REMARK    4  A    between atoms: C8_5  and  C9_6 
ROOT
ATOM      1  N1  BDI d          13.812  16.571  19.985  0.00  0.00    -0.338 N 
ATOM      2  C1  BDI d          14.556  16.656  21.074  0.00  0.00     0.105 A 
ATOM      3  N2  BDI d          15.694  17.048  20.828  0.00  0.00    -0.227 NA
ATOM      4  C2  BDI d          15.895  17.299  19.438  0.00  0.00     0.160 A 
ATOM      5  C4  BDI d          17.057  17.772  18.626  0.00  0.00     0.291 A 
ATOM      6  N5  BDI d          16.829  17.885  17.249  0.00  0.00    -0.262 N 
ATOM      7  N4  BDI d          15.512  17.560  16.603  0.00  0.00    -0.262 N 
ATOM      8  C5  BDI d          14.388  17.112  17.323  0.00  0.00     0.289 A 
ATOM      9  O1  BDI d          13.272  16.834  16.792  0.00  0.00    -0.264 OA
ATOM     10  C3  BDI d          14.625  16.980  18.855  0.00  0.00     0.138 A 
ATOM     11  O3  BDI d          18.127  18.035  19.169  0.00  0.00    -0.264 OA
ATOM     12  H1  BDI d          12.828  16.268  19.946  0.00  0.00     0.167 HD
ATOM     13  H11 BDI d          17.580  18.198  16.667  0.00  0.00     0.190 HD
ATOM     14  H12 BDI d          15.430  17.666  15.612  0.00  0.00     0.190 HD
ENDROOT
BRANCH   2  15
ATOM     15  C6  BDI d          14.023  16.296  22.463  0.00  0.00    -0.010 C 
ATOM     16  H2  BDI d          13.873  15.207  22.487  0.00  0.00     0.044 H 
ATOM     17  H3  BDI d          13.055  16.803  22.587  0.00  0.00     0.044 H 
BRANCH  15  18
ATOM     18  C7  BDI d          14.913  16.676  23.690  0.00  0.00    -0.059 C 
ATOM     19  H4  BDI d          15.236  15.761  24.208  0.00  0.00     0.033 H 
ATOM     20  H5  BDI d          14.335  17.305  24.383  0.00  0.00     0.033 H 
BRANCH  18  21
ATOM     21  C8  BDI d          16.168  17.465  23.191  0.00  0.00    -0.068 C 
ATOM     22  H6  BDI d          15.991  18.540  23.345  0.00  0.00     0.032 H 
ATOM     23  H7  BDI d          16.303  17.266  22.118  0.00  0.00     0.032 H 
BRANCH  21  24
ATOM     24  C9  BDI d          17.467  17.067  23.934  0.00  0.00    -0.077 C 
ATOM     25  H8  BDI d          18.137  17.938  23.994  0.00  0.00     0.027 H 
ATOM     26  H9  BDI d          17.969  16.256  23.387  0.00  0.00     0.027 H 
ATOM     27  H10 BDI d          17.219  16.726  24.950  0.00  0.00     0.027 H 
ENDBRANCH  21  24
ENDBRANCH  18  21
ENDBRANCH  15  18
ENDBRANCH   2  15
TORSDOF 4
ENDMDL
MODEL 9
REMARK VINA RESULT:      -3.8      1.135      1.250
REMARK  4 active torsions:
REMARK  status: ('A' for Active; 'I' for Inactive)
REMARK    1  A    between atoms: C1_2  and  C6_3 
REMARK    2  A    between atoms: C6_3  and  C7_4 
REMARK    3  A    between atoms: C7_4  and  C8_5 
REMARK    4  A    between atoms: C8_5  and  C9_6 
ROOT
ATOM      1  N1  BDI d          16.681  17.215  20.111  0.00  0.00    -0.338 N 
ATOM      2  C1  BDI d          17.948  17.556  19.951  0.00  0.00     0.105 A 
ATOM      3  N2  BDI d          18.507  17.780  21.022  0.00  0.00    -0.227 NA
ATOM      4  C2  BDI d          17.633  17.611  22.137  0.00  0.00     0.160 A 
ATOM      5  C4  BDI d          17.798  17.755  23.615  0.00  0.00     0.291 A 
ATOM      6  N5  BDI d          16.656  17.490  24.382  0.00  0.00    -0.262 N 
ATOM      7  N4  BDI d          15.339  17.086  23.783  0.00  0.00    -0.262 N 
ATOM      8  C5  BDI d          15.132  16.936  22.399  0.00  0.00     0.289 A 
ATOM      9  O1  BDI d          14.028  16.596  21.880  0.00  0.00    -0.264 OA
ATOM     10  C3  BDI d          16.392  17.227  21.533  0.00  0.00     0.138 A 
ATOM     11  O3  BDI d          18.882  18.085  24.089  0.00  0.00    -0.264 OA
ATOM     12  H1  BDI d          16.017  16.981  19.359  0.00  0.00     0.167 HD
ATOM     13  H11 BDI d          16.722  17.575  25.376  0.00  0.00     0.190 HD
ATOM     14  H12 BDI d          14.570  16.915  24.400  0.00  0.00     0.190 HD
ENDROOT
BRANCH   2  15
ATOM     15  C6  BDI d          18.604  17.653  18.571  0.00  0.00    -0.010 C 
ATOM     16  H2  BDI d          18.962  16.648  18.305  0.00  0.00     0.044 H 
ATOM     17  H3  BDI d          19.461  18.336  18.660  0.00  0.00     0.044 H 
BRANCH  15  18
ATOM     18  C7  BDI d          17.716  18.164  17.392  0.00  0.00    -0.059 C 
ATOM     19  H4  BDI d          17.942  17.586  16.483  0.00  0.00     0.033 H 
ATOM     20  H5  BDI d          17.922  19.229  17.210  0.00  0.00     0.033 H 
BRANCH  18  21
ATOM     21  C8  BDI d          16.208  17.980  17.766  0.00  0.00    -0.068 C 
ATOM     22  H6  BDI d          15.741  18.974  17.839  0.00  0.00     0.032 H 
ATOM     23  H7  BDI d          16.148  17.475  18.742  0.00  0.00     0.032 H 
BRANCH  21  24
ATOM     24  C9  BDI d          15.425  17.141  16.727  0.00  0.00    -0.077 C 
ATOM     25  H8  BDI d          16.033  16.277  16.421  0.00  0.00     0.027 H 
ATOM     26  H9  BDI d          15.202  17.763  15.847  0.00  0.00     0.027 H 
ATOM     27  H10 BDI d          14.485  16.787  17.175  0.00  0.00     0.027 H 
ENDBRANCH  21  24
ENDBRANCH  18  21
ENDBRANCH  15  18
ENDBRANCH   2  15
TORSDOF 4
ENDMDL
