REMARK  4 active torsions:
REMARK  status: ('A' for Active; 'I' for Inactive)
REMARK    1  A    between atoms: C2_2  and  N14_12 
REMARK    2  A    between atoms: C15_13  and  C5_5 
REMARK    3  A    between atoms: C16_15  and  C15_13 
REMARK    4  A    between atoms: C7_14  and  C16_15 
ROOT
ATOM      1  C15 V15 d          -1.003   2.510  11.577  0.00  0.00    -0.020 C 
ATOM      2  H10 V15 d          -0.332   2.627  12.441  0.00  0.00     0.042 H 
ATOM      3  H11 V15 d          -0.707   1.621  11.001  0.00  0.00     0.042 H 
ENDROOT
BRANCH   1   4
ATOM      4  C5  V15 d          -0.795   3.709  10.685  0.00  0.00     0.059 A 
ATOM      5  C4  V15 d          -1.787   4.598  10.345  0.00  0.00     0.007 A 
ATOM      6  C3  V15 d          -1.459   5.687   9.498  0.00  0.00     0.261 A 
ATOM      7  H2  V15 d          -2.802   4.469  10.718  0.00  0.00     0.095 H 
ATOM      8  N1  V15 d          -0.185   5.816   9.030  0.00  0.00    -0.155 N 
ATOM      9  O15 V15 d          -2.315   6.504   9.183  0.00  0.00    -0.268 OA
ATOM     10  C2  V15 d           0.763   4.906   9.419  0.00  0.00     0.701 A 
ATOM     11  H1  V15 d           0.054   6.564   8.411  0.00  0.00     0.187 HD
ATOM     12  N6  V15 d           0.449   3.914  10.222  0.00  0.00    -0.070 NA
BRANCH  10  13
ATOM     13  N14 V15 d           2.073   5.042   9.015  0.00  0.00    -0.233 N 
ATOM     14  H8  V15 d           2.778   4.353   9.313  0.00  0.00     0.174 HD
ATOM     15  H9  V15 d           2.348   5.833   8.415  0.00  0.00     0.174 HD
ENDBRANCH  10  13
ENDBRANCH   1   4
BRANCH   1  16
ATOM     16  C16 V15 d          -2.414   2.246  12.129  0.00  0.00    -0.036 C 
ATOM     17  H12 V15 d          -2.878   3.206  12.398  0.00  0.00     0.040 H 
ATOM     18  H13 V15 d          -2.335   1.613  13.025  0.00  0.00     0.040 H 
BRANCH  16  19
ATOM     19  C7  V15 d          -3.281   1.550  11.111  0.00  0.00    -0.058 A 
ATOM     20  C8  V15 d          -2.924   0.322  10.555  0.00  0.00    -0.077 A 
ATOM     21  C9  V15 d          -3.739  -0.285   9.613  0.00  0.00    -0.082 A 
ATOM     22  H3  V15 d          -2.003  -0.161  10.862  0.00  0.00     0.084 H 
ATOM     23  C10 V15 d          -4.932   0.328   9.239  0.00  0.00    -0.083 A 
ATOM     24  H4  V15 d          -3.450  -1.231   9.170  0.00  0.00     0.083 H 
ATOM     25  C11 V15 d          -5.301   1.545   9.798  0.00  0.00    -0.082 A 
ATOM     26  H5  V15 d          -5.576  -0.147   8.508  0.00  0.00     0.083 H 
ATOM     27  C12 V15 d          -4.479   2.154  10.739  0.00  0.00    -0.077 A 
ATOM     28  H6  V15 d          -6.229   2.019   9.501  0.00  0.00     0.083 H 
ATOM     29  H7  V15 d          -4.771   3.099  11.183  0.00  0.00     0.084 H 
ENDBRANCH  16  19
ENDBRANCH   1  16
TORSDOF 4
