MODEL 1
REMARK VINA RESULT:      -7.7      0.000      0.000
REMARK  4 active torsions:
REMARK  status: ('A' for Active; 'I' for Inactive)
REMARK    1  A    between atoms: C2_2  and  N14_12 
REMARK    2  A    between atoms: C15_13  and  C5_5 
REMARK    3  A    between atoms: C16_15  and  C15_13 
REMARK    4  A    between atoms: C7_14  and  C16_15 
ROOT
ATOM      1  C15 V15 d          -1.533   3.147  11.111  0.00  0.00    -0.020 C 
ATOM      2  H10 V15 d          -1.016   3.243  12.078  0.00  0.00     0.042 H 
ATOM      3  H11 V15 d          -1.295   2.171  10.664  0.00  0.00     0.042 H 
ENDROOT
BRANCH   1   4
ATOM      4  C5  V15 d          -0.970   4.207  10.197  0.00  0.00     0.059 A 
ATOM      5  C4  V15 d          -1.733   4.990   9.364  0.00  0.00     0.007 A 
ATOM      6  C3  V15 d          -1.079   5.953   8.554  0.00  0.00     0.261 A 
ATOM      7  H2  V15 d          -2.815   4.875   9.327  0.00  0.00     0.095 H 
ATOM      8  N1  V15 d           0.279   6.066   8.605  0.00  0.00    -0.155 N 
ATOM      9  O15 V15 d          -1.728   6.676   7.808  0.00  0.00    -0.268 OA
ATOM     10  C2  V15 d           0.982   5.267   9.469  0.00  0.00     0.701 A 
ATOM     11  H1  V15 d           0.755   6.722   8.020  0.00  0.00     0.187 HD
ATOM     12  N6  V15 d           0.360   4.394  10.229  0.00  0.00    -0.070 NA
BRANCH  10  13
ATOM     13  N14 V15 d           2.347   5.398   9.591  0.00  0.00    -0.233 N 
ATOM     14  H8  V15 d           2.957   5.215   8.781  0.00  0.00     0.174 HD
ATOM     15  H9  V15 d           2.760   5.678  10.493  0.00  0.00     0.174 HD
ENDBRANCH  10  13
ENDBRANCH   1   4
BRANCH   1  16
ATOM     16  C16 V15 d          -3.044   3.159  11.400  0.00  0.00    -0.036 C 
ATOM     17  H12 V15 d          -3.527   3.898  10.745  0.00  0.00     0.040 H 
ATOM     18  H13 V15 d          -3.205   3.440  12.451  0.00  0.00     0.040 H 
BRANCH  16  19
ATOM     19  C7  V15 d          -3.661   1.806  11.154  0.00  0.00    -0.058 A 
ATOM     20  C8  V15 d          -5.035   1.643  10.983  0.00  0.00    -0.077 A 
ATOM     21  C9  V15 d          -5.571   0.383  10.769  0.00  0.00    -0.082 A 
ATOM     22  H3  V15 d          -5.689   2.507  11.017  0.00  0.00     0.084 H 
ATOM     23  C10 V15 d          -4.725  -0.722  10.703  0.00  0.00    -0.083 A 
ATOM     24  H4  V15 d          -6.641   0.257  10.654  0.00  0.00     0.083 H 
ATOM     25  C11 V15 d          -3.354  -0.565  10.859  0.00  0.00    -0.082 A 
ATOM     26  H5  V15 d          -5.139  -1.708  10.528  0.00  0.00     0.083 H 
ATOM     27  C12 V15 d          -2.820   0.699  11.078  0.00  0.00    -0.077 A 
ATOM     28  H6  V15 d          -2.701  -1.429  10.810  0.00  0.00     0.083 H 
ATOM     29  H7  V15 d          -1.749   0.823  11.191  0.00  0.00     0.084 H 
ENDBRANCH  16  19
ENDBRANCH   1  16
TORSDOF 4
ENDMDL
MODEL 2
REMARK VINA RESULT:      -6.8      1.591      2.512
REMARK  4 active torsions:
REMARK  status: ('A' for Active; 'I' for Inactive)
REMARK    1  A    between atoms: C2_2  and  N14_12 
REMARK    2  A    between atoms: C15_13  and  C5_5 
REMARK    3  A    between atoms: C16_15  and  C15_13 
REMARK    4  A    between atoms: C7_14  and  C16_15 
ROOT
ATOM      1  C15 V15 d          -2.217   3.010  11.525  0.00  0.00    -0.020 C 
ATOM      2  H10 V15 d          -3.282   3.285  11.560  0.00  0.00     0.042 H 
ATOM      3  H11 V15 d          -1.750   3.227  12.497  0.00  0.00     0.042 H 
ENDROOT
BRANCH   1   4
ATOM      4  C5  V15 d          -1.559   3.905  10.504  0.00  0.00     0.059 A 
ATOM      5  C4  V15 d          -0.203   4.116  10.425  0.00  0.00     0.007 A 
ATOM      6  C3  V15 d           0.290   4.982   9.415  0.00  0.00     0.261 A 
ATOM      7  H2  V15 d           0.478   3.629  11.121  0.00  0.00     0.095 H 
ATOM      8  N1  V15 d          -0.585   5.594   8.567  0.00  0.00    -0.155 N 
ATOM      9  O15 V15 d           1.492   5.185   9.308  0.00  0.00    -0.268 OA
ATOM     10  C2  V15 d          -1.925   5.329   8.687  0.00  0.00     0.701 A 
ATOM     11  H1  V15 d          -0.254   6.227   7.868  0.00  0.00     0.187 HD
ATOM     12  N6  V15 d          -2.364   4.507   9.614  0.00  0.00    -0.070 NA
BRANCH  10  13
ATOM     13  N14 V15 d          -2.830   5.881   7.808  0.00  0.00    -0.233 N 
ATOM     14  H8  V15 d          -3.714   5.394   7.605  0.00  0.00     0.174 HD
ATOM     15  H9  V15 d          -2.623   6.781   7.352  0.00  0.00     0.174 HD
ENDBRANCH  10  13
ENDBRANCH   1   4
BRANCH   1  16
ATOM     16  C16 V15 d          -2.146   1.488  11.316  0.00  0.00    -0.036 C 
ATOM     17  H12 V15 d          -1.706   1.024  12.210  0.00  0.00     0.040 H 
ATOM     18  H13 V15 d          -1.512   1.276  10.443  0.00  0.00     0.040 H 
BRANCH  16  19
ATOM     19  C7  V15 d          -3.515   0.901  11.081  0.00  0.00    -0.058 A 
ATOM     20  C8  V15 d          -3.699  -0.453  10.805  0.00  0.00    -0.077 A 
ATOM     21  C9  V15 d          -4.971  -0.957  10.583  0.00  0.00    -0.082 A 
ATOM     22  H3  V15 d          -2.842  -1.116  10.762  0.00  0.00     0.084 H 
ATOM     23  C10 V15 d          -6.071  -0.107  10.661  0.00  0.00    -0.083 A 
ATOM     24  H4  V15 d          -5.109  -2.007  10.351  0.00  0.00     0.083 H 
ATOM     25  C11 V15 d          -5.897   1.241  10.949  0.00  0.00    -0.082 A 
ATOM     26  H5  V15 d          -7.068  -0.498  10.496  0.00  0.00     0.083 H 
ATOM     27  C12 V15 d          -4.620   1.745  11.166  0.00  0.00    -0.077 A 
ATOM     28  H6  V15 d          -6.756   1.899  11.006  0.00  0.00     0.083 H 
ATOM     29  H7  V15 d          -4.484   2.795  11.401  0.00  0.00     0.084 H 
ENDBRANCH  16  19
ENDBRANCH   1  16
TORSDOF 4
ENDMDL
MODEL 3
REMARK VINA RESULT:      -6.5      3.810      6.381
REMARK  4 active torsions:
REMARK  status: ('A' for Active; 'I' for Inactive)
REMARK    1  A    between atoms: C2_2  and  N14_12 
REMARK    2  A    between atoms: C15_13  and  C5_5 
REMARK    3  A    between atoms: C16_15  and  C15_13 
REMARK    4  A    between atoms: C7_14  and  C16_15 
ROOT
ATOM      1  C15 V15 d          -2.064   1.108  10.812  0.00  0.00    -0.020 C 
ATOM      2  H10 V15 d          -1.480   1.215   9.886  0.00  0.00     0.042 H 
ATOM      3  H11 V15 d          -1.721   0.219  11.361  0.00  0.00     0.042 H 
ENDROOT
BRANCH   1   4
ATOM      4  C5  V15 d          -3.496   0.858  10.409  0.00  0.00     0.059 A 
ATOM      5  C4  V15 d          -3.882  -0.066   9.467  0.00  0.00     0.007 A 
ATOM      6  C3  V15 d          -5.264  -0.205   9.181  0.00  0.00     0.261 A 
ATOM      7  H2  V15 d          -3.142  -0.678   8.953  0.00  0.00     0.095 H 
ATOM      8  N1  V15 d          -6.168   0.585   9.826  0.00  0.00    -0.155 N 
ATOM      9  O15 V15 d          -5.644  -1.025   8.355  0.00  0.00    -0.268 OA
ATOM     10  C2  V15 d          -5.722   1.476  10.767  0.00  0.00     0.701 A 
ATOM     11  H1  V15 d          -7.143   0.516   9.615  0.00  0.00     0.187 HD
ATOM     12  N6  V15 d          -4.440   1.579  11.038  0.00  0.00    -0.070 NA
BRANCH  10  13
ATOM     13  N14 V15 d          -6.613   2.246  11.482  0.00  0.00    -0.233 N 
ATOM     14  H8  V15 d          -6.913   1.948  12.421  0.00  0.00     0.174 HD
ATOM     15  H9  V15 d          -6.980   3.119  11.078  0.00  0.00     0.174 HD
ENDBRANCH  10  13
ENDBRANCH   1   4
BRANCH   1  16
ATOM     16  C16 V15 d          -1.755   2.333  11.689  0.00  0.00    -0.036 C 
ATOM     17  H12 V15 d          -0.916   2.092  12.358  0.00  0.00     0.040 H 
ATOM     18  H13 V15 d          -2.644   2.577  12.290  0.00  0.00     0.040 H 
BRANCH  16  19
ATOM     19  C7  V15 d          -1.386   3.531  10.851  0.00  0.00    -0.058 A 
ATOM     20  C8  V15 d          -0.059   3.851  10.568  0.00  0.00    -0.077 A 
ATOM     21  C9  V15 d           0.246   4.966   9.803  0.00  0.00    -0.082 A 
ATOM     22  H3  V15 d           0.740   3.224  10.948  0.00  0.00     0.084 H 
ATOM     23  C10 V15 d          -0.784   5.755   9.298  0.00  0.00    -0.083 A 
ATOM     24  H4  V15 d           1.279   5.222   9.599  0.00  0.00     0.083 H 
ATOM     25  C11 V15 d          -2.109   5.435   9.565  0.00  0.00    -0.082 A 
ATOM     26  H5  V15 d          -0.551   6.624   8.693  0.00  0.00     0.083 H 
ATOM     27  C12 V15 d          -2.412   4.319  10.336  0.00  0.00    -0.077 A 
ATOM     28  H6  V15 d          -2.907   6.054   9.172  0.00  0.00     0.083 H 
ATOM     29  H7  V15 d          -3.446   4.063  10.537  0.00  0.00     0.084 H 
ENDBRANCH  16  19
ENDBRANCH   1  16
TORSDOF 4
ENDMDL
MODEL 4
REMARK VINA RESULT:      -6.4      3.736      6.428
REMARK  4 active torsions:
REMARK  status: ('A' for Active; 'I' for Inactive)
REMARK    1  A    between atoms: C2_2  and  N14_12 
REMARK    2  A    between atoms: C15_13  and  C5_5 
REMARK    3  A    between atoms: C16_15  and  C15_13 
REMARK    4  A    between atoms: C7_14  and  C16_15 
ROOT
ATOM      1  C15 V15 d          -1.815   1.670  10.268  0.00  0.00    -0.020 C 
ATOM      2  H10 V15 d          -1.578   1.999   9.246  0.00  0.00     0.042 H 
ATOM      3  H11 V15 d          -1.255   0.751  10.497  0.00  0.00     0.042 H 
ENDROOT
BRANCH   1   4
ATOM      4  C5  V15 d          -3.282   1.316  10.294  0.00  0.00     0.059 A 
ATOM      5  C4  V15 d          -4.196   1.882  11.150  0.00  0.00     0.007 A 
ATOM      6  C3  V15 d          -5.548   1.461  11.071  0.00  0.00     0.261 A 
ATOM      7  H2  V15 d          -3.890   2.636  11.873  0.00  0.00     0.095 H 
ATOM      8  N1  V15 d          -5.903   0.502  10.169  0.00  0.00    -0.155 N 
ATOM      9  O15 V15 d          -6.392   1.951  11.810  0.00  0.00    -0.268 OA
ATOM     10  C2  V15 d          -4.948  -0.012   9.332  0.00  0.00     0.701 A 
ATOM     11  H1  V15 d          -6.848   0.177  10.120  0.00  0.00     0.187 HD
ATOM     12  N6  V15 d          -3.703   0.404   9.402  0.00  0.00    -0.070 NA
BRANCH  10  13
ATOM     13  N14 V15 d          -5.284  -0.937   8.368  0.00  0.00    -0.233 N 
ATOM     14  H8  V15 d          -4.613  -1.170   7.622  0.00  0.00     0.174 HD
ATOM     15  H9  V15 d          -6.206  -1.395   8.393  0.00  0.00     0.174 HD
ENDBRANCH  10  13
ENDBRANCH   1   4
BRANCH   1  16
ATOM     16  C16 V15 d          -1.310   2.762  11.226  0.00  0.00    -0.036 C 
ATOM     17  H12 V15 d          -0.354   2.440  11.663  0.00  0.00     0.040 H 
ATOM     18  H13 V15 d          -2.050   2.905  12.028  0.00  0.00     0.040 H 
BRANCH  16  19
ATOM     19  C7  V15 d          -1.105   4.071  10.508  0.00  0.00    -0.058 A 
ATOM     20  C8  V15 d           0.167   4.553  10.203  0.00  0.00    -0.077 A 
ATOM     21  C9  V15 d           0.320   5.767   9.551  0.00  0.00    -0.082 A 
ATOM     22  H3  V15 d           1.042   3.974  10.476  0.00  0.00     0.084 H 
ATOM     23  C10 V15 d          -0.808   6.495   9.182  0.00  0.00    -0.083 A 
ATOM     24  H4  V15 d           1.311   6.146   9.331  0.00  0.00     0.083 H 
ATOM     25  C11 V15 d          -2.079   6.016   9.471  0.00  0.00    -0.082 A 
ATOM     26  H5  V15 d          -0.693   7.441   8.666  0.00  0.00     0.083 H 
ATOM     27  C12 V15 d          -2.229   4.800  10.129  0.00  0.00    -0.077 A 
ATOM     28  H6  V15 d          -2.953   6.588   9.184  0.00  0.00     0.083 H 
ATOM     29  H7  V15 d          -3.221   4.421  10.346  0.00  0.00     0.084 H 
ENDBRANCH  16  19
ENDBRANCH   1  16
TORSDOF 4
ENDMDL
MODEL 5
REMARK VINA RESULT:      -5.7      1.917      2.574
REMARK  4 active torsions:
REMARK  status: ('A' for Active; 'I' for Inactive)
REMARK    1  A    between atoms: C2_2  and  N14_12 
REMARK    2  A    between atoms: C15_13  and  C5_5 
REMARK    3  A    between atoms: C16_15  and  C15_13 
REMARK    4  A    between atoms: C7_14  and  C16_15 
ROOT
ATOM      1  C15 V15 d          -3.783   2.641   8.248  0.00  0.00    -0.020 C 
ATOM      2  H10 V15 d          -3.591   2.797   7.175  0.00  0.00     0.042 H 
ATOM      3  H11 V15 d          -4.796   2.991   8.494  0.00  0.00     0.042 H 
ENDROOT
BRANCH   1   4
ATOM      4  C5  V15 d          -2.813   3.515   9.005  0.00  0.00     0.059 A 
ATOM      5  C4  V15 d          -2.806   4.888   8.947  0.00  0.00     0.007 A 
ATOM      6  C3  V15 d          -1.841   5.593   9.710  0.00  0.00     0.261 A 
ATOM      7  H2  V15 d          -3.525   5.423   8.328  0.00  0.00     0.095 H 
ATOM      8  N1  V15 d          -0.940   4.900  10.462  0.00  0.00    -0.155 N 
ATOM      9  O15 V15 d          -1.812   6.817   9.690  0.00  0.00    -0.268 OA
ATOM     10  C2  V15 d          -1.010   3.531  10.492  0.00  0.00     0.701 A 
ATOM     11  H1  V15 d          -0.238   5.383  10.985  0.00  0.00     0.187 HD
ATOM     12  N6  V15 d          -1.924   2.892   9.796  0.00  0.00    -0.070 NA
BRANCH  10  13
ATOM     13  N14 V15 d          -0.155   2.802  11.290  0.00  0.00    -0.233 N 
ATOM     14  H8  V15 d           0.685   2.369  10.882  0.00  0.00     0.174 HD
ATOM     15  H9  V15 d          -0.357   2.690  12.294  0.00  0.00     0.174 HD
ENDBRANCH  10  13
ENDBRANCH   1   4
BRANCH   1  16
ATOM     16  C16 V15 d          -3.750   1.125   8.500  0.00  0.00    -0.036 C 
ATOM     17  H12 V15 d          -2.750   0.843   8.860  0.00  0.00     0.040 H 
ATOM     18  H13 V15 d          -3.962   0.600   7.557  0.00  0.00     0.040 H 
BRANCH  16  19
ATOM     19  C7  V15 d          -4.775   0.717   9.529  0.00  0.00    -0.058 A 
ATOM     20  C8  V15 d          -5.314   1.630  10.434  0.00  0.00    -0.077 A 
ATOM     21  C9  V15 d          -6.245   1.219  11.374  0.00  0.00    -0.082 A 
ATOM     22  H3  V15 d          -5.003   2.668  10.402  0.00  0.00     0.084 H 
ATOM     23  C10 V15 d          -6.659  -0.110  11.396  0.00  0.00    -0.083 A 
ATOM     24  H4  V15 d          -6.650   1.928  12.087  0.00  0.00     0.083 H 
ATOM     25  C11 V15 d          -6.136  -1.023  10.489  0.00  0.00    -0.082 A 
ATOM     26  H5  V15 d          -7.393  -0.434  12.125  0.00  0.00     0.083 H 
ATOM     27  C12 V15 d          -5.198  -0.609   9.550  0.00  0.00    -0.077 A 
ATOM     28  H6  V15 d          -6.460  -2.057  10.513  0.00  0.00     0.083 H 
ATOM     29  H7  V15 d          -4.797  -1.319   8.836  0.00  0.00     0.084 H 
ENDBRANCH  16  19
ENDBRANCH   1  16
TORSDOF 4
ENDMDL
MODEL 6
REMARK VINA RESULT:      -5.2      2.094      2.990
REMARK  4 active torsions:
REMARK  status: ('A' for Active; 'I' for Inactive)
REMARK    1  A    between atoms: C2_2  and  N14_12 
REMARK    2  A    between atoms: C15_13  and  C5_5 
REMARK    3  A    between atoms: C16_15  and  C15_13 
REMARK    4  A    between atoms: C7_14  and  C16_15 
ROOT
ATOM      1  C15 V15 d          -3.791   2.114  11.503  0.00  0.00    -0.020 C 
ATOM      2  H10 V15 d          -4.586   2.698  11.014  0.00  0.00     0.042 H 
ATOM      3  H11 V15 d          -3.794   2.324  12.583  0.00  0.00     0.042 H 
ENDROOT
BRANCH   1   4
ATOM      4  C5  V15 d          -2.474   2.608  10.957  0.00  0.00     0.059 A 
ATOM      5  C4  V15 d          -2.120   3.935  10.882  0.00  0.00     0.007 A 
ATOM      6  C3  V15 d          -0.849   4.266  10.348  0.00  0.00     0.261 A 
ATOM      7  H2  V15 d          -2.800   4.713  11.225  0.00  0.00     0.095 H 
ATOM      8  N1  V15 d          -0.023   3.274   9.909  0.00  0.00    -0.155 N 
ATOM      9  O15 V15 d          -0.496   5.437  10.276  0.00  0.00    -0.268 OA
ATOM     10  C2  V15 d          -0.428   1.970  10.026  0.00  0.00     0.701 A 
ATOM     11  H1  V15 d           0.865   3.496   9.506  0.00  0.00     0.187 HD
ATOM     12  N6  V15 d          -1.600   1.677  10.543  0.00  0.00    -0.070 NA
BRANCH  10  13
ATOM     13  N14 V15 d           0.407   0.941   9.650  0.00  0.00    -0.233 N 
ATOM     14  H8  V15 d           1.181   0.655  10.265  0.00  0.00     0.174 HD
ATOM     15  H9  V15 d           0.257   0.457   8.752  0.00  0.00     0.174 HD
ENDBRANCH  10  13
ENDBRANCH   1   4
BRANCH   1  16
ATOM     16  C16 V15 d          -4.144   0.628  11.326  0.00  0.00    -0.036 C 
ATOM     17  H12 V15 d          -4.706   0.287  12.208  0.00  0.00     0.040 H 
ATOM     18  H13 V15 d          -3.214   0.048  11.237  0.00  0.00     0.040 H 
BRANCH  16  19
ATOM     19  C7  V15 d          -4.982   0.405  10.093  0.00  0.00    -0.058 A 
ATOM     20  C8  V15 d          -5.896   1.356   9.641  0.00  0.00    -0.077 A 
ATOM     21  C9  V15 d          -6.659   1.114   8.510  0.00  0.00    -0.082 A 
ATOM     22  H3  V15 d          -6.011   2.291  10.178  0.00  0.00     0.084 H 
ATOM     23  C10 V15 d          -6.492  -0.078   7.810  0.00  0.00    -0.083 A 
ATOM     24  H4  V15 d          -7.381   1.848   8.171  0.00  0.00     0.083 H 
ATOM     25  C11 V15 d          -5.574  -1.025   8.247  0.00  0.00    -0.082 A 
ATOM     26  H5  V15 d          -7.081  -0.269   6.921  0.00  0.00     0.083 H 
ATOM     27  C12 V15 d          -4.814  -0.782   9.385  0.00  0.00    -0.077 A 
ATOM     28  H6  V15 d          -5.450  -1.953   7.700  0.00  0.00     0.083 H 
ATOM     29  H7  V15 d          -4.090  -1.516   9.721  0.00  0.00     0.084 H 
ENDBRANCH  16  19
ENDBRANCH   1  16
TORSDOF 4
ENDMDL
MODEL 7
REMARK VINA RESULT:      -4.8      2.978      3.980
REMARK  4 active torsions:
REMARK  status: ('A' for Active; 'I' for Inactive)
REMARK    1  A    between atoms: C2_2  and  N14_12 
REMARK    2  A    between atoms: C15_13  and  C5_5 
REMARK    3  A    between atoms: C16_15  and  C15_13 
REMARK    4  A    between atoms: C7_14  and  C16_15 
ROOT
ATOM      1  C15 V15 d          -2.857   0.797   7.931  0.00  0.00    -0.020 C 
ATOM      2  H10 V15 d          -1.902   0.312   7.681  0.00  0.00     0.042 H 
ATOM      3  H11 V15 d          -3.141   1.485   7.122  0.00  0.00     0.042 H 
ENDROOT
BRANCH   1   4
ATOM      4  C5  V15 d          -2.623   1.633   9.165  0.00  0.00     0.059 A 
ATOM      5  C4  V15 d          -2.249   1.120  10.385  0.00  0.00     0.007 A 
ATOM      6  C3  V15 d          -2.059   2.016  11.467  0.00  0.00     0.261 A 
ATOM      7  H2  V15 d          -2.101   0.049  10.516  0.00  0.00     0.095 H 
ATOM      8  N1  V15 d          -2.267   3.351  11.281  0.00  0.00    -0.155 N 
ATOM      9  O15 V15 d          -1.716   1.595  12.564  0.00  0.00    -0.268 OA
ATOM     10  C2  V15 d          -2.623   3.802  10.037  0.00  0.00     0.701 A 
ATOM     11  H1  V15 d          -2.162   3.991  12.042  0.00  0.00     0.187 HD
ATOM     12  N6  V15 d          -2.774   2.962   9.037  0.00  0.00    -0.070 NA
BRANCH  10  13
ATOM     13  N14 V15 d          -2.780   5.150   9.798  0.00  0.00    -0.233 N 
ATOM     14  H8  V15 d          -2.070   5.818  10.130  0.00  0.00     0.174 HD
ATOM     15  H9  V15 d          -3.609   5.490   9.289  0.00  0.00     0.174 HD
ENDBRANCH  10  13
ENDBRANCH   1   4
BRANCH   1  16
ATOM     16  C16 V15 d          -3.927  -0.306   7.989  0.00  0.00    -0.036 C 
ATOM     17  H12 V15 d          -3.433  -1.277   8.136  0.00  0.00     0.040 H 
ATOM     18  H13 V15 d          -4.481  -0.317   7.038  0.00  0.00     0.040 H 
BRANCH  16  19
ATOM     19  C7  V15 d          -4.897  -0.072   9.119  0.00  0.00    -0.058 A 
ATOM     20  C8  V15 d          -5.719   1.054   9.164  0.00  0.00    -0.077 A 
ATOM     21  C9  V15 d          -6.591   1.243  10.224  0.00  0.00    -0.082 A 
ATOM     22  H3  V15 d          -5.675   1.785   8.365  0.00  0.00     0.084 H 
ATOM     23  C10 V15 d          -6.661   0.289  11.236  0.00  0.00    -0.083 A 
ATOM     24  H4  V15 d          -7.216   2.128  10.265  0.00  0.00     0.083 H 
ATOM     25  C11 V15 d          -5.855  -0.842  11.191  0.00  0.00    -0.082 A 
ATOM     26  H5  V15 d          -7.347   0.429  12.063  0.00  0.00     0.083 H 
ATOM     27  C12 V15 d          -4.977  -1.026  10.130  0.00  0.00    -0.077 A 
ATOM     28  H6  V15 d          -5.911  -1.579  11.983  0.00  0.00     0.083 H 
ATOM     29  H7  V15 d          -4.355  -1.913  10.089  0.00  0.00     0.084 H 
ENDBRANCH  16  19
ENDBRANCH   1  16
TORSDOF 4
ENDMDL
