REMARK  11 active torsions:
REMARK  status: ('A' for Active; 'I' for Inactive)
REMARK    1  A    between atoms: C1_4  and  N_1 
REMARK    2  A    between atoms: C_2  and  C1_4 
REMARK    3  A    between atoms: C6_13  and  C_2 
REMARK    4  A    between atoms: C1_4  and  C2_5 
REMARK    5  A    between atoms: O3_8  and  C4_11 
REMARK    6  A    between atoms: C5_12  and  O3_8 
REMARK    7  A    between atoms: C7_14  and  C3_10 
REMARK    8  A    between atoms: C3_10  and  C9_15 
REMARK    9  A    between atoms: C3_10  and  C10_16 
REMARK   10  A    between atoms: C3_10  and  C11_17 
REMARK   11  A    between atoms: C4_11  and  P_18 
ROOT
ATOM      1  O2  AT1 d          39.448   6.239   9.271  0.00  0.00    -0.214 OA
ATOM      2  N1  AT1 d          38.686   5.062   9.089  0.00  0.00    -0.102 NA
ATOM      3  C5  AT1 d          38.671   4.891   7.788  0.00  0.00     0.200 A 
ATOM      4  C6  AT1 d          39.392   5.897   7.066  0.00  0.00     0.032 A 
ATOM      5  C7  AT1 d          39.857   6.727   8.067  0.00  0.00     0.097 A 
ENDROOT
BRANCH   5   6
ATOM      6  C3  AT1 d          40.675   8.016   8.200  0.00  0.00     0.001 C 
BRANCH   6   7
ATOM      7  C9  AT1 d          39.751   9.091   8.821  0.00  0.00    -0.064 C 
ATOM      8  H9  AT1 d          40.307  10.033   8.931  0.00  0.00     0.028 H 
ATOM      9  H10 AT1 d          39.406   8.751   9.809  0.00  0.00     0.028 H 
ATOM     10  H11 AT1 d          38.883   9.252   8.164  0.00  0.00     0.028 H 
ENDBRANCH   6   7
BRANCH   6  11
ATOM     11  C10 AT1 d          41.867   7.795   9.126  0.00  0.00    -0.064 C 
ATOM     12  H12 AT1 d          42.531   7.032   8.693  0.00  0.00     0.028 H 
ATOM     13  H13 AT1 d          41.510   7.455  10.109  0.00  0.00     0.028 H 
ATOM     14  H14 AT1 d          42.420   8.739   9.243  0.00  0.00     0.028 H 
ENDBRANCH   6  11
BRANCH   6  15
ATOM     15  C11 AT1 d          41.181   8.556   6.869  0.00  0.00    -0.064 C 
ATOM     16  H15 AT1 d          40.330   8.720   6.192  0.00  0.00     0.028 H 
ATOM     17  H16 AT1 d          41.873   7.830   6.418  0.00  0.00     0.028 H 
ATOM     18  H17 AT1 d          41.705   9.509   7.035  0.00  0.00     0.028 H 
ENDBRANCH   6  15
ENDBRANCH   5   6
BRANCH   4  19
ATOM     19  C   AT1 d          39.493   5.886   5.570  0.00  0.00     0.002 C 
ATOM     20  H4  AT1 d          38.475   5.800   5.162  0.00  0.00     0.044 H 
ATOM     21  H5  AT1 d          39.936   6.841   5.253  0.00  0.00     0.044 H 
BRANCH  19  22
ATOM     22  C1  AT1 d          40.337   4.754   4.978  0.00  0.00     0.186 C 
ATOM     23  H6  AT1 d          40.060   3.819   5.487  0.00  0.00     0.101 H 
BRANCH  22  24
ATOM     24  N   AT1 d          41.839   5.001   5.184  0.00  0.00    -0.065 N 
ATOM     25  H1  AT1 d          42.030   5.109   6.168  0.00  0.00     0.275 HD
ATOM     26  H2  AT1 d          42.112   5.839   4.695  0.00  0.00     0.275 HD
ATOM     27  H3  AT1 d          42.361   4.217   4.825  0.00  0.00     0.275 HD
ENDBRANCH  22  24
BRANCH  22  28
ATOM     28  C2  AT1 d          40.071   4.589   3.429  0.00  0.00     0.204 C 
ATOM     29  O   AT1 d          41.075   4.678   2.658  0.00  0.00    -0.646 OA
ATOM     30  O1  AT1 d          38.891   4.377   3.065  0.00  0.00    -0.646 OA
ENDBRANCH  22  28
ENDBRANCH  19  22
ENDBRANCH   4  19
BRANCH   3  31
ATOM     31  O3  AT1 d          38.038   3.884   7.156  0.00  0.00    -0.319 OA
BRANCH  31  32
ATOM     32  C4  AT1 d          37.282   2.937   7.981  0.00  0.00     0.130 C 
ATOM     33  H7  AT1 d          36.633   3.486   8.679  0.00  0.00     0.096 H 
ATOM     34  H8  AT1 d          37.977   2.301   8.550  0.00  0.00     0.096 H 
BRANCH  32  35
ATOM     35  P   AT1 d          36.272   1.912   6.882  0.00  0.00     0.284 P 
ATOM     36  O4  AT1 d          37.159   1.179   5.941  0.00  0.00    -0.638 OA
ATOM     37  O5  AT1 d          35.475   1.047   7.820  0.00  0.00    -0.638 OA
ATOM     38  O6  AT1 d          35.295   2.894   6.153  0.00  0.00    -0.638 OA
ENDBRANCH  32  35
ENDBRANCH  31  32
ENDBRANCH   3  31
TORSDOF 11
