REMARK  15 active torsions:
REMARK  status: ('A' for Active; 'I' for Inactive)
REMARK    1  A    between atoms: C10_11  and  N17_7 
REMARK    2  A    between atoms: N17_7  and  C24_8 
REMARK    3  A    between atoms: C24_8  and  C63_13 
REMARK    4  A    between atoms: C63_13  and  C64_28 
REMARK    5  A    between atoms: N40_26  and  C37_23 
REMARK    6  A    between atoms: C41_27  and  N40_26 
REMARK    7  A    between atoms: C72_36  and  C41_27 
REMARK    8  A    between atoms: C64_28  and  C65_29 
REMARK    9  A    between atoms: C65_29  and  C66_30 
REMARK   10  A    between atoms: C66_30  and  C67_31 
REMARK   11  A    between atoms: C67_31  and  C68_32 
REMARK   12  A    between atoms: C68_32  and  C69_33 
REMARK   13  A    between atoms: C69_33  and  C70_34 
REMARK   14  A    between atoms: C70_34  and  C71_35 
REMARK   15  A    between atoms: C71_35  and  C72_36 
ROOT
ATOM      1  C67 E12 d           2.781  62.582  69.929  0.00  0.00    -0.065 C 
ATOM      2  H37 E12 d           2.959  62.284  68.885  0.00  0.00     0.033 H 
ATOM      3  H38 E12 d           3.304  61.888  70.603  0.00  0.00     0.033 H 
ENDROOT
BRANCH   1   4
ATOM      4  C66 E12 d           1.297  62.498  70.208  0.00  0.00    -0.065 C 
ATOM      5  H35 E12 d           0.786  63.328  69.698  0.00  0.00     0.033 H 
ATOM      6  H36 E12 d           0.912  61.541  69.827  0.00  0.00     0.033 H 
BRANCH   4   7
ATOM      7  C65 E12 d           1.026  62.586  71.689  0.00  0.00    -0.065 C 
ATOM      8  H33 E12 d           1.509  61.734  72.191  0.00  0.00     0.033 H 
ATOM      9  H34 E12 d           1.449  63.526  72.073  0.00  0.00     0.033 H 
BRANCH   7  10
ATOM     10  C64 E12 d          -0.465  62.556  71.994  0.00  0.00    -0.064 C 
ATOM     11  H31 E12 d          -0.875  63.573  71.904  0.00  0.00     0.033 H 
ATOM     12  H32 E12 d          -0.969  61.893  71.276  0.00  0.00     0.033 H 
BRANCH  10  13
ATOM     13  C63 E12 d          -0.701  62.045  73.395  0.00  0.00    -0.043 C 
ATOM     14  H15 E12 d          -0.038  62.581  74.090  0.00  0.00     0.035 H 
ATOM     15  H16 E12 d          -1.749  62.229  73.673  0.00  0.00     0.035 H 
BRANCH  13  16
ATOM     16  C24 E12 d          -0.413  60.535  73.489  0.00  0.00     0.083 C 
ATOM     17  H7  E12 d          -1.351  59.966  73.569  0.00  0.00     0.075 H 
ATOM     18  H8  E12 d           0.150  60.192  72.608  0.00  0.00     0.075 H 
BRANCH  16  19
ATOM     19  N17 E12 d           0.428  60.376  74.765  0.00  0.00    -0.067 N 
ATOM     20  H5  E12 d           0.905  61.253  74.903  0.00  0.00     0.277 HD
ATOM     21  H6  E12 d          -0.224  60.226  75.519  0.00  0.00     0.277 HD
BRANCH  19  22
ATOM     22  C10 E12 d           1.477  59.297  74.887  0.00  0.00     0.129 C 
ATOM     23  C4  E12 d           2.505  59.421  73.742  0.00  0.00    -0.005 A 
ATOM     24  C3  E12 d           2.751  58.375  72.871  0.00  0.00     0.020 A 
ATOM     25  C5  E12 d           3.345  60.645  73.597  0.00  0.00    -0.068 A 
ATOM     26  N2  E12 d           3.700  58.511  71.897  0.00  0.00    -0.327 N 
ATOM     27  C9  E12 d           2.005  57.036  72.928  0.00  0.00    -0.026 C 
ATOM     28  C1  E12 d           4.522  59.602  71.666  0.00  0.00     0.245 A 
ATOM     29  H1  E12 d           3.814  57.733  71.279  0.00  0.00     0.169 HD
ATOM     30  C6  E12 d           4.304  60.758  72.616  0.00  0.00    -0.017 A 
ATOM     31  O7  E12 d           5.331  59.604  70.717  0.00  0.00    -0.268 OA
ATOM     32  H9  E12 d           4.897  61.667  72.525  0.00  0.00     0.092 H 
ATOM     33  C14 E12 d           0.633  57.193  73.609  0.00  0.00    -0.058 C 
ATOM     34  H10 E12 d           2.608  56.313  73.497  0.00  0.00     0.042 H 
ATOM     35  H11 E12 d           1.857  56.664  71.904  0.00  0.00     0.042 H 
ATOM     36  C13 E12 d           0.784  57.911  74.989  0.00  0.00    -0.034 C 
ATOM     37  H3  E12 d          -0.026  57.789  72.961  0.00  0.00     0.033 H 
ATOM     38  H4  E12 d           0.191  56.198  73.765  0.00  0.00     0.033 H 
ATOM     39  H13 E12 d          -0.218  58.052  75.421  0.00  0.00     0.036 H 
ATOM     40  H14 E12 d           1.382  57.270  75.653  0.00  0.00     0.036 H 
ATOM     41  H2  E12 d           3.195  61.474  74.287  0.00  0.00     0.084 H 
ATOM     42  H12 E12 d           2.023  59.457  75.829  0.00  0.00     0.092 H 
ENDBRANCH  19  22
ENDBRANCH  16  19
ENDBRANCH  13  16
ENDBRANCH  10  13
ENDBRANCH   7  10
ENDBRANCH   4   7
ENDBRANCH   1   4
BRANCH   1  43
ATOM     43  C68 E12 d           3.345  63.972  70.136  0.00  0.00    -0.065 C 
ATOM     44  H39 E12 d           3.585  64.095  71.202  0.00  0.00     0.033 H 
ATOM     45  H40 E12 d           2.579  64.706  69.845  0.00  0.00     0.033 H 
BRANCH  43  46
ATOM     46  C69 E12 d           4.602  64.242  69.326  0.00  0.00    -0.065 C 
ATOM     47  H41 E12 d           4.508  63.759  68.342  0.00  0.00     0.033 H 
ATOM     48  H42 E12 d           5.470  63.825  69.857  0.00  0.00     0.033 H 
BRANCH  46  49
ATOM     49  C70 E12 d           4.808  65.734  69.131  0.00  0.00    -0.065 C 
ATOM     50  H43 E12 d           5.867  65.909  68.889  0.00  0.00     0.033 H 
ATOM     51  H44 E12 d           4.557  66.245  70.073  0.00  0.00     0.033 H 
BRANCH  49  52
ATOM     52  C71 E12 d           3.955  66.334  68.017  0.00  0.00    -0.064 C 
ATOM     53  H45 E12 d           4.199  67.403  67.928  0.00  0.00     0.033 H 
ATOM     54  H46 E12 d           2.895  66.221  68.289  0.00  0.00     0.033 H 
BRANCH  52  55
ATOM     55  C72 E12 d           4.182  65.665  66.648  0.00  0.00    -0.043 C 
ATOM     56  H47 E12 d           4.080  64.577  66.769  0.00  0.00     0.035 H 
ATOM     57  H48 E12 d           5.201  65.902  66.308  0.00  0.00     0.035 H 
BRANCH  55  58
ATOM     58  C41 E12 d           3.190  66.131  65.576  0.00  0.00     0.083 C 
ATOM     59  H29 E12 d           2.221  65.629  65.711  0.00  0.00     0.075 H 
ATOM     60  H30 E12 d           3.582  65.908  64.573  0.00  0.00     0.075 H 
BRANCH  58  61
ATOM     61  N40 E12 d           3.038  67.597  65.754  0.00  0.00    -0.067 N 
ATOM     62  H27 E12 d           3.546  67.846  66.588  0.00  0.00     0.277 HD
ATOM     63  H28 E12 d           2.056  67.776  65.892  0.00  0.00     0.277 HD
BRANCH  61  64
ATOM     64  C37 E12 d           3.508  68.530  64.655  0.00  0.00     0.129 C 
ATOM     65  C38 E12 d           5.007  68.250  64.418  0.00  0.00    -0.034 C 
ATOM     66  C39 E12 d           5.520  69.022  63.197  0.00  0.00    -0.058 C 
ATOM     67  H23 E12 d           5.150  67.172  64.249  0.00  0.00     0.036 H 
ATOM     68  H24 E12 d           5.577  68.561  65.306  0.00  0.00     0.036 H 
ATOM     69  C36 E12 d           4.787  68.554  61.926  0.00  0.00    -0.026 C 
ATOM     70  H25 E12 d           5.340  70.097  63.345  0.00  0.00     0.033 H 
ATOM     71  H26 E12 d           6.599  68.843  63.081  0.00  0.00     0.033 H 
ATOM     72  C31 E12 d           3.258  68.560  62.137  0.00  0.00     0.020 A 
ATOM     73  H20 E12 d           5.038  69.230  61.096  0.00  0.00     0.042 H 
ATOM     74  H21 E12 d           5.112  67.533  61.678  0.00  0.00     0.042 H 
ATOM     75  C32 E12 d           2.651  68.527  63.392  0.00  0.00    -0.005 A 
ATOM     76  N30 E12 d           2.473  68.594  61.022  0.00  0.00    -0.327 N 
ATOM     77  C33 E12 d           1.168  68.531  63.456  0.00  0.00    -0.068 A 
ATOM     78  C34 E12 d           0.399  68.567  62.332  0.00  0.00    -0.017 A 
ATOM     79  H18 E12 d           0.681  68.504  64.430  0.00  0.00     0.084 H 
ATOM     80  C29 E12 d           1.083  68.622  60.981  0.00  0.00     0.245 A 
ATOM     81  H19 E12 d          -0.688  68.556  62.403  0.00  0.00     0.092 H 
ATOM     82  O35 E12 d           0.494  68.772  59.902  0.00  0.00    -0.268 OA
ATOM     83  H17 E12 d           2.947  68.599  60.141  0.00  0.00     0.169 HD
ATOM     84  H22 E12 d           3.434  69.552  65.054  0.00  0.00     0.092 H 
ENDBRANCH  61  64
ENDBRANCH  58  61
ENDBRANCH  55  58
ENDBRANCH  52  55
ENDBRANCH  49  52
ENDBRANCH  46  49
ENDBRANCH  43  46
ENDBRANCH   1  43
TORSDOF 15
