MODEL 1
REMARK VINA RESULT:     -10.3      0.000      0.000
REMARK  15 active torsions:
REMARK  status: ('A' for Active; 'I' for Inactive)
REMARK    1  A    between atoms: C10_11  and  N17_7 
REMARK    2  A    between atoms: N17_7  and  C24_8 
REMARK    3  A    between atoms: C24_8  and  C63_13 
REMARK    4  A    between atoms: C63_13  and  C64_28 
REMARK    5  A    between atoms: N40_26  and  C37_23 
REMARK    6  A    between atoms: C41_27  and  N40_26 
REMARK    7  A    between atoms: C72_36  and  C41_27 
REMARK    8  A    between atoms: C64_28  and  C65_29 
REMARK    9  A    between atoms: C65_29  and  C66_30 
REMARK   10  A    between atoms: C66_30  and  C67_31 
REMARK   11  A    between atoms: C67_31  and  C68_32 
REMARK   12  A    between atoms: C68_32  and  C69_33 
REMARK   13  A    between atoms: C69_33  and  C70_34 
REMARK   14  A    between atoms: C70_34  and  C71_35 
REMARK   15  A    between atoms: C71_35  and  C72_36 
ROOT
ATOM      1  C67 E12 d           5.112  65.251  68.569  0.00  0.00    -0.065 C 
ATOM      2  H37 E12 d           6.070  65.772  68.717  0.00  0.00     0.033 H 
ATOM      3  H38 E12 d           5.271  64.165  68.633  0.00  0.00     0.033 H 
ENDROOT
BRANCH   1   4
ATOM      4  C66 E12 d           4.593  65.581  67.187  0.00  0.00    -0.065 C 
ATOM      5  H35 E12 d           4.029  66.525  67.229  0.00  0.00     0.033 H 
ATOM      6  H36 E12 d           5.444  65.693  66.500  0.00  0.00     0.033 H 
BRANCH   4   7
ATOM      7  C65 E12 d           3.688  64.486  66.681  0.00  0.00    -0.065 C 
ATOM      8  H33 E12 d           4.111  63.512  66.970  0.00  0.00     0.033 H 
ATOM      9  H34 E12 d           2.695  64.605  67.139  0.00  0.00     0.033 H 
BRANCH   7  10
ATOM     10  C64 E12 d           3.540  64.529  65.167  0.00  0.00    -0.064 C 
ATOM     11  H31 E12 d           3.288  63.524  64.797  0.00  0.00     0.033 H 
ATOM     12  H32 E12 d           2.737  65.230  64.900  0.00  0.00     0.033 H 
BRANCH  10  13
ATOM     13  C63 E12 d           4.831  64.985  64.529  0.00  0.00    -0.043 C 
ATOM     14  H15 E12 d           5.417  65.552  65.268  0.00  0.00     0.035 H 
ATOM     15  H16 E12 d           5.404  64.103  64.207  0.00  0.00     0.035 H 
BRANCH  13  16
ATOM     16  C24 E12 d           4.558  65.882  63.308  0.00  0.00     0.083 C 
ATOM     17  H7  E12 d           5.125  65.529  62.434  0.00  0.00     0.075 H 
ATOM     18  H8  E12 d           3.485  65.895  63.068  0.00  0.00     0.075 H 
BRANCH  16  19
ATOM     19  N17 E12 d           5.035  67.279  63.735  0.00  0.00    -0.067 N 
ATOM     20  H5  E12 d           5.221  67.227  64.724  0.00  0.00     0.277 HD
ATOM     21  H6  E12 d           5.896  67.450  63.239  0.00  0.00     0.277 HD
BRANCH  19  22
ATOM     22  C10 E12 d           4.174  68.502  63.528  0.00  0.00     0.129 C 
ATOM     23  C4  E12 d           2.789  68.295  64.180  0.00  0.00    -0.005 A 
ATOM     24  C3  E12 d           1.620  68.395  63.447  0.00  0.00     0.020 A 
ATOM     25  C5  E12 d           2.660  68.079  65.650  0.00  0.00    -0.068 A 
ATOM     26  N2  E12 d           0.413  68.247  64.071  0.00  0.00    -0.327 N 
ATOM     27  C9  E12 d           1.591  68.667  61.938  0.00  0.00    -0.026 C 
ATOM     28  C1  E12 d           0.181  68.031  65.419  0.00  0.00     0.245 A 
ATOM     29  H1  E12 d          -0.396  68.301  63.486  0.00  0.00     0.169 HD
ATOM     30  C6  E12 d           1.434  67.943  66.261  0.00  0.00    -0.017 A 
ATOM     31  O7  E12 d          -0.979  67.885  65.853  0.00  0.00    -0.268 OA
ATOM     32  H9  E12 d           1.368  67.775  67.335  0.00  0.00     0.092 H 
ATOM     33  C14 E12 d           2.909  68.235  61.270  0.00  0.00    -0.058 C 
ATOM     34  H10 E12 d           1.438  69.743  61.769  0.00  0.00     0.042 H 
ATOM     35  H11 E12 d           0.759  68.104  61.488  0.00  0.00     0.042 H 
ATOM     36  C13 E12 d           4.133  68.856  62.017  0.00  0.00    -0.034 C 
ATOM     37  H3  E12 d           2.986  67.138  61.298  0.00  0.00     0.033 H 
ATOM     38  H4  E12 d           2.912  68.575  60.224  0.00  0.00     0.033 H 
ATOM     39  H13 E12 d           5.055  68.486  61.545  0.00  0.00     0.036 H 
ATOM     40  H14 E12 d           4.085  69.951  61.916  0.00  0.00     0.036 H 
ATOM     41  H2  E12 d           3.562  68.025  66.258  0.00  0.00     0.084 H 
ATOM     42  H12 E12 d           4.651  69.347  64.047  0.00  0.00     0.092 H 
ENDBRANCH  19  22
ENDBRANCH  16  19
ENDBRANCH  13  16
ENDBRANCH  10  13
ENDBRANCH   7  10
ENDBRANCH   4   7
ENDBRANCH   1   4
BRANCH   1  43
ATOM     43  C68 E12 d           4.162  65.666  69.673  0.00  0.00    -0.065 C 
ATOM     44  H39 E12 d           4.733  65.755  70.608  0.00  0.00     0.033 H 
ATOM     45  H40 E12 d           3.395  64.885  69.784  0.00  0.00     0.033 H 
BRANCH  43  46
ATOM     46  C69 E12 d           3.466  66.990  69.407  0.00  0.00    -0.065 C 
ATOM     47  H41 E12 d           3.564  67.242  68.340  0.00  0.00     0.033 H 
ATOM     48  H42 E12 d           3.940  67.776  70.013  0.00  0.00     0.033 H 
BRANCH  46  49
ATOM     49  C70 E12 d           1.993  66.907  69.766  0.00  0.00    -0.065 C 
ATOM     50  H43 E12 d           1.406  67.279  68.913  0.00  0.00     0.033 H 
ATOM     51  H44 E12 d           1.812  67.547  70.643  0.00  0.00     0.033 H 
BRANCH  49  52
ATOM     52  C71 E12 d           1.517  65.495  70.097  0.00  0.00    -0.064 C 
ATOM     53  H45 E12 d           2.252  65.028  70.769  0.00  0.00     0.033 H 
ATOM     54  H46 E12 d           1.457  64.919  69.162  0.00  0.00     0.033 H 
BRANCH  52  55
ATOM     55  C72 E12 d           0.137  65.461  70.781  0.00  0.00    -0.043 C 
ATOM     56  H47 E12 d          -0.602  65.084  70.060  0.00  0.00     0.035 H 
ATOM     57  H48 E12 d          -0.130  66.486  71.079  0.00  0.00     0.035 H 
BRANCH  55  58
ATOM     58  C41 E12 d           0.103  64.567  72.026  0.00  0.00     0.083 C 
ATOM     59  H29 E12 d          -0.829  64.732  72.586  0.00  0.00     0.075 H 
ATOM     60  H30 E12 d           0.963  64.786  72.675  0.00  0.00     0.075 H 
BRANCH  58  61
ATOM     61  N40 E12 d           0.169  63.166  71.539  0.00  0.00    -0.067 N 
ATOM     62  H27 E12 d           0.669  63.183  70.665  0.00  0.00     0.277 HD
ATOM     63  H28 E12 d          -0.780  62.866  71.379  0.00  0.00     0.277 HD
BRANCH  61  64
ATOM     64  C37 E12 d           0.827  62.110  72.406  0.00  0.00     0.129 C 
ATOM     65  C38 E12 d          -0.224  61.014  72.680  0.00  0.00    -0.034 C 
ATOM     66  C39 E12 d           0.411  59.817  73.397  0.00  0.00    -0.058 C 
ATOM     67  H23 E12 d          -0.650  60.676  71.724  0.00  0.00     0.036 H 
ATOM     68  H24 E12 d          -1.023  61.430  73.312  0.00  0.00     0.036 H 
ATOM     69  C36 E12 d           1.486  59.171  72.504  0.00  0.00    -0.026 C 
ATOM     70  H25 E12 d           0.875  60.159  74.334  0.00  0.00     0.033 H 
ATOM     71  H26 E12 d          -0.368  59.074  73.624  0.00  0.00     0.033 H 
ATOM     72  C31 E12 d           2.466  60.234  71.963  0.00  0.00     0.020 A 
ATOM     73  H20 E12 d           2.047  58.431  73.092  0.00  0.00     0.042 H 
ATOM     74  H21 E12 d           0.996  58.670  71.656  0.00  0.00     0.042 H 
ATOM     75  C32 E12 d           2.168  61.594  71.891  0.00  0.00    -0.005 A 
ATOM     76  N30 E12 d           3.685  59.799  71.532  0.00  0.00    -0.327 N 
ATOM     77  C33 E12 d           3.199  62.512  71.345  0.00  0.00    -0.068 A 
ATOM     78  C34 E12 d           4.412  62.060  70.920  0.00  0.00    -0.017 A 
ATOM     79  H18 E12 d           2.979  63.576  71.281  0.00  0.00     0.084 H 
ATOM     80  C29 E12 d           4.719  60.580  71.027  0.00  0.00     0.245 A 
ATOM     81  H19 E12 d           5.149  62.750  70.510  0.00  0.00     0.092 H 
ATOM     82  O35 E12 d           5.821  60.072  70.781  0.00  0.00    -0.268 OA
ATOM     83  H17 E12 d           3.853  58.814  71.584  0.00  0.00     0.169 HD
ATOM     84  H22 E12 d           1.050  62.587  73.371  0.00  0.00     0.092 H 
ENDBRANCH  61  64
ENDBRANCH  58  61
ENDBRANCH  55  58
ENDBRANCH  52  55
ENDBRANCH  49  52
ENDBRANCH  46  49
ENDBRANCH  43  46
ENDBRANCH   1  43
TORSDOF 15
ENDMDL
MODEL 2
REMARK VINA RESULT:     -10.0      2.444      3.796
REMARK  15 active torsions:
REMARK  status: ('A' for Active; 'I' for Inactive)
REMARK    1  A    between atoms: C10_11  and  N17_7 
REMARK    2  A    between atoms: N17_7  and  C24_8 
REMARK    3  A    between atoms: C24_8  and  C63_13 
REMARK    4  A    between atoms: C63_13  and  C64_28 
REMARK    5  A    between atoms: N40_26  and  C37_23 
REMARK    6  A    between atoms: C41_27  and  N40_26 
REMARK    7  A    between atoms: C72_36  and  C41_27 
REMARK    8  A    between atoms: C64_28  and  C65_29 
REMARK    9  A    between atoms: C65_29  and  C66_30 
REMARK   10  A    between atoms: C66_30  and  C67_31 
REMARK   11  A    between atoms: C67_31  and  C68_32 
REMARK   12  A    between atoms: C68_32  and  C69_33 
REMARK   13  A    between atoms: C69_33  and  C70_34 
REMARK   14  A    between atoms: C70_34  and  C71_35 
REMARK   15  A    between atoms: C71_35  and  C72_36 
ROOT
ATOM      1  C67 E12 d           4.443  63.226  70.195  0.00  0.00    -0.065 C 
ATOM      2  H37 E12 d           3.998  63.197  71.201  0.00  0.00     0.033 H 
ATOM      3  H38 E12 d           5.303  62.543  70.155  0.00  0.00     0.033 H 
ENDROOT
BRANCH   1   4
ATOM      4  C66 E12 d           4.930  64.632  69.925  0.00  0.00    -0.065 C 
ATOM      5  H35 E12 d           5.676  64.908  70.684  0.00  0.00     0.033 H 
ATOM      6  H36 E12 d           5.392  64.668  68.927  0.00  0.00     0.033 H 
BRANCH   4   7
ATOM      7  C65 E12 d           3.786  65.614  69.976  0.00  0.00    -0.065 C 
ATOM      8  H33 E12 d           2.843  65.056  70.080  0.00  0.00     0.033 H 
ATOM      9  H34 E12 d           3.921  66.272  70.847  0.00  0.00     0.033 H 
BRANCH   7  10
ATOM     10  C64 E12 d           3.716  66.468  68.718  0.00  0.00    -0.064 C 
ATOM     11  H31 E12 d           4.711  66.890  68.510  0.00  0.00     0.033 H 
ATOM     12  H32 E12 d           3.399  65.842  67.872  0.00  0.00     0.033 H 
BRANCH  10  13
ATOM     13  C63 E12 d           2.727  67.593  68.906  0.00  0.00    -0.043 C 
ATOM     14  H15 E12 d           1.760  67.173  69.219  0.00  0.00     0.035 H 
ATOM     15  H16 E12 d           3.100  68.274  69.684  0.00  0.00     0.035 H 
BRANCH  13  16
ATOM     16  C24 E12 d           2.532  68.382  67.597  0.00  0.00     0.083 C 
ATOM     17  H7  E12 d           1.494  68.295  67.243  0.00  0.00     0.075 H 
ATOM     18  H8  E12 d           2.782  69.444  67.744  0.00  0.00     0.075 H 
BRANCH  16  19
ATOM     19  N17 E12 d           3.502  67.730  66.600  0.00  0.00    -0.067 N 
ATOM     20  H5  E12 d           4.313  68.327  66.560  0.00  0.00     0.277 HD
ATOM     21  H6  E12 d           3.759  66.839  66.993  0.00  0.00     0.277 HD
BRANCH  19  22
ATOM     22  C10 E12 d           3.099  67.465  65.169  0.00  0.00     0.129 C 
ATOM     23  C4  E12 d           3.628  66.088  64.713  0.00  0.00    -0.005 A 
ATOM     24  C3  E12 d           4.452  65.957  63.610  0.00  0.00     0.020 A 
ATOM     25  C5  E12 d           3.184  64.835  65.390  0.00  0.00    -0.068 A 
ATOM     26  N2  E12 d           4.864  64.715  63.214  0.00  0.00    -0.327 N 
ATOM     27  C9  E12 d           4.950  67.147  62.781  0.00  0.00    -0.026 C 
ATOM     28  C1  E12 d           4.526  63.495  63.776  0.00  0.00     0.245 A 
ATOM     29  H1  E12 d           5.482  64.684  62.428  0.00  0.00     0.169 HD
ATOM     30  C6  E12 d           3.602  63.593  64.968  0.00  0.00    -0.017 A 
ATOM     31  O7  E12 d           5.000  62.431  63.329  0.00  0.00    -0.268 OA
ATOM     32  H9  E12 d           3.271  62.694  65.487  0.00  0.00     0.092 H 
ATOM     33  C14 E12 d           4.938  68.445  63.610  0.00  0.00    -0.058 C 
ATOM     34  H10 E12 d           4.295  67.274  61.906  0.00  0.00     0.042 H 
ATOM     35  H11 E12 d           5.977  66.946  62.444  0.00  0.00     0.042 H 
ATOM     36  C13 E12 d           3.540  68.657  64.277  0.00  0.00    -0.034 C 
ATOM     37  H3  E12 d           5.707  68.380  64.393  0.00  0.00     0.033 H 
ATOM     38  H4  E12 d           5.157  69.297  62.950  0.00  0.00     0.033 H 
ATOM     39  H13 E12 d           3.585  69.562  64.901  0.00  0.00     0.036 H 
ATOM     40  H14 E12 d           2.792  68.796  63.484  0.00  0.00     0.036 H 
ATOM     41  H2  E12 d           2.511  64.905  66.243  0.00  0.00     0.084 H 
ATOM     42  H12 E12 d           2.000  67.418  65.127  0.00  0.00     0.092 H 
ENDBRANCH  19  22
ENDBRANCH  16  19
ENDBRANCH  13  16
ENDBRANCH  10  13
ENDBRANCH   7  10
ENDBRANCH   4   7
ENDBRANCH   1   4
BRANCH   1  43
ATOM     43  C68 E12 d           3.407  62.756  69.196  0.00  0.00    -0.065 C 
ATOM     44  H39 E12 d           3.917  62.178  68.412  0.00  0.00     0.033 H 
ATOM     45  H40 E12 d           2.927  63.640  68.748  0.00  0.00     0.033 H 
BRANCH  43  46
ATOM     46  C69 E12 d           2.326  61.883  69.811  0.00  0.00    -0.065 C 
ATOM     47  H41 E12 d           2.784  61.206  70.548  0.00  0.00     0.033 H 
ATOM     48  H42 E12 d           1.847  61.289  69.018  0.00  0.00     0.033 H 
BRANCH  46  49
ATOM     49  C70 E12 d           1.273  62.732  70.501  0.00  0.00    -0.065 C 
ATOM     50  H43 E12 d           0.336  62.157  70.541  0.00  0.00     0.033 H 
ATOM     51  H44 E12 d           1.119  63.645  69.905  0.00  0.00     0.033 H 
BRANCH  49  52
ATOM     52  C71 E12 d           1.646  63.143  71.922  0.00  0.00    -0.064 C 
ATOM     53  H45 E12 d           1.995  64.186  71.904  0.00  0.00     0.033 H 
ATOM     54  H46 E12 d           2.460  62.490  72.272  0.00  0.00     0.033 H 
BRANCH  52  55
ATOM     55  C72 E12 d           0.473  63.037  72.915  0.00  0.00    -0.043 C 
ATOM     56  H47 E12 d          -0.122  62.149  72.659  0.00  0.00     0.035 H 
ATOM     57  H48 E12 d          -0.150  63.937  72.817  0.00  0.00     0.035 H 
BRANCH  55  58
ATOM     58  C41 E12 d           0.927  62.915  74.375  0.00  0.00     0.083 C 
ATOM     59  H29 E12 d           0.156  62.405  74.971  0.00  0.00     0.075 H 
ATOM     60  H30 E12 d           1.116  63.912  74.798  0.00  0.00     0.075 H 
BRANCH  58  61
ATOM     61  N40 E12 d           2.178  62.117  74.360  0.00  0.00    -0.067 N 
ATOM     62  H27 E12 d           2.763  62.474  75.099  0.00  0.00     0.277 HD
ATOM     63  H28 E12 d           2.621  62.281  73.470  0.00  0.00     0.277 HD
BRANCH  61  64
ATOM     64  C37 E12 d           2.101  60.614  74.546  0.00  0.00     0.129 C 
ATOM     65  C38 E12 d           0.662  60.274  74.988  0.00  0.00    -0.034 C 
ATOM     66  C39 E12 d           0.445  58.757  75.021  0.00  0.00    -0.058 C 
ATOM     67  H23 E12 d          -0.049  60.724  74.278  0.00  0.00     0.036 H 
ATOM     68  H24 E12 d           0.486  60.685  75.993  0.00  0.00     0.036 H 
ATOM     69  C36 E12 d           0.614  58.165  73.610  0.00  0.00    -0.026 C 
ATOM     70  H25 E12 d           1.182  58.300  75.698  0.00  0.00     0.033 H 
ATOM     71  H26 E12 d          -0.571  58.543  75.386  0.00  0.00     0.033 H 
ATOM     72  C31 E12 d           1.931  58.646  72.964  0.00  0.00     0.020 A 
ATOM     73  H20 E12 d           0.628  57.067  73.679  0.00  0.00     0.042 H 
ATOM     74  H21 E12 d          -0.232  58.482  72.982  0.00  0.00     0.042 H 
ATOM     75  C32 E12 d           2.618  59.789  73.371  0.00  0.00    -0.005 A 
ATOM     76  N30 E12 d           2.431  57.902  71.935  0.00  0.00    -0.327 N 
ATOM     77  C33 E12 d           3.872  60.145  72.660  0.00  0.00    -0.068 A 
ATOM     78  C34 E12 d           4.359  59.390  71.636  0.00  0.00    -0.017 A 
ATOM     79  H18 E12 d           4.419  61.036  72.967  0.00  0.00     0.084 H 
ATOM     80  C29 E12 d           3.603  58.142  71.226  0.00  0.00     0.245 A 
ATOM     81  H19 E12 d           5.274  59.678  71.121  0.00  0.00     0.092 H 
ATOM     82  O35 E12 d           4.006  57.320  70.391  0.00  0.00    -0.268 OA
ATOM     83  H17 E12 d           1.898  57.101  71.662  0.00  0.00     0.169 HD
ATOM     84  H22 E12 d           2.760  60.364  75.389  0.00  0.00     0.092 H 
ENDBRANCH  61  64
ENDBRANCH  58  61
ENDBRANCH  55  58
ENDBRANCH  52  55
ENDBRANCH  49  52
ENDBRANCH  46  49
ENDBRANCH  43  46
ENDBRANCH   1  43
TORSDOF 15
ENDMDL
MODEL 3
REMARK VINA RESULT:     -10.0      2.337      8.682
REMARK  15 active torsions:
REMARK  status: ('A' for Active; 'I' for Inactive)
REMARK    1  A    between atoms: C10_11  and  N17_7 
REMARK    2  A    between atoms: N17_7  and  C24_8 
REMARK    3  A    between atoms: C24_8  and  C63_13 
REMARK    4  A    between atoms: C63_13  and  C64_28 
REMARK    5  A    between atoms: N40_26  and  C37_23 
REMARK    6  A    between atoms: C41_27  and  N40_26 
REMARK    7  A    between atoms: C72_36  and  C41_27 
REMARK    8  A    between atoms: C64_28  and  C65_29 
REMARK    9  A    between atoms: C65_29  and  C66_30 
REMARK   10  A    between atoms: C66_30  and  C67_31 
REMARK   11  A    between atoms: C67_31  and  C68_32 
REMARK   12  A    between atoms: C68_32  and  C69_33 
REMARK   13  A    between atoms: C69_33  and  C70_34 
REMARK   14  A    between atoms: C70_34  and  C71_35 
REMARK   15  A    between atoms: C71_35  and  C72_36 
ROOT
ATOM      1  C67 E12 d           0.321  64.469  71.655  0.00  0.00    -0.065 C 
ATOM      2  H37 E12 d           1.049  64.488  72.480  0.00  0.00     0.033 H 
ATOM      3  H38 E12 d          -0.642  64.867  72.007  0.00  0.00     0.033 H 
ENDROOT
BRANCH   1   4
ATOM      4  C66 E12 d           0.120  63.034  71.223  0.00  0.00    -0.065 C 
ATOM      5  H35 E12 d          -0.930  62.890  70.926  0.00  0.00     0.033 H 
ATOM      6  H36 E12 d           0.775  62.821  70.366  0.00  0.00     0.033 H 
BRANCH   4   7
ATOM      7  C65 E12 d           0.450  62.086  72.347  0.00  0.00    -0.065 C 
ATOM      8  H33 E12 d          -0.390  62.069  73.058  0.00  0.00     0.033 H 
ATOM      9  H34 E12 d           0.599  61.078  71.931  0.00  0.00     0.033 H 
BRANCH   7  10
ATOM     10  C64 E12 d           1.712  62.505  73.088  0.00  0.00    -0.064 C 
ATOM     11  H31 E12 d           2.518  62.685  72.361  0.00  0.00     0.033 H 
ATOM     12  H32 E12 d           1.513  63.428  73.650  0.00  0.00     0.033 H 
BRANCH  10  13
ATOM     13  C63 E12 d           2.139  61.419  74.047  0.00  0.00    -0.043 C 
ATOM     14  H15 E12 d           2.564  61.883  74.949  0.00  0.00     0.035 H 
ATOM     15  H16 E12 d           1.261  60.818  74.323  0.00  0.00     0.035 H 
BRANCH  13  16
ATOM     16  C24 E12 d           3.198  60.501  73.408  0.00  0.00     0.083 C 
ATOM     17  H7  E12 d           3.739  59.937  74.181  0.00  0.00     0.075 H 
ATOM     18  H8  E12 d           2.727  59.799  72.703  0.00  0.00     0.075 H 
BRANCH  16  19
ATOM     19  N17 E12 d           4.148  61.455  72.668  0.00  0.00    -0.067 N 
ATOM     20  H5  E12 d           3.721  62.367  72.704  0.00  0.00     0.277 HD
ATOM     21  H6  E12 d           5.007  61.466  73.194  0.00  0.00     0.277 HD
BRANCH  19  22
ATOM     22  C10 E12 d           4.533  61.222  71.227  0.00  0.00     0.129 C 
ATOM     23  C4  E12 d           4.379  62.527  70.416  0.00  0.00    -0.005 A 
ATOM     24  C3  E12 d           3.566  62.596  69.299  0.00  0.00     0.020 A 
ATOM     25  C5  E12 d           5.185  63.736  70.753  0.00  0.00    -0.068 A 
ATOM     26  N2  E12 d           3.491  63.759  68.585  0.00  0.00    -0.327 N 
ATOM     27  C9  E12 d           2.717  61.420  68.799  0.00  0.00    -0.026 C 
ATOM     28  C1  E12 d           4.180  64.938  68.816  0.00  0.00     0.245 A 
ATOM     29  H1  E12 d           2.865  63.758  67.804  0.00  0.00     0.169 HD
ATOM     30  C6  E12 d           5.103  64.894  70.013  0.00  0.00    -0.017 A 
ATOM     31  O7  E12 d           3.994  65.939  68.097  0.00  0.00    -0.268 OA
ATOM     32  H9  E12 d           5.695  65.767  70.287  0.00  0.00     0.092 H 
ATOM     33  C14 E12 d           2.416  60.428  69.937  0.00  0.00    -0.058 C 
ATOM     34  H10 E12 d           3.265  60.896  68.001  0.00  0.00     0.042 H 
ATOM     35  H11 E12 d           1.769  61.807  68.399  0.00  0.00     0.042 H 
ATOM     36  C13 E12 d           3.734  60.013  70.667  0.00  0.00    -0.034 C 
ATOM     37  H3  E12 d           1.736  60.903  70.660  0.00  0.00     0.033 H 
ATOM     38  H4  E12 d           1.936  59.532  69.518  0.00  0.00     0.033 H 
ATOM     39  H13 E12 d           3.475  59.348  71.504  0.00  0.00     0.036 H 
ATOM     40  H14 E12 d           4.373  59.473  69.954  0.00  0.00     0.036 H 
ATOM     41  H2  E12 d           5.856  63.702  71.609  0.00  0.00     0.084 H 
ATOM     42  H12 E12 d           5.598  60.948  71.198  0.00  0.00     0.092 H 
ENDBRANCH  19  22
ENDBRANCH  16  19
ENDBRANCH  13  16
ENDBRANCH  10  13
ENDBRANCH   7  10
ENDBRANCH   4   7
ENDBRANCH   1   4
BRANCH   1  43
ATOM     43  C68 E12 d           0.831  65.358  70.541  0.00  0.00    -0.065 C 
ATOM     44  H39 E12 d           1.535  64.777  69.927  0.00  0.00     0.033 H 
ATOM     45  H40 E12 d           1.356  66.214  70.990  0.00  0.00     0.033 H 
BRANCH  43  46
ATOM     46  C69 E12 d          -0.269  65.889  69.637  0.00  0.00    -0.065 C 
ATOM     47  H41 E12 d          -1.129  66.190  70.254  0.00  0.00     0.033 H 
ATOM     48  H42 E12 d          -0.578  65.096  68.941  0.00  0.00     0.033 H 
BRANCH  46  49
ATOM     49  C70 E12 d           0.217  67.088  68.842  0.00  0.00    -0.065 C 
ATOM     50  H43 E12 d          -0.523  67.895  68.944  0.00  0.00     0.033 H 
ATOM     51  H44 E12 d           0.296  66.793  67.784  0.00  0.00     0.033 H 
BRANCH  49  52
ATOM     52  C71 E12 d           1.574  67.619  69.294  0.00  0.00    -0.064 C 
ATOM     53  H45 E12 d           2.281  66.777  69.342  0.00  0.00     0.033 H 
ATOM     54  H46 E12 d           1.461  68.059  70.296  0.00  0.00     0.033 H 
BRANCH  52  55
ATOM     55  C72 E12 d           2.154  68.691  68.352  0.00  0.00    -0.043 C 
ATOM     56  H47 E12 d           3.241  68.743  68.508  0.00  0.00     0.035 H 
ATOM     57  H48 E12 d           1.701  69.661  68.606  0.00  0.00     0.035 H 
BRANCH  55  58
ATOM     58  C41 E12 d           1.887  68.402  66.871  0.00  0.00     0.083 C 
ATOM     59  H29 E12 d           1.376  69.255  66.403  0.00  0.00     0.075 H 
ATOM     60  H30 E12 d           1.267  67.499  66.766  0.00  0.00     0.075 H 
BRANCH  58  61
ATOM     61  N40 E12 d           3.214  68.189  66.239  0.00  0.00    -0.067 N 
ATOM     62  H27 E12 d           3.663  67.441  66.743  0.00  0.00     0.277 HD
ATOM     63  H28 E12 d           3.738  69.041  66.363  0.00  0.00     0.277 HD
BRANCH  61  64
ATOM     64  C37 E12 d           3.286  67.836  64.766  0.00  0.00     0.129 C 
ATOM     65  C38 E12 d           4.143  68.915  64.071  0.00  0.00    -0.034 C 
ATOM     66  C39 E12 d           4.419  68.536  62.612  0.00  0.00    -0.058 C 
ATOM     67  H23 E12 d           5.100  69.015  64.606  0.00  0.00     0.036 H 
ATOM     68  H24 E12 d           3.606  69.875  64.099  0.00  0.00     0.036 H 
ATOM     69  C36 E12 d           5.234  67.231  62.547  0.00  0.00    -0.026 C 
ATOM     70  H25 E12 d           3.464  68.395  62.086  0.00  0.00     0.033 H 
ATOM     71  H26 E12 d           4.989  69.344  62.129  0.00  0.00     0.033 H 
ATOM     72  C31 E12 d           4.588  66.134  63.420  0.00  0.00     0.020 A 
ATOM     73  H20 E12 d           5.274  66.883  61.505  0.00  0.00     0.042 H 
ATOM     74  H21 E12 d           6.254  67.424  62.909  0.00  0.00     0.042 H 
ATOM     75  C32 E12 d           3.703  66.399  64.464  0.00  0.00    -0.005 A 
ATOM     76  N30 E12 d           4.918  64.840  63.144  0.00  0.00    -0.327 N 
ATOM     77  C33 E12 d           3.156  65.251  65.232  0.00  0.00    -0.068 A 
ATOM     78  C34 E12 d           3.496  63.964  64.941  0.00  0.00    -0.017 A 
ATOM     79  H18 E12 d           2.465  65.445  66.051  0.00  0.00     0.084 H 
ATOM     80  C29 E12 d           4.445  63.702  63.789  0.00  0.00     0.245 A 
ATOM     81  H19 E12 d           3.092  63.139  65.526  0.00  0.00     0.092 H 
ATOM     82  O35 E12 d           4.734  62.577  63.361  0.00  0.00    -0.268 OA
ATOM     83  H17 E12 d           5.570  64.693  62.399  0.00  0.00     0.169 HD
ATOM     84  H22 E12 d           2.266  67.933  64.367  0.00  0.00     0.092 H 
ENDBRANCH  61  64
ENDBRANCH  58  61
ENDBRANCH  55  58
ENDBRANCH  52  55
ENDBRANCH  49  52
ENDBRANCH  46  49
ENDBRANCH  43  46
ENDBRANCH   1  43
TORSDOF 15
ENDMDL
MODEL 4
REMARK VINA RESULT:      -9.8      2.536      4.722
REMARK  15 active torsions:
REMARK  status: ('A' for Active; 'I' for Inactive)
REMARK    1  A    between atoms: C10_11  and  N17_7 
REMARK    2  A    between atoms: N17_7  and  C24_8 
REMARK    3  A    between atoms: C24_8  and  C63_13 
REMARK    4  A    between atoms: C63_13  and  C64_28 
REMARK    5  A    between atoms: N40_26  and  C37_23 
REMARK    6  A    between atoms: C41_27  and  N40_26 
REMARK    7  A    between atoms: C72_36  and  C41_27 
REMARK    8  A    between atoms: C64_28  and  C65_29 
REMARK    9  A    between atoms: C65_29  and  C66_30 
REMARK   10  A    between atoms: C66_30  and  C67_31 
REMARK   11  A    between atoms: C67_31  and  C68_32 
REMARK   12  A    between atoms: C68_32  and  C69_33 
REMARK   13  A    between atoms: C69_33  and  C70_34 
REMARK   14  A    between atoms: C70_34  and  C71_35 
REMARK   15  A    between atoms: C71_35  and  C72_36 
ROOT
ATOM      1  C67 E12 d           4.387  63.343  70.234  0.00  0.00    -0.065 C 
ATOM      2  H37 E12 d           3.847  63.417  71.190  0.00  0.00     0.033 H 
ATOM      3  H38 E12 d           5.228  62.643  70.342  0.00  0.00     0.033 H 
ENDROOT
BRANCH   1   4
ATOM      4  C66 E12 d           4.936  64.707  69.883  0.00  0.00    -0.065 C 
ATOM      5  H35 E12 d           5.740  64.965  70.589  0.00  0.00     0.033 H 
ATOM      6  H36 E12 d           5.340  64.682  68.861  0.00  0.00     0.033 H 
BRANCH   4   7
ATOM      7  C65 E12 d           3.854  65.755  69.962  0.00  0.00    -0.065 C 
ATOM      8  H33 E12 d           2.903  65.267  70.221  0.00  0.00     0.033 H 
ATOM      9  H34 E12 d           4.119  66.482  70.743  0.00  0.00     0.033 H 
BRANCH   7  10
ATOM     10  C64 E12 d           3.684  66.492  68.641  0.00  0.00    -0.064 C 
ATOM     11  H31 E12 d           4.648  66.931  68.343  0.00  0.00     0.033 H 
ATOM     12  H32 E12 d           3.351  65.783  67.870  0.00  0.00     0.033 H 
BRANCH  10  13
ATOM     13  C63 E12 d           2.659  67.591  68.784  0.00  0.00    -0.043 C 
ATOM     14  H15 E12 d           1.678  67.142  69.000  0.00  0.00     0.035 H 
ATOM     15  H16 E12 d           2.951  68.249  69.615  0.00  0.00     0.035 H 
BRANCH  13  16
ATOM     16  C24 E12 d           2.557  68.425  67.494  0.00  0.00     0.083 C 
ATOM     17  H7  E12 d           1.528  68.412  67.104  0.00  0.00     0.075 H 
ATOM     18  H8  E12 d           2.865  69.465  67.678  0.00  0.00     0.075 H 
BRANCH  16  19
ATOM     19  N17 E12 d           3.519  67.741  66.509  0.00  0.00    -0.067 N 
ATOM     20  H5  E12 d           4.339  68.325  66.461  0.00  0.00     0.277 HD
ATOM     21  H6  E12 d           3.761  66.853  66.919  0.00  0.00     0.277 HD
BRANCH  19  22
ATOM     22  C10 E12 d           3.114  67.457  65.083  0.00  0.00     0.129 C 
ATOM     23  C4  E12 d           3.638  66.072  64.646  0.00  0.00    -0.005 A 
ATOM     24  C3  E12 d           4.461  65.922  63.545  0.00  0.00     0.020 A 
ATOM     25  C5  E12 d           3.190  64.831  65.341  0.00  0.00    -0.068 A 
ATOM     26  N2  E12 d           4.869  64.673  63.167  0.00  0.00    -0.327 N 
ATOM     27  C9  E12 d           4.963  67.099  62.699  0.00  0.00    -0.026 C 
ATOM     28  C1  E12 d           4.526  63.462  63.746  0.00  0.00     0.245 A 
ATOM     29  H1  E12 d           5.486  64.628  62.381  0.00  0.00     0.169 HD
ATOM     30  C6  E12 d           3.603  63.581  64.937  0.00  0.00    -0.017 A 
ATOM     31  O7  E12 d           4.996  62.391  63.314  0.00  0.00    -0.268 OA
ATOM     32  H9  E12 d           3.269  62.691  65.469  0.00  0.00     0.092 H 
ATOM     33  C14 E12 d           4.956  68.408  63.510  0.00  0.00    -0.058 C 
ATOM     34  H10 E12 d           4.309  67.215  61.823  0.00  0.00     0.042 H 
ATOM     35  H11 E12 d           5.989  66.889  62.365  0.00  0.00     0.042 H 
ATOM     36  C13 E12 d           3.560  68.635  64.174  0.00  0.00    -0.034 C 
ATOM     37  H3  E12 d           5.725  68.352  64.294  0.00  0.00     0.033 H 
ATOM     38  H4  E12 d           5.178  69.250  62.838  0.00  0.00     0.033 H 
ATOM     39  H13 E12 d           3.608  69.549  64.785  0.00  0.00     0.036 H 
ATOM     40  H14 E12 d           2.811  68.765  63.379  0.00  0.00     0.036 H 
ATOM     41  H2  E12 d           2.517  64.915  66.193  0.00  0.00     0.084 H 
ATOM     42  H12 E12 d           2.015  67.414  65.042  0.00  0.00     0.092 H 
ENDBRANCH  19  22
ENDBRANCH  16  19
ENDBRANCH  13  16
ENDBRANCH  10  13
ENDBRANCH   7  10
ENDBRANCH   4   7
ENDBRANCH   1   4
BRANCH   1  43
ATOM     43  C68 E12 d           3.438  62.799  69.187  0.00  0.00    -0.065 C 
ATOM     44  H39 E12 d           3.820  63.076  68.194  0.00  0.00     0.033 H 
ATOM     45  H40 E12 d           2.449  63.256  69.340  0.00  0.00     0.033 H 
BRANCH  43  46
ATOM     46  C69 E12 d           3.283  61.288  69.237  0.00  0.00    -0.065 C 
ATOM     47  H41 E12 d           3.437  60.876  68.229  0.00  0.00     0.033 H 
ATOM     48  H42 E12 d           2.269  61.041  69.582  0.00  0.00     0.033 H 
BRANCH  46  49
ATOM     49  C70 E12 d           4.296  60.673  70.187  0.00  0.00    -0.065 C 
ATOM     50  H43 E12 d           4.675  61.465  70.849  0.00  0.00     0.033 H 
ATOM     51  H44 E12 d           5.125  60.263  69.592  0.00  0.00     0.033 H 
BRANCH  49  52
ATOM     52  C71 E12 d           3.727  59.553  71.054  0.00  0.00    -0.064 C 
ATOM     53  H45 E12 d           4.124  58.594  70.690  0.00  0.00     0.033 H 
ATOM     54  H46 E12 d           2.631  59.557  70.956  0.00  0.00     0.033 H 
BRANCH  52  55
ATOM     55  C72 E12 d           4.084  59.696  72.546  0.00  0.00    -0.043 C 
ATOM     56  H47 E12 d           4.423  60.726  72.727  0.00  0.00     0.035 H 
ATOM     57  H48 E12 d           4.900  58.996  72.779  0.00  0.00     0.035 H 
BRANCH  55  58
ATOM     58  C41 E12 d           2.905  59.400  73.480  0.00  0.00     0.083 C 
ATOM     59  H29 E12 d           2.653  60.294  74.069  0.00  0.00     0.075 H 
ATOM     60  H30 E12 d           3.158  58.573  74.160  0.00  0.00     0.075 H 
BRANCH  58  61
ATOM     61  N40 E12 d           1.765  59.019  72.609  0.00  0.00    -0.067 N 
ATOM     62  H27 E12 d           1.696  58.014  72.639  0.00  0.00     0.277 HD
ATOM     63  H28 E12 d           1.998  59.313  71.674  0.00  0.00     0.277 HD
BRANCH  61  64
ATOM     64  C37 E12 d           0.384  59.566  72.914  0.00  0.00     0.129 C 
ATOM     65  C38 E12 d          -0.108  58.888  74.210  0.00  0.00    -0.034 C 
ATOM     66  C39 E12 d          -1.420  59.518  74.691  0.00  0.00    -0.058 C 
ATOM     67  H23 E12 d           0.657  59.007  74.992  0.00  0.00     0.036 H 
ATOM     68  H24 E12 d          -0.273  57.818  74.017  0.00  0.00     0.036 H 
ATOM     69  C36 E12 d          -1.201  61.002  75.037  0.00  0.00    -0.026 C 
ATOM     70  H25 E12 d          -2.175  59.438  73.895  0.00  0.00     0.033 H 
ATOM     71  H26 E12 d          -1.773  58.984  75.586  0.00  0.00     0.033 H 
ATOM     72  C31 E12 d          -0.480  61.737  73.887  0.00  0.00     0.020 A 
ATOM     73  H20 E12 d          -2.177  61.479  75.212  0.00  0.00     0.042 H 
ATOM     74  H21 E12 d          -0.590  61.073  75.949  0.00  0.00     0.042 H 
ATOM     75  C32 E12 d           0.275  61.089  72.910  0.00  0.00    -0.005 A 
ATOM     76  N30 E12 d          -0.594  63.095  73.844  0.00  0.00    -0.327 N 
ATOM     77  C33 E12 d           0.924  61.914  71.861  0.00  0.00    -0.068 A 
ATOM     78  C34 E12 d           0.798  63.270  71.831  0.00  0.00    -0.017 A 
ATOM     79  H18 E12 d           1.518  61.421  71.092  0.00  0.00     0.084 H 
ATOM     80  C29 E12 d          -0.044  63.949  72.893  0.00  0.00     0.245 A 
ATOM     81  H19 E12 d           1.293  63.857  71.059  0.00  0.00     0.092 H 
ATOM     82  O35 E12 d          -0.324  65.155  72.902  0.00  0.00    -0.268 OA
ATOM     83  H17 E12 d          -1.130  63.523  74.573  0.00  0.00     0.169 HD
ATOM     84  H22 E12 d          -0.277  59.226  72.105  0.00  0.00     0.092 H 
ENDBRANCH  61  64
ENDBRANCH  58  61
ENDBRANCH  55  58
ENDBRANCH  52  55
ENDBRANCH  49  52
ENDBRANCH  46  49
ENDBRANCH  43  46
ENDBRANCH   1  43
TORSDOF 15
ENDMDL
MODEL 5
REMARK VINA RESULT:      -9.8      2.575      4.660
REMARK  15 active torsions:
REMARK  status: ('A' for Active; 'I' for Inactive)
REMARK    1  A    between atoms: C10_11  and  N17_7 
REMARK    2  A    between atoms: N17_7  and  C24_8 
REMARK    3  A    between atoms: C24_8  and  C63_13 
REMARK    4  A    between atoms: C63_13  and  C64_28 
REMARK    5  A    between atoms: N40_26  and  C37_23 
REMARK    6  A    between atoms: C41_27  and  N40_26 
REMARK    7  A    between atoms: C72_36  and  C41_27 
REMARK    8  A    between atoms: C64_28  and  C65_29 
REMARK    9  A    between atoms: C65_29  and  C66_30 
REMARK   10  A    between atoms: C66_30  and  C67_31 
REMARK   11  A    between atoms: C67_31  and  C68_32 
REMARK   12  A    between atoms: C68_32  and  C69_33 
REMARK   13  A    between atoms: C69_33  and  C70_34 
REMARK   14  A    between atoms: C70_34  and  C71_35 
REMARK   15  A    between atoms: C71_35  and  C72_36 
ROOT
ATOM      1  C67 E12 d           4.017  65.492  69.986  0.00  0.00    -0.065 C 
ATOM      2  H37 E12 d           4.208  66.108  70.877  0.00  0.00     0.033 H 
ATOM      3  H38 E12 d           4.217  66.084  69.080  0.00  0.00     0.033 H 
ENDROOT
BRANCH   1   4
ATOM      4  C66 E12 d           2.561  65.085  69.983  0.00  0.00    -0.065 C 
ATOM      5  H35 E12 d           2.356  64.481  69.086  0.00  0.00     0.033 H 
ATOM      6  H36 E12 d           2.352  64.487  70.883  0.00  0.00     0.033 H 
BRANCH   4   7
ATOM      7  C65 E12 d           1.666  66.299  69.977  0.00  0.00    -0.065 C 
ATOM      8  H33 E12 d           0.827  66.120  69.289  0.00  0.00     0.033 H 
ATOM      9  H34 E12 d           1.279  66.461  70.994  0.00  0.00     0.033 H 
BRANCH   7  10
ATOM     10  C64 E12 d           2.412  67.548  69.529  0.00  0.00    -0.064 C 
ATOM     11  H31 E12 d           2.470  68.258  70.368  0.00  0.00     0.033 H 
ATOM     12  H32 E12 d           3.428  67.271  69.213  0.00  0.00     0.033 H 
BRANCH  10  13
ATOM     13  C63 E12 d           1.691  68.200  68.373  0.00  0.00    -0.043 C 
ATOM     14  H15 E12 d           1.031  67.460  67.897  0.00  0.00     0.035 H 
ATOM     15  H16 E12 d           1.088  69.038  68.752  0.00  0.00     0.035 H 
BRANCH  13  16
ATOM     16  C24 E12 d           2.689  68.730  67.327  0.00  0.00     0.083 C 
ATOM     17  H7  E12 d           2.188  69.413  66.625  0.00  0.00     0.075 H 
ATOM     18  H8  E12 d           3.522  69.256  67.817  0.00  0.00     0.075 H 
BRANCH  16  19
ATOM     19  N17 E12 d           3.193  67.476  66.597  0.00  0.00    -0.067 N 
ATOM     20  H5  E12 d           4.199  67.499  66.654  0.00  0.00     0.277 HD
ATOM     21  H6  E12 d           2.845  66.685  67.116  0.00  0.00     0.277 HD
BRANCH  19  22
ATOM     22  C10 E12 d           2.855  67.219  65.148  0.00  0.00     0.129 C 
ATOM     23  C4  E12 d           3.483  65.887  64.682  0.00  0.00    -0.005 A 
ATOM     24  C3  E12 d           4.349  65.831  63.606  0.00  0.00     0.020 A 
ATOM     25  C5  E12 d           3.096  64.595  65.318  0.00  0.00    -0.068 A 
ATOM     26  N2  E12 d           4.850  64.627  63.199  0.00  0.00    -0.327 N 
ATOM     27  C9  E12 d           4.799  67.069  62.819  0.00  0.00    -0.026 C 
ATOM     28  C1  E12 d           4.570  63.376  63.724  0.00  0.00     0.245 A 
ATOM     29  H1  E12 d           5.494  64.651  62.434  0.00  0.00     0.169 HD
ATOM     30  C6  E12 d           3.603  63.390  64.886  0.00  0.00    -0.017 A 
ATOM     31  O7  E12 d           5.123  62.354  63.271  0.00  0.00    -0.268 OA
ATOM     32  H9  E12 d           3.312  62.461  65.374  0.00  0.00     0.092 H 
ATOM     33  C14 E12 d           4.679  68.344  63.673  0.00  0.00    -0.058 C 
ATOM     34  H10 E12 d           4.167  67.175  61.925  0.00  0.00     0.042 H 
ATOM     35  H11 E12 d           5.847  66.939  62.513  0.00  0.00     0.042 H 
ATOM     36  C13 E12 d           3.251  68.455  64.297  0.00  0.00    -0.034 C 
ATOM     37  H3  E12 d           5.425  68.310  64.481  0.00  0.00     0.033 H 
ATOM     38  H4  E12 d           4.867  69.223  63.039  0.00  0.00     0.033 H 
ATOM     39  H13 E12 d           3.218  69.348  64.940  0.00  0.00     0.036 H 
ATOM     40  H14 E12 d           2.521  68.566  63.481  0.00  0.00     0.036 H 
ATOM     41  H2  E12 d           2.392  64.604  66.149  0.00  0.00     0.084 H 
ATOM     42  H12 E12 d           1.763  67.105  65.068  0.00  0.00     0.092 H 
ENDBRANCH  19  22
ENDBRANCH  16  19
ENDBRANCH  13  16
ENDBRANCH  10  13
ENDBRANCH   7  10
ENDBRANCH   4   7
ENDBRANCH   1   4
BRANCH   1  43
ATOM     43  C68 E12 d           4.963  64.310  70.007  0.00  0.00    -0.065 C 
ATOM     44  H39 E12 d           5.689  64.459  70.819  0.00  0.00     0.033 H 
ATOM     45  H40 E12 d           5.493  64.269  69.044  0.00  0.00     0.033 H 
BRANCH  43  46
ATOM     46  C69 E12 d           4.263  62.979  70.227  0.00  0.00    -0.065 C 
ATOM     47  H41 E12 d           4.299  62.394  69.296  0.00  0.00     0.033 H 
ATOM     48  H42 E12 d           3.215  63.163  70.504  0.00  0.00     0.033 H 
BRANCH  46  49
ATOM     49  C70 E12 d           4.939  62.192  71.337  0.00  0.00    -0.065 C 
ATOM     50  H43 E12 d           4.334  62.292  72.251  0.00  0.00     0.033 H 
ATOM     51  H44 E12 d           5.938  62.621  71.508  0.00  0.00     0.033 H 
BRANCH  49  52
ATOM     52  C71 E12 d           5.101  60.706  71.029  0.00  0.00    -0.064 C 
ATOM     53  H45 E12 d           4.886  60.134  71.944  0.00  0.00     0.033 H 
ATOM     54  H46 E12 d           6.140  60.525  70.718  0.00  0.00     0.033 H 
BRANCH  52  55
ATOM     55  C72 E12 d           4.163  60.210  69.911  0.00  0.00    -0.043 C 
ATOM     56  H47 E12 d           4.748  60.097  68.988  0.00  0.00     0.035 H 
ATOM     57  H48 E12 d           3.375  60.961  69.757  0.00  0.00     0.035 H 
BRANCH  55  58
ATOM     58  C41 E12 d           3.498  58.866  70.233  0.00  0.00     0.083 C 
ATOM     59  H29 E12 d           4.177  58.037  69.984  0.00  0.00     0.075 H 
ATOM     60  H30 E12 d           2.563  58.759  69.664  0.00  0.00     0.075 H 
BRANCH  58  61
ATOM     61  N40 E12 d           3.214  58.877  71.690  0.00  0.00    -0.067 N 
ATOM     62  H27 E12 d           3.621  59.720  72.063  0.00  0.00     0.277 HD
ATOM     63  H28 E12 d           3.680  58.075  72.086  0.00  0.00     0.277 HD
BRANCH  61  64
ATOM     64  C37 E12 d           1.775  58.832  72.166  0.00  0.00     0.129 C 
ATOM     65  C38 E12 d           1.663  57.692  73.200  0.00  0.00    -0.034 C 
ATOM     66  C39 E12 d           0.283  57.695  73.868  0.00  0.00    -0.058 C 
ATOM     67  H23 E12 d           2.437  57.828  73.971  0.00  0.00     0.036 H 
ATOM     68  H24 E12 d           1.816  56.728  72.693  0.00  0.00     0.036 H 
ATOM     69  C36 E12 d           0.072  59.007  74.646  0.00  0.00    -0.026 C 
ATOM     70  H25 E12 d          -0.494  57.602  73.095  0.00  0.00     0.033 H 
ATOM     71  H26 E12 d           0.214  56.845  74.562  0.00  0.00     0.033 H 
ATOM     72  C31 E12 d           0.399  60.230  73.764  0.00  0.00     0.020 A 
ATOM     73  H20 E12 d          -0.977  59.068  74.970  0.00  0.00     0.042 H 
ATOM     74  H21 E12 d           0.729  59.013  75.527  0.00  0.00     0.042 H 
ATOM     75  C32 E12 d           1.203  60.170  72.626  0.00  0.00    -0.005 A 
ATOM     76  N30 E12 d          -0.132  61.430  74.137  0.00  0.00    -0.327 N 
ATOM     77  C33 E12 d           1.445  61.423  71.868  0.00  0.00    -0.068 A 
ATOM     78  C34 E12 d           0.905  62.613  72.254  0.00  0.00    -0.017 A 
ATOM     79  H18 E12 d           2.072  61.391  70.979  0.00  0.00     0.084 H 
ATOM     80  C29 E12 d           0.019  62.649  73.483  0.00  0.00     0.245 A 
ATOM     81  H19 E12 d           1.106  63.523  71.690  0.00  0.00     0.092 H 
ATOM     82  O35 E12 d          -0.616  63.642  73.862  0.00  0.00    -0.268 OA
ATOM     83  H17 E12 d          -0.688  61.434  74.968  0.00  0.00     0.169 HD
ATOM     84  H22 E12 d           1.165  58.537  71.300  0.00  0.00     0.092 H 
ENDBRANCH  61  64
ENDBRANCH  58  61
ENDBRANCH  55  58
ENDBRANCH  52  55
ENDBRANCH  49  52
ENDBRANCH  46  49
ENDBRANCH  43  46
ENDBRANCH   1  43
TORSDOF 15
ENDMDL
MODEL 6
REMARK VINA RESULT:      -9.8      1.513      2.329
REMARK  15 active torsions:
REMARK  status: ('A' for Active; 'I' for Inactive)
REMARK    1  A    between atoms: C10_11  and  N17_7 
REMARK    2  A    between atoms: N17_7  and  C24_8 
REMARK    3  A    between atoms: C24_8  and  C63_13 
REMARK    4  A    between atoms: C63_13  and  C64_28 
REMARK    5  A    between atoms: N40_26  and  C37_23 
REMARK    6  A    between atoms: C41_27  and  N40_26 
REMARK    7  A    between atoms: C72_36  and  C41_27 
REMARK    8  A    between atoms: C64_28  and  C65_29 
REMARK    9  A    between atoms: C65_29  and  C66_30 
REMARK   10  A    between atoms: C66_30  and  C67_31 
REMARK   11  A    between atoms: C67_31  and  C68_32 
REMARK   12  A    between atoms: C68_32  and  C69_33 
REMARK   13  A    between atoms: C69_33  and  C70_34 
REMARK   14  A    between atoms: C70_34  and  C71_35 
REMARK   15  A    between atoms: C71_35  and  C72_36 
ROOT
ATOM      1  C67 E12 d           4.047  63.850  70.319  0.00  0.00    -0.065 C 
ATOM      2  H37 E12 d           3.222  64.424  70.768  0.00  0.00     0.033 H 
ATOM      3  H38 E12 d           4.571  63.285  71.103  0.00  0.00     0.033 H 
ENDROOT
BRANCH   1   4
ATOM      4  C66 E12 d           5.022  64.820  69.691  0.00  0.00    -0.065 C 
ATOM      5  H35 E12 d           5.483  65.431  70.481  0.00  0.00     0.033 H 
ATOM      6  H36 E12 d           5.804  64.254  69.162  0.00  0.00     0.033 H 
BRANCH   4   7
ATOM      7  C65 E12 d           4.319  65.726  68.711  0.00  0.00    -0.065 C 
ATOM      8  H33 E12 d           3.334  65.297  68.473  0.00  0.00     0.033 H 
ATOM      9  H34 E12 d           4.187  66.715  69.173  0.00  0.00     0.033 H 
BRANCH   7  10
ATOM     10  C64 E12 d           5.111  65.887  67.421  0.00  0.00    -0.064 C 
ATOM     11  H31 E12 d           5.236  66.958  67.202  0.00  0.00     0.033 H 
ATOM     12  H32 E12 d           6.099  65.419  67.541  0.00  0.00     0.033 H 
BRANCH  10  13
ATOM     13  C63 E12 d           4.382  65.225  66.276  0.00  0.00    -0.043 C 
ATOM     14  H15 E12 d           4.685  64.169  66.218  0.00  0.00     0.035 H 
ATOM     15  H16 E12 d           3.299  65.286  66.456  0.00  0.00     0.035 H 
BRANCH  13  16
ATOM     16  C24 E12 d           4.710  65.916  64.939  0.00  0.00     0.083 C 
ATOM     17  H7  E12 d           5.578  65.440  64.460  0.00  0.00     0.075 H 
ATOM     18  H8  E12 d           3.846  65.872  64.258  0.00  0.00     0.075 H 
BRANCH  16  19
ATOM     19  N17 E12 d           5.028  67.370  65.318  0.00  0.00    -0.067 N 
ATOM     20  H5  E12 d           5.043  67.405  66.325  0.00  0.00     0.277 HD
ATOM     21  H6  E12 d           5.951  67.562  64.960  0.00  0.00     0.277 HD
BRANCH  19  22
ATOM     22  C10 E12 d           4.149  68.512  64.865  0.00  0.00     0.129 C 
ATOM     23  C4  E12 d           2.685  68.256  65.284  0.00  0.00    -0.005 A 
ATOM     24  C3  E12 d           1.660  68.221  64.356  0.00  0.00     0.020 A 
ATOM     25  C5  E12 d           2.311  68.137  66.723  0.00  0.00    -0.068 A 
ATOM     26  N2  E12 d           0.372  68.034  64.773  0.00  0.00    -0.327 N 
ATOM     27  C9  E12 d           1.883  68.380  62.847  0.00  0.00    -0.026 C 
ATOM     28  C1  E12 d          -0.082  67.900  66.075  0.00  0.00     0.245 A 
ATOM     29  H1  E12 d          -0.323  67.989  64.055  0.00  0.00     0.169 HD
ATOM     30  C6  E12 d           1.006  67.961  67.123  0.00  0.00    -0.017 A 
ATOM     31  O7  E12 d          -1.290  67.705  66.314  0.00  0.00    -0.268 OA
ATOM     32  H9  E12 d           0.760  67.867  68.180  0.00  0.00     0.092 H 
ATOM     33  C14 E12 d           3.320  67.994  62.453  0.00  0.00    -0.058 C 
ATOM     34  H10 E12 d           1.702  69.428  62.566  0.00  0.00     0.042 H 
ATOM     35  H11 E12 d           1.177  67.730  62.310  0.00  0.00     0.042 H 
ATOM     36  C13 E12 d           4.356  68.753  63.345  0.00  0.00    -0.034 C 
ATOM     37  H3  E12 d           3.453  66.911  62.586  0.00  0.00     0.033 H 
ATOM     38  H4  E12 d           3.490  68.258  61.399  0.00  0.00     0.033 H 
ATOM     39  H13 E12 d           5.366  68.414  63.072  0.00  0.00     0.036 H 
ATOM     40  H14 E12 d           4.265  69.830  63.147  0.00  0.00     0.036 H 
ATOM     41  H2  E12 d           3.092  68.191  67.479  0.00  0.00     0.084 H 
ATOM     42  H12 E12 d           4.479  69.423  65.386  0.00  0.00     0.092 H 
ENDBRANCH  19  22
ENDBRANCH  16  19
ENDBRANCH  13  16
ENDBRANCH  10  13
ENDBRANCH   7  10
ENDBRANCH   4   7
ENDBRANCH   1   4
BRANCH   1  43
ATOM     43  C68 E12 d           3.464  62.868  69.324  0.00  0.00    -0.065 C 
ATOM     44  H39 E12 d           4.220  62.097  69.114  0.00  0.00     0.033 H 
ATOM     45  H40 E12 d           3.226  63.410  68.397  0.00  0.00     0.033 H 
BRANCH  43  46
ATOM     46  C69 E12 d           2.202  62.182  69.819  0.00  0.00    -0.065 C 
ATOM     47  H41 E12 d           2.466  61.200  70.239  0.00  0.00     0.033 H 
ATOM     48  H42 E12 d           1.511  62.045  68.974  0.00  0.00     0.033 H 
BRANCH  46  49
ATOM     49  C70 E12 d           1.520  63.015  70.890  0.00  0.00    -0.065 C 
ATOM     50  H43 E12 d           1.614  64.077  70.615  0.00  0.00     0.033 H 
ATOM     51  H44 E12 d           2.032  62.837  71.847  0.00  0.00     0.033 H 
BRANCH  49  52
ATOM     52  C71 E12 d           0.038  62.695  71.070  0.00  0.00    -0.064 C 
ATOM     53  H45 E12 d          -0.317  62.172  70.170  0.00  0.00     0.033 H 
ATOM     54  H46 E12 d          -0.512  63.641  71.186  0.00  0.00     0.033 H 
BRANCH  52  55
ATOM     55  C72 E12 d          -0.249  61.809  72.296  0.00  0.00    -0.043 C 
ATOM     56  H47 E12 d          -0.231  60.756  71.979  0.00  0.00     0.035 H 
ATOM     57  H48 E12 d          -1.248  62.059  72.682  0.00  0.00     0.035 H 
BRANCH  55  58
ATOM     58  C41 E12 d           0.770  61.994  73.427  0.00  0.00     0.083 C 
ATOM     59  H29 E12 d           0.567  62.927  73.973  0.00  0.00     0.075 H 
ATOM     60  H30 E12 d           1.790  62.023  73.018  0.00  0.00     0.075 H 
BRANCH  58  61
ATOM     61  N40 E12 d           0.611  60.826  74.330  0.00  0.00    -0.067 N 
ATOM     62  H27 E12 d          -0.352  60.537  74.270  0.00  0.00     0.277 HD
ATOM     63  H28 E12 d           0.809  61.148  75.264  0.00  0.00     0.277 HD
BRANCH  61  64
ATOM     64  C37 E12 d           1.459  59.590  74.099  0.00  0.00     0.129 C 
ATOM     65  C38 E12 d           0.507  58.444  73.695  0.00  0.00    -0.034 C 
ATOM     66  C39 E12 d           1.299  57.204  73.265  0.00  0.00    -0.058 C 
ATOM     67  H23 E12 d          -0.123  58.778  72.856  0.00  0.00     0.036 H 
ATOM     68  H24 E12 d          -0.131  58.185  74.553  0.00  0.00     0.036 H 
ATOM     69  C36 E12 d           2.148  57.520  72.020  0.00  0.00    -0.026 C 
ATOM     70  H25 E12 d           1.961  56.893  74.087  0.00  0.00     0.033 H 
ATOM     71  H26 E12 d           0.599  56.389  73.030  0.00  0.00     0.033 H 
ATOM     72  C31 E12 d           2.971  58.810  72.226  0.00  0.00     0.020 A 
ATOM     73  H20 E12 d           2.835  56.682  71.830  0.00  0.00     0.042 H 
ATOM     74  H21 E12 d           1.483  57.652  71.154  0.00  0.00     0.042 H 
ATOM     75  C32 E12 d           2.652  59.787  73.169  0.00  0.00    -0.005 A 
ATOM     76  N30 E12 d           4.063  58.989  71.430  0.00  0.00    -0.327 N 
ATOM     77  C33 E12 d           3.524  60.985  73.261  0.00  0.00    -0.068 A 
ATOM     78  C34 E12 d           4.613  61.147  72.459  0.00  0.00    -0.017 A 
ATOM     79  H18 E12 d           3.285  61.757  73.992  0.00  0.00     0.084 H 
ATOM     80  C29 E12 d           4.948  60.062  71.456  0.00  0.00     0.245 A 
ATOM     81  H19 E12 d           5.230  62.041  72.536  0.00  0.00     0.092 H 
ATOM     82  O35 E12 d           5.970  60.044  70.757  0.00  0.00    -0.268 OA
ATOM     83  H17 E12 d           4.247  58.274  70.755  0.00  0.00     0.169 HD
ATOM     84  H22 E12 d           1.891  59.316  75.073  0.00  0.00     0.092 H 
ENDBRANCH  61  64
ENDBRANCH  58  61
ENDBRANCH  55  58
ENDBRANCH  52  55
ENDBRANCH  49  52
ENDBRANCH  46  49
ENDBRANCH  43  46
ENDBRANCH   1  43
TORSDOF 15
ENDMDL
MODEL 7
REMARK VINA RESULT:      -9.7      2.353      4.595
REMARK  15 active torsions:
REMARK  status: ('A' for Active; 'I' for Inactive)
REMARK    1  A    between atoms: C10_11  and  N17_7 
REMARK    2  A    between atoms: N17_7  and  C24_8 
REMARK    3  A    between atoms: C24_8  and  C63_13 
REMARK    4  A    between atoms: C63_13  and  C64_28 
REMARK    5  A    between atoms: N40_26  and  C37_23 
REMARK    6  A    between atoms: C41_27  and  N40_26 
REMARK    7  A    between atoms: C72_36  and  C41_27 
REMARK    8  A    between atoms: C64_28  and  C65_29 
REMARK    9  A    between atoms: C65_29  and  C66_30 
REMARK   10  A    between atoms: C66_30  and  C67_31 
REMARK   11  A    between atoms: C67_31  and  C68_32 
REMARK   12  A    between atoms: C68_32  and  C69_33 
REMARK   13  A    between atoms: C69_33  and  C70_34 
REMARK   14  A    between atoms: C70_34  and  C71_35 
REMARK   15  A    between atoms: C71_35  and  C72_36 
ROOT
ATOM      1  C67 E12 d           0.225  65.724  70.391  0.00  0.00    -0.065 C 
ATOM      2  H37 E12 d          -0.345  65.411  69.504  0.00  0.00     0.033 H 
ATOM      3  H38 E12 d          -0.194  66.662  70.784  0.00  0.00     0.033 H 
ENDROOT
BRANCH   1   4
ATOM      4  C66 E12 d           1.659  65.972  69.980  0.00  0.00    -0.065 C 
ATOM      5  H35 E12 d           2.330  65.586  70.761  0.00  0.00     0.033 H 
ATOM      6  H36 E12 d           1.858  65.449  69.034  0.00  0.00     0.033 H 
BRANCH   4   7
ATOM      7  C65 E12 d           1.913  67.447  69.793  0.00  0.00    -0.065 C 
ATOM      8  H33 E12 d           1.463  67.996  70.634  0.00  0.00     0.033 H 
ATOM      9  H34 E12 d           2.999  67.622  69.781  0.00  0.00     0.033 H 
BRANCH   7  10
ATOM     10  C64 E12 d           1.316  67.963  68.491  0.00  0.00    -0.064 C 
ATOM     11  H31 E12 d           1.249  67.136  67.769  0.00  0.00     0.033 H 
ATOM     12  H32 E12 d           0.310  68.362  68.687  0.00  0.00     0.033 H 
BRANCH  10  13
ATOM     13  C63 E12 d           2.184  69.058  67.917  0.00  0.00    -0.043 C 
ATOM     14  H15 E12 d           1.540  69.846  67.501  0.00  0.00     0.035 H 
ATOM     15  H16 E12 d           2.808  69.480  68.719  0.00  0.00     0.035 H 
BRANCH  13  16
ATOM     16  C24 E12 d           3.097  68.513  66.803  0.00  0.00     0.083 C 
ATOM     17  H7  E12 d           3.220  69.259  66.005  0.00  0.00     0.075 H 
ATOM     18  H8  E12 d           4.083  68.242  67.208  0.00  0.00     0.075 H 
BRANCH  16  19
ATOM     19  N17 E12 d           2.367  67.269  66.273  0.00  0.00    -0.067 N 
ATOM     20  H5  E12 d           2.808  66.473  66.709  0.00  0.00     0.277 HD
ATOM     21  H6  E12 d           1.414  67.340  66.592  0.00  0.00     0.277 HD
BRANCH  19  22
ATOM     22  C10 E12 d           2.302  66.964  64.796  0.00  0.00     0.129 C 
ATOM     23  C4  E12 d           3.202  65.755  64.461  0.00  0.00    -0.005 A 
ATOM     24  C3  E12 d           4.221  65.845  63.531  0.00  0.00     0.020 A 
ATOM     25  C5  E12 d           2.937  64.414  65.059  0.00  0.00    -0.068 A 
ATOM     26  N2  E12 d           4.968  64.740  63.232  0.00  0.00    -0.327 N 
ATOM     27  C9  E12 d           4.580  67.142  62.794  0.00  0.00    -0.026 C 
ATOM     28  C1  E12 d           4.817  63.458  63.735  0.00  0.00     0.245 A 
ATOM     29  H1  E12 d           5.709  64.872  62.574  0.00  0.00     0.169 HD
ATOM     30  C6  E12 d           3.693  63.311  64.736  0.00  0.00    -0.017 A 
ATOM     31  O7  E12 d           5.592  62.542  63.396  0.00  0.00    -0.268 OA
ATOM     32  H9  E12 d           3.485  62.345  65.195  0.00  0.00     0.092 H 
ATOM     33  C14 E12 d           4.125  68.378  63.592  0.00  0.00    -0.058 C 
ATOM     34  H10 E12 d           4.084  67.146  61.812  0.00  0.00     0.042 H 
ATOM     35  H11 E12 d           5.670  67.186  62.655  0.00  0.00     0.042 H 
ATOM     36  C13 E12 d           2.618  68.251  63.988  0.00  0.00    -0.034 C 
ATOM     37  H3  E12 d           4.733  68.463  64.504  0.00  0.00     0.033 H 
ATOM     38  H4  E12 d           4.262  69.277  62.974  0.00  0.00     0.033 H 
ATOM     39  H13 E12 d           2.343  69.124  64.598  0.00  0.00     0.036 H 
ATOM     40  H14 E12 d           2.014  68.243  63.068  0.00  0.00     0.036 H 
ATOM     41  H2  E12 d           2.121  64.306  65.773  0.00  0.00     0.084 H 
ATOM     42  H12 E12 d           1.269  66.673  64.553  0.00  0.00     0.092 H 
ENDBRANCH  19  22
ENDBRANCH  16  19
ENDBRANCH  13  16
ENDBRANCH  10  13
ENDBRANCH   7  10
ENDBRANCH   4   7
ENDBRANCH   1   4
BRANCH   1  43
ATOM     43  C68 E12 d           0.090  64.653  71.453  0.00  0.00    -0.065 C 
ATOM     44  H39 E12 d          -0.843  64.829  72.009  0.00  0.00     0.033 H 
ATOM     45  H40 E12 d           0.946  64.732  72.139  0.00  0.00     0.033 H 
BRANCH  43  46
ATOM     46  C69 E12 d           0.054  63.242  70.889  0.00  0.00    -0.065 C 
ATOM     47  H41 E12 d           0.644  63.210  69.961  0.00  0.00     0.033 H 
ATOM     48  H42 E12 d          -0.988  62.967  70.671  0.00  0.00     0.033 H 
BRANCH  46  49
ATOM     49  C70 E12 d           0.633  62.250  71.883  0.00  0.00    -0.065 C 
ATOM     50  H43 E12 d           1.122  61.441  71.319  0.00  0.00     0.033 H 
ATOM     51  H44 E12 d          -0.193  61.834  72.479  0.00  0.00     0.033 H 
BRANCH  49  52
ATOM     52  C71 E12 d           1.657  62.858  72.837  0.00  0.00    -0.064 C 
ATOM     53  H45 E12 d           1.260  63.812  73.213  0.00  0.00     0.033 H 
ATOM     54  H46 E12 d           2.588  63.041  72.280  0.00  0.00     0.033 H 
BRANCH  52  55
ATOM     55  C72 E12 d           1.979  61.954  74.042  0.00  0.00    -0.043 C 
ATOM     56  H47 E12 d           1.042  61.503  74.402  0.00  0.00     0.035 H 
ATOM     57  H48 E12 d           2.416  62.575  74.838  0.00  0.00     0.035 H 
BRANCH  55  58
ATOM     58  C41 E12 d           2.963  60.827  73.706  0.00  0.00     0.083 C 
ATOM     59  H29 E12 d           2.463  60.051  73.109  0.00  0.00     0.075 H 
ATOM     60  H30 E12 d           3.359  60.381  74.630  0.00  0.00     0.075 H 
BRANCH  58  61
ATOM     61  N40 E12 d           4.061  61.449  72.924  0.00  0.00    -0.067 N 
ATOM     62  H27 E12 d           4.926  61.179  73.366  0.00  0.00     0.277 HD
ATOM     63  H28 E12 d           3.944  62.447  72.995  0.00  0.00     0.277 HD
BRANCH  61  64
ATOM     64  C37 E12 d           4.198  61.123  71.449  0.00  0.00     0.129 C 
ATOM     65  C38 E12 d           3.151  60.040  71.114  0.00  0.00    -0.034 C 
ATOM     66  C39 E12 d           3.096  59.783  69.604  0.00  0.00    -0.058 C 
ATOM     67  H23 E12 d           2.161  60.376  71.459  0.00  0.00     0.036 H 
ATOM     68  H24 E12 d           3.421  59.106  71.629  0.00  0.00     0.036 H 
ATOM     69  C36 E12 d           2.650  61.057  68.864  0.00  0.00    -0.026 C 
ATOM     70  H25 E12 d           4.094  59.487  69.249  0.00  0.00     0.033 H 
ATOM     71  H26 E12 d           2.379  58.974  69.399  0.00  0.00     0.033 H 
ATOM     72  C31 E12 d           3.484  62.276  69.313  0.00  0.00     0.020 A 
ATOM     73  H20 E12 d           2.782  60.910  67.782  0.00  0.00     0.042 H 
ATOM     74  H21 E12 d           1.589  61.248  69.081  0.00  0.00     0.042 H 
ATOM     75  C32 E12 d           4.187  62.331  70.515  0.00  0.00    -0.005 A 
ATOM     76  N30 E12 d           3.518  63.353  68.476  0.00  0.00    -0.327 N 
ATOM     77  C33 E12 d           4.947  63.567  70.831  0.00  0.00    -0.068 A 
ATOM     78  C34 E12 d           4.972  64.632  69.982  0.00  0.00    -0.017 A 
ATOM     79  H18 E12 d           5.499  63.623  71.768  0.00  0.00     0.084 H 
ATOM     80  C29 E12 d           4.215  64.541  68.673  0.00  0.00     0.245 A 
ATOM     81  H19 E12 d           5.525  65.534  70.241  0.00  0.00     0.092 H 
ATOM     82  O35 E12 d           4.257  65.394  67.777  0.00  0.00    -0.268 OA
ATOM     83  H17 E12 d           2.986  63.281  67.632  0.00  0.00     0.169 HD
ATOM     84  H22 E12 d           5.187  60.662  71.317  0.00  0.00     0.092 H 
ENDBRANCH  61  64
ENDBRANCH  58  61
ENDBRANCH  55  58
ENDBRANCH  52  55
ENDBRANCH  49  52
ENDBRANCH  46  49
ENDBRANCH  43  46
ENDBRANCH   1  43
TORSDOF 15
ENDMDL
MODEL 8
REMARK VINA RESULT:      -9.6      1.754      3.215
REMARK  15 active torsions:
REMARK  status: ('A' for Active; 'I' for Inactive)
REMARK    1  A    between atoms: C10_11  and  N17_7 
REMARK    2  A    between atoms: N17_7  and  C24_8 
REMARK    3  A    between atoms: C24_8  and  C63_13 
REMARK    4  A    between atoms: C63_13  and  C64_28 
REMARK    5  A    between atoms: N40_26  and  C37_23 
REMARK    6  A    between atoms: C41_27  and  N40_26 
REMARK    7  A    between atoms: C72_36  and  C41_27 
REMARK    8  A    between atoms: C64_28  and  C65_29 
REMARK    9  A    between atoms: C65_29  and  C66_30 
REMARK   10  A    between atoms: C66_30  and  C67_31 
REMARK   11  A    between atoms: C67_31  and  C68_32 
REMARK   12  A    between atoms: C68_32  and  C69_33 
REMARK   13  A    between atoms: C69_33  and  C70_34 
REMARK   14  A    between atoms: C70_34  and  C71_35 
REMARK   15  A    between atoms: C71_35  and  C72_36 
ROOT
ATOM      1  C67 E12 d           3.378  64.831  68.817  0.00  0.00    -0.065 C 
ATOM      2  H37 E12 d           3.173  63.758  68.948  0.00  0.00     0.033 H 
ATOM      3  H38 E12 d           2.462  65.407  69.016  0.00  0.00     0.033 H 
ENDROOT
BRANCH   1   4
ATOM      4  C66 E12 d           3.795  65.070  67.383  0.00  0.00    -0.065 C 
ATOM      5  H35 E12 d           4.032  64.105  66.910  0.00  0.00     0.033 H 
ATOM      6  H36 E12 d           2.967  65.549  66.841  0.00  0.00     0.033 H 
BRANCH   4   7
ATOM      7  C65 E12 d           5.009  65.962  67.321  0.00  0.00    -0.065 C 
ATOM      8  H33 E12 d           4.717  66.982  67.616  0.00  0.00     0.033 H 
ATOM      9  H34 E12 d           5.767  65.581  68.021  0.00  0.00     0.033 H 
BRANCH   7  10
ATOM     10  C64 E12 d           5.608  66.006  65.922  0.00  0.00    -0.064 C 
ATOM     11  H31 E12 d           5.657  67.051  65.581  0.00  0.00     0.033 H 
ATOM     12  H32 E12 d           6.622  65.582  65.948  0.00  0.00     0.033 H 
BRANCH  10  13
ATOM     13  C63 E12 d           4.757  65.207  64.965  0.00  0.00    -0.043 C 
ATOM     14  H15 E12 d           5.236  64.234  64.784  0.00  0.00     0.035 H 
ATOM     15  H16 E12 d           3.764  65.050  65.411  0.00  0.00     0.035 H 
BRANCH  13  16
ATOM     16  C24 E12 d           4.595  65.944  63.622  0.00  0.00     0.083 C 
ATOM     17  H7  E12 d           5.217  65.476  62.845  0.00  0.00     0.075 H 
ATOM     18  H8  E12 d           3.542  65.938  63.301  0.00  0.00     0.075 H 
BRANCH  16  19
ATOM     19  N17 E12 d           5.067  67.379  63.904  0.00  0.00    -0.067 N 
ATOM     20  H5  E12 d           5.310  67.412  64.881  0.00  0.00     0.277 HD
ATOM     21  H6  E12 d           5.896  67.520  63.347  0.00  0.00     0.277 HD
BRANCH  19  22
ATOM     22  C10 E12 d           4.173  68.567  63.646  0.00  0.00     0.129 C 
ATOM     23  C4  E12 d           2.780  68.332  64.269  0.00  0.00    -0.005 A 
ATOM     24  C3  E12 d           1.627  68.375  63.506  0.00  0.00     0.020 A 
ATOM     25  C5  E12 d           2.622  68.147  65.740  0.00  0.00    -0.068 A 
ATOM     26  N2  E12 d           0.410  68.203  64.104  0.00  0.00    -0.327 N 
ATOM     27  C9  E12 d           1.626  68.608  61.990  0.00  0.00    -0.026 C 
ATOM     28  C1  E12 d           0.152  68.013  65.452  0.00  0.00     0.245 A 
ATOM     29  H1  E12 d          -0.386  68.216  63.499  0.00  0.00     0.169 HD
ATOM     30  C6  E12 d           1.386  67.987  66.325  0.00  0.00    -0.017 A 
ATOM     31  O7  E12 d          -1.013  67.840  65.862  0.00  0.00    -0.268 OA
ATOM     32  H9  E12 d           1.298  67.843  67.401  0.00  0.00     0.092 H 
ATOM     33  C14 E12 d           2.973  68.203  61.365  0.00  0.00    -0.058 C 
ATOM     34  H10 E12 d           1.443  69.675  61.791  0.00  0.00     0.042 H 
ATOM     35  H11 E12 d           0.824  68.008  61.536  0.00  0.00     0.042 H 
ATOM     36  C13 E12 d           4.158  68.883  62.125  0.00  0.00    -0.034 C 
ATOM     37  H3  E12 d           3.085  67.111  61.423  0.00  0.00     0.033 H 
ATOM     38  H4  E12 d           2.992  68.517  60.311  0.00  0.00     0.033 H 
ATOM     39  H13 E12 d           5.103  68.531  61.686  0.00  0.00     0.036 H 
ATOM     40  H14 E12 d           4.077  69.972  61.996  0.00  0.00     0.036 H 
ATOM     41  H2  E12 d           3.510  68.138  66.371  0.00  0.00     0.084 H 
ATOM     42  H12 E12 d           4.610  69.440  64.154  0.00  0.00     0.092 H 
ENDBRANCH  19  22
ENDBRANCH  16  19
ENDBRANCH  13  16
ENDBRANCH  10  13
ENDBRANCH   7  10
ENDBRANCH   4   7
ENDBRANCH   1   4
BRANCH   1  43
ATOM     43  C68 E12 d           4.436  65.245  69.818  0.00  0.00    -0.065 C 
ATOM     44  H39 E12 d           3.939  65.745  70.662  0.00  0.00     0.033 H 
ATOM     45  H40 E12 d           5.124  65.949  69.328  0.00  0.00     0.033 H 
BRANCH  43  46
ATOM     46  C69 E12 d           5.246  64.079  70.360  0.00  0.00    -0.065 C 
ATOM     47  H41 E12 d           5.686  64.364  71.327  0.00  0.00     0.033 H 
ATOM     48  H42 E12 d           6.050  63.838  69.649  0.00  0.00     0.033 H 
BRANCH  46  49
ATOM     49  C70 E12 d           4.368  62.855  70.553  0.00  0.00    -0.065 C 
ATOM     50  H43 E12 d           4.198  62.392  69.569  0.00  0.00     0.033 H 
ATOM     51  H44 E12 d           3.406  63.182  70.976  0.00  0.00     0.033 H 
BRANCH  49  52
ATOM     52  C71 E12 d           4.971  61.805  71.481  0.00  0.00    -0.064 C 
ATOM     53  H45 E12 d           4.398  61.800  72.421  0.00  0.00     0.033 H 
ATOM     54  H46 E12 d           6.015  62.080  71.690  0.00  0.00     0.033 H 
BRANCH  52  55
ATOM     55  C72 E12 d           4.949  60.383  70.888  0.00  0.00    -0.043 C 
ATOM     56  H47 E12 d           5.986  60.041  70.761  0.00  0.00     0.035 H 
ATOM     57  H48 E12 d           4.453  60.421  69.907  0.00  0.00     0.035 H 
BRANCH  55  58
ATOM     58  C41 E12 d           4.207  59.372  71.770  0.00  0.00     0.083 C 
ATOM     59  H29 E12 d           4.223  59.699  72.820  0.00  0.00     0.075 H 
ATOM     60  H30 E12 d           4.676  58.380  71.688  0.00  0.00     0.075 H 
BRANCH  58  61
ATOM     61  N40 E12 d           2.811  59.322  71.268  0.00  0.00    -0.067 N 
ATOM     62  H27 E12 d           2.674  58.406  70.872  0.00  0.00     0.277 HD
ATOM     63  H28 E12 d           2.735  60.018  70.543  0.00  0.00     0.277 HD
BRANCH  61  64
ATOM     64  C37 E12 d           1.667  59.562  72.234  0.00  0.00     0.129 C 
ATOM     65  C38 E12 d           2.046  58.900  73.576  0.00  0.00    -0.034 C 
ATOM     66  C39 E12 d           1.026  59.250  74.665  0.00  0.00    -0.058 C 
ATOM     67  H23 E12 d           3.040  59.256  73.885  0.00  0.00     0.036 H 
ATOM     68  H24 E12 d           2.072  57.808  73.445  0.00  0.00     0.036 H 
ATOM     69  C36 E12 d           1.021  60.769  74.920  0.00  0.00    -0.026 C 
ATOM     70  H25 E12 d           0.024  58.933  74.340  0.00  0.00     0.033 H 
ATOM     71  H26 E12 d           1.293  58.726  75.595  0.00  0.00     0.033 H 
ATOM     72  C31 E12 d           0.891  61.550  73.595  0.00  0.00     0.020 A 
ATOM     73  H20 E12 d           0.172  61.022  75.571  0.00  0.00     0.042 H 
ATOM     74  H21 E12 d           1.960  61.054  75.415  0.00  0.00     0.042 H 
ATOM     75  C32 E12 d           1.207  61.013  72.347  0.00  0.00    -0.005 A 
ATOM     76  N30 E12 d           0.447  62.837  73.669  0.00  0.00    -0.327 N 
ATOM     77  C33 E12 d           1.043  61.874  71.149  0.00  0.00    -0.068 A 
ATOM     78  C34 E12 d           0.596  63.158  71.241  0.00  0.00    -0.017 A 
ATOM     79  H18 E12 d           1.288  61.468  70.169  0.00  0.00     0.084 H 
ATOM     80  C29 E12 d           0.241  63.711  72.606  0.00  0.00     0.245 A 
ATOM     81  H19 E12 d           0.496  63.775  70.349  0.00  0.00     0.092 H 
ATOM     82  O35 E12 d          -0.279  64.818  72.801  0.00  0.00    -0.268 OA
ATOM     83  H17 E12 d           0.248  63.190  74.583  0.00  0.00     0.169 HD
ATOM     84  H22 E12 d           0.800  59.012  71.841  0.00  0.00     0.092 H 
ENDBRANCH  61  64
ENDBRANCH  58  61
ENDBRANCH  55  58
ENDBRANCH  52  55
ENDBRANCH  49  52
ENDBRANCH  46  49
ENDBRANCH  43  46
ENDBRANCH   1  43
TORSDOF 15
ENDMDL
MODEL 9
REMARK VINA RESULT:      -9.1      2.407     10.460
REMARK  15 active torsions:
REMARK  status: ('A' for Active; 'I' for Inactive)
REMARK    1  A    between atoms: C10_11  and  N17_7 
REMARK    2  A    between atoms: N17_7  and  C24_8 
REMARK    3  A    between atoms: C24_8  and  C63_13 
REMARK    4  A    between atoms: C63_13  and  C64_28 
REMARK    5  A    between atoms: N40_26  and  C37_23 
REMARK    6  A    between atoms: C41_27  and  N40_26 
REMARK    7  A    between atoms: C72_36  and  C41_27 
REMARK    8  A    between atoms: C64_28  and  C65_29 
REMARK    9  A    between atoms: C65_29  and  C66_30 
REMARK   10  A    between atoms: C66_30  and  C67_31 
REMARK   11  A    between atoms: C67_31  and  C68_32 
REMARK   12  A    between atoms: C68_32  and  C69_33 
REMARK   13  A    between atoms: C69_33  and  C70_34 
REMARK   14  A    between atoms: C70_34  and  C71_35 
REMARK   15  A    between atoms: C71_35  and  C72_36 
ROOT
ATOM      1  C67 E12 d           1.290  62.822  72.347  0.00  0.00    -0.065 C 
ATOM      2  H37 E12 d           1.380  61.767  72.048  0.00  0.00     0.033 H 
ATOM      3  H38 E12 d           2.011  63.039  73.149  0.00  0.00     0.033 H 
ENDROOT
BRANCH   1   4
ATOM      4  C66 E12 d          -0.106  63.056  72.878  0.00  0.00    -0.065 C 
ATOM      5  H35 E12 d          -0.048  63.308  73.948  0.00  0.00     0.033 H 
ATOM      6  H36 E12 d          -0.566  63.890  72.329  0.00  0.00     0.033 H 
BRANCH   4   7
ATOM      7  C65 E12 d          -0.956  61.822  72.707  0.00  0.00    -0.065 C 
ATOM      8  H33 E12 d          -1.841  61.905  73.356  0.00  0.00     0.033 H 
ATOM      9  H34 E12 d          -1.277  61.754  71.657  0.00  0.00     0.033 H 
BRANCH   7  10
ATOM     10  C64 E12 d          -0.195  60.555  73.072  0.00  0.00    -0.064 C 
ATOM     11  H31 E12 d          -0.079  59.929  72.175  0.00  0.00     0.033 H 
ATOM     12  H32 E12 d           0.797  60.827  73.460  0.00  0.00     0.033 H 
BRANCH  10  13
ATOM     13  C63 E12 d          -0.947  59.781  74.128  0.00  0.00    -0.043 C 
ATOM     14  H15 E12 d          -1.808  60.377  74.467  0.00  0.00     0.035 H 
ATOM     15  H16 E12 d          -1.304  58.835  73.694  0.00  0.00     0.035 H 
BRANCH  13  16
ATOM     16  C24 E12 d          -0.044  59.471  75.336  0.00  0.00     0.083 C 
ATOM     17  H7  E12 d          -0.347  60.066  76.210  0.00  0.00     0.075 H 
ATOM     18  H8  E12 d          -0.087  58.401  75.588  0.00  0.00     0.075 H 
BRANCH  16  19
ATOM     19  N17 E12 d           1.370  59.863  74.878  0.00  0.00    -0.067 N 
ATOM     20  H5  E12 d           1.254  60.442  74.061  0.00  0.00     0.277 HD
ATOM     21  H6  E12 d           1.769  60.411  75.624  0.00  0.00     0.277 HD
BRANCH  19  22
ATOM     22  C10 E12 d           2.399  58.819  74.518  0.00  0.00     0.129 C 
ATOM     23  C4  E12 d           3.075  59.177  73.177  0.00  0.00    -0.005 A 
ATOM     24  C3  E12 d           3.061  58.308  72.101  0.00  0.00     0.020 A 
ATOM     25  C5  E12 d           3.858  60.438  73.028  0.00  0.00    -0.068 A 
ATOM     26  N2  E12 d           3.708  58.645  70.946  0.00  0.00    -0.327 N 
ATOM     27  C9  E12 d           2.342  56.952  72.121  0.00  0.00    -0.026 C 
ATOM     28  C1  E12 d           4.449  59.789  70.697  0.00  0.00     0.245 A 
ATOM     29  H1  E12 d           3.639  57.991  70.193  0.00  0.00     0.169 HD
ATOM     30  C6  E12 d           4.513  60.754  71.859  0.00  0.00    -0.017 A 
ATOM     31  O7  E12 d           4.967  59.985  69.580  0.00  0.00    -0.268 OA
ATOM     32  H9  E12 d           5.070  61.686  71.773  0.00  0.00     0.092 H 
ATOM     33  C14 E12 d           1.211  56.938  73.166  0.00  0.00    -0.058 C 
ATOM     34  H10 E12 d           3.069  56.164  72.368  0.00  0.00     0.042 H 
ATOM     35  H11 E12 d           1.915  56.758  71.127  0.00  0.00     0.042 H 
ATOM     36  C13 E12 d           1.743  57.411  74.557  0.00  0.00    -0.034 C 
ATOM     37  H3  E12 d           0.407  57.613  72.837  0.00  0.00     0.033 H 
ATOM     38  H4  E12 d           0.817  55.916  73.258  0.00  0.00     0.033 H 
ATOM     39  H13 E12 d           0.900  57.439  75.263  0.00  0.00     0.036 H 
ATOM     40  H14 E12 d           2.492  56.688  74.910  0.00  0.00     0.036 H 
ATOM     41  H2  E12 d           3.913  61.129  73.868  0.00  0.00     0.084 H 
ATOM     42  H12 E12 d           3.184  58.833  75.289  0.00  0.00     0.092 H 
ENDBRANCH  19  22
ENDBRANCH  16  19
ENDBRANCH  13  16
ENDBRANCH  10  13
ENDBRANCH   7  10
ENDBRANCH   4   7
ENDBRANCH   1   4
BRANCH   1  43
ATOM     43  C68 E12 d           1.623  63.692  71.152  0.00  0.00    -0.065 C 
ATOM     44  H39 E12 d           1.928  63.039  70.321  0.00  0.00     0.033 H 
ATOM     45  H40 E12 d           2.458  64.354  71.425  0.00  0.00     0.033 H 
BRANCH  43  46
ATOM     46  C69 E12 d           0.459  64.551  70.687  0.00  0.00    -0.065 C 
ATOM     47  H41 E12 d          -0.299  64.593  71.483  0.00  0.00     0.033 H 
ATOM     48  H42 E12 d           0.018  64.103  69.784  0.00  0.00     0.033 H 
BRANCH  46  49
ATOM     49  C70 E12 d           0.924  65.961  70.366  0.00  0.00    -0.065 C 
ATOM     50  H43 E12 d           1.033  66.513  71.311  0.00  0.00     0.033 H 
ATOM     51  H44 E12 d           0.157  66.446  69.743  0.00  0.00     0.033 H 
BRANCH  49  52
ATOM     52  C71 E12 d           2.254  66.017  69.620  0.00  0.00    -0.064 C 
ATOM     53  H45 E12 d           2.140  65.488  68.663  0.00  0.00     0.033 H 
ATOM     54  H46 E12 d           3.018  65.512  70.230  0.00  0.00     0.033 H 
BRANCH  52  55
ATOM     55  C72 E12 d           2.731  67.453  69.332  0.00  0.00    -0.043 C 
ATOM     56  H47 E12 d           3.820  67.497  69.480  0.00  0.00     0.035 H 
ATOM     57  H48 E12 d           2.237  68.134  70.040  0.00  0.00     0.035 H 
BRANCH  55  58
ATOM     58  C41 E12 d           2.414  67.920  67.906  0.00  0.00     0.083 C 
ATOM     59  H29 E12 d           2.257  69.008  67.888  0.00  0.00     0.075 H 
ATOM     60  H30 E12 d           1.513  67.413  67.532  0.00  0.00     0.075 H 
BRANCH  58  61
ATOM     61  N40 E12 d           3.590  67.557  67.075  0.00  0.00    -0.067 N 
ATOM     62  H27 E12 d           3.919  66.664  67.406  0.00  0.00     0.277 HD
ATOM     63  H28 E12 d           4.295  68.258  67.242  0.00  0.00     0.277 HD
BRANCH  61  64
ATOM     64  C37 E12 d           3.428  67.440  65.572  0.00  0.00     0.129 C 
ATOM     65  C38 E12 d           4.105  68.672  64.935  0.00  0.00    -0.034 C 
ATOM     66  C39 E12 d           4.147  68.543  63.408  0.00  0.00    -0.058 C 
ATOM     67  H23 E12 d           5.133  68.758  65.319  0.00  0.00     0.036 H 
ATOM     68  H24 E12 d           3.537  69.575  65.204  0.00  0.00     0.036 H 
ATOM     69  C36 E12 d           4.998  67.325  63.002  0.00  0.00    -0.026 C 
ATOM     70  H25 E12 d           3.124  68.416  63.026  0.00  0.00     0.033 H 
ATOM     71  H26 E12 d           4.589  69.454  62.979  0.00  0.00     0.033 H 
ATOM     72  C31 E12 d           4.560  66.063  63.776  0.00  0.00     0.020 A 
ATOM     73  H20 E12 d           4.877  67.145  61.924  0.00  0.00     0.042 H 
ATOM     74  H21 E12 d           6.055  67.534  63.222  0.00  0.00     0.042 H 
ATOM     75  C32 E12 d           3.853  66.100  64.977  0.00  0.00    -0.005 A 
ATOM     76  N30 E12 d           4.898  64.854  63.242  0.00  0.00    -0.327 N 
ATOM     77  C33 E12 d           3.497  64.812  65.623  0.00  0.00    -0.068 A 
ATOM     78  C34 E12 d           3.841  63.613  65.076  0.00  0.00    -0.017 A 
ATOM     79  H18 E12 d           2.946  64.827  66.563  0.00  0.00     0.084 H 
ATOM     80  C29 E12 d           4.592  63.600  63.760  0.00  0.00     0.245 A 
ATOM     81  H19 E12 d           3.581  62.680  65.575  0.00  0.00     0.092 H 
ATOM     82  O35 E12 d           4.857  62.577  63.113  0.00  0.00    -0.268 OA
ATOM     83  H17 E12 d           5.420  64.871  62.389  0.00  0.00     0.169 HD
ATOM     84  H22 E12 d           2.352  67.524  65.362  0.00  0.00     0.092 H 
ENDBRANCH  61  64
ENDBRANCH  58  61
ENDBRANCH  55  58
ENDBRANCH  52  55
ENDBRANCH  49  52
ENDBRANCH  46  49
ENDBRANCH  43  46
ENDBRANCH   1  43
TORSDOF 15
ENDMDL
MODEL 10
REMARK VINA RESULT:      -8.8      2.475      4.832
REMARK  15 active torsions:
REMARK  status: ('A' for Active; 'I' for Inactive)
REMARK    1  A    between atoms: C10_11  and  N17_7 
REMARK    2  A    between atoms: N17_7  and  C24_8 
REMARK    3  A    between atoms: C24_8  and  C63_13 
REMARK    4  A    between atoms: C63_13  and  C64_28 
REMARK    5  A    between atoms: N40_26  and  C37_23 
REMARK    6  A    between atoms: C41_27  and  N40_26 
REMARK    7  A    between atoms: C72_36  and  C41_27 
REMARK    8  A    between atoms: C64_28  and  C65_29 
REMARK    9  A    between atoms: C65_29  and  C66_30 
REMARK   10  A    between atoms: C66_30  and  C67_31 
REMARK   11  A    between atoms: C67_31  and  C68_32 
REMARK   12  A    between atoms: C68_32  and  C69_33 
REMARK   13  A    between atoms: C69_33  and  C70_34 
REMARK   14  A    between atoms: C70_34  and  C71_35 
REMARK   15  A    between atoms: C71_35  and  C72_36 
ROOT
ATOM      1  C67 E12 d           0.813  63.155  70.630  0.00  0.00    -0.065 C 
ATOM      2  H37 E12 d           1.765  62.909  71.124  0.00  0.00     0.033 H 
ATOM      3  H38 E12 d           0.874  62.890  69.565  0.00  0.00     0.033 H 
ENDROOT
BRANCH   1   4
ATOM      4  C66 E12 d           0.583  64.645  70.744  0.00  0.00    -0.065 C 
ATOM      5  H35 E12 d          -0.254  64.932  70.091  0.00  0.00     0.033 H 
ATOM      6  H36 E12 d           0.336  64.893  71.787  0.00  0.00     0.033 H 
BRANCH   4   7
ATOM      7  C65 E12 d           1.816  65.410  70.333  0.00  0.00    -0.065 C 
ATOM      8  H33 E12 d           2.354  65.732  71.237  0.00  0.00     0.033 H 
ATOM      9  H34 E12 d           2.462  64.748  69.737  0.00  0.00     0.033 H 
BRANCH   7  10
ATOM     10  C64 E12 d           1.469  66.638  69.502  0.00  0.00    -0.064 C 
ATOM     11  H31 E12 d           1.012  66.318  68.554  0.00  0.00     0.033 H 
ATOM     12  H32 E12 d           0.757  67.263  70.060  0.00  0.00     0.033 H 
BRANCH  10  13
ATOM     13  C63 E12 d           2.715  67.439  69.211  0.00  0.00    -0.043 C 
ATOM     14  H15 E12 d           2.886  68.150  70.032  0.00  0.00     0.035 H 
ATOM     15  H16 E12 d           3.573  66.755  69.134  0.00  0.00     0.035 H 
BRANCH  13  16
ATOM     16  C24 E12 d           2.574  68.220  67.891  0.00  0.00     0.083 C 
ATOM     17  H7  E12 d           1.529  68.215  67.547  0.00  0.00     0.075 H 
ATOM     18  H8  E12 d           2.914  69.259  68.016  0.00  0.00     0.075 H 
BRANCH  16  19
ATOM     19  N17 E12 d           3.475  67.472  66.896  0.00  0.00    -0.067 N 
ATOM     20  H5  E12 d           4.362  67.950  66.900  0.00  0.00     0.277 HD
ATOM     21  H6  E12 d           3.593  66.541  67.263  0.00  0.00     0.277 HD
BRANCH  19  22
ATOM     22  C10 E12 d           3.084  67.312  65.446  0.00  0.00     0.129 C 
ATOM     23  C4  E12 d           3.642  65.986  64.887  0.00  0.00    -0.005 A 
ATOM     24  C3  E12 d           4.474  65.957  63.782  0.00  0.00     0.020 A 
ATOM     25  C5  E12 d           3.220  64.675  65.461  0.00  0.00    -0.068 A 
ATOM     26  N2  E12 d           4.912  64.759  63.293  0.00  0.00    -0.327 N 
ATOM     27  C9  E12 d           4.952  67.219  63.052  0.00  0.00    -0.026 C 
ATOM     28  C1  E12 d           4.595  63.491  63.755  0.00  0.00     0.245 A 
ATOM     29  H1  E12 d           5.534  64.801  62.511  0.00  0.00     0.169 HD
ATOM     30  C6  E12 d           3.664  63.478  64.946  0.00  0.00    -0.017 A 
ATOM     31  O7  E12 d           5.092  62.476  63.228  0.00  0.00    -0.268 OA
ATOM     32  H9  E12 d           3.348  62.535  65.390  0.00  0.00     0.092 H 
ATOM     33  C14 E12 d           4.911  68.446  63.981  0.00  0.00    -0.058 C 
ATOM     34  H10 E12 d           4.299  67.401  62.186  0.00  0.00     0.042 H 
ATOM     35  H11 E12 d           5.984  67.064  62.707  0.00  0.00     0.042 H 
ATOM     36  C13 E12 d           3.506  68.579  64.654  0.00  0.00    -0.034 C 
ATOM     37  H3  E12 d           5.677  68.335  64.761  0.00  0.00     0.033 H 
ATOM     38  H4  E12 d           5.116  69.352  63.391  0.00  0.00     0.033 H 
ATOM     39  H13 E12 d           3.530  69.433  65.347  0.00  0.00     0.036 H 
ATOM     40  H14 E12 d           2.759  68.765  63.869  0.00  0.00     0.036 H 
ATOM     41  H2  E12 d           2.542  64.665  66.312  0.00  0.00     0.084 H 
ATOM     42  H12 E12 d           1.987  67.247  65.394  0.00  0.00     0.092 H 
ENDBRANCH  19  22
ENDBRANCH  16  19
ENDBRANCH  13  16
ENDBRANCH  10  13
ENDBRANCH   7  10
ENDBRANCH   4   7
ENDBRANCH   1   4
BRANCH   1  43
ATOM     43  C68 E12 d          -0.287  62.335  71.269  0.00  0.00    -0.065 C 
ATOM     44  H39 E12 d          -0.161  61.286  70.965  0.00  0.00     0.033 H 
ATOM     45  H40 E12 d          -1.256  62.708  70.906  0.00  0.00     0.033 H 
BRANCH  43  46
ATOM     46  C69 E12 d          -0.286  62.398  72.788  0.00  0.00    -0.065 C 
ATOM     47  H41 E12 d          -0.727  63.353  73.110  0.00  0.00     0.033 H 
ATOM     48  H42 E12 d           0.750  62.333  73.151  0.00  0.00     0.033 H 
BRANCH  46  49
ATOM     49  C70 E12 d          -1.092  61.253  73.376  0.00  0.00    -0.065 C 
ATOM     50  H43 E12 d          -1.369  60.569  72.560  0.00  0.00     0.033 H 
ATOM     51  H44 E12 d          -2.003  61.668  73.833  0.00  0.00     0.033 H 
BRANCH  49  52
ATOM     52  C71 E12 d          -0.343  60.454  74.439  0.00  0.00    -0.064 C 
ATOM     53  H45 E12 d          -0.626  60.840  75.430  0.00  0.00     0.033 H 
ATOM     54  H46 E12 d           0.738  60.595  74.286  0.00  0.00     0.033 H 
BRANCH  52  55
ATOM     55  C72 E12 d          -0.650  58.945  74.397  0.00  0.00    -0.043 C 
ATOM     56  H47 E12 d          -1.669  58.806  74.008  0.00  0.00     0.035 H 
ATOM     57  H48 E12 d          -0.591  58.548  75.421  0.00  0.00     0.035 H 
BRANCH  55  58
ATOM     58  C41 E12 d           0.321  58.156  73.511  0.00  0.00     0.083 C 
ATOM     59  H29 E12 d           0.149  58.395  72.452  0.00  0.00     0.075 H 
ATOM     60  H30 E12 d           0.188  57.076  73.669  0.00  0.00     0.075 H 
BRANCH  58  61
ATOM     61  N40 E12 d           1.688  58.569  73.915  0.00  0.00    -0.067 N 
ATOM     62  H27 E12 d           1.941  58.007  74.713  0.00  0.00     0.277 HD
ATOM     63  H28 E12 d           1.634  59.537  74.189  0.00  0.00     0.277 HD
BRANCH  61  64
ATOM     64  C37 E12 d           2.824  58.455  72.917  0.00  0.00     0.129 C 
ATOM     65  C38 E12 d           2.465  57.319  71.935  0.00  0.00    -0.034 C 
ATOM     66  C39 E12 d           3.473  57.256  70.782  0.00  0.00    -0.058 C 
ATOM     67  H23 E12 d           1.460  57.500  71.526  0.00  0.00     0.036 H 
ATOM     68  H24 E12 d           2.475  56.360  72.474  0.00  0.00     0.036 H 
ATOM     69  C36 E12 d           3.429  58.561  69.966  0.00  0.00    -0.026 C 
ATOM     70  H25 E12 d           4.485  57.117  71.191  0.00  0.00     0.033 H 
ATOM     71  H26 E12 d           3.223  56.409  70.126  0.00  0.00     0.033 H 
ATOM     72  C31 E12 d           3.534  59.793  70.890  0.00  0.00     0.020 A 
ATOM     73  H20 E12 d           4.270  58.571  69.257  0.00  0.00     0.042 H 
ATOM     74  H21 E12 d           2.481  58.607  69.411  0.00  0.00     0.042 H 
ATOM     75  C32 E12 d           3.236  59.765  72.252  0.00  0.00    -0.005 A 
ATOM     76  N30 E12 d           3.937  60.967  70.324  0.00  0.00    -0.327 N 
ATOM     77  C33 E12 d           3.373  61.023  73.028  0.00  0.00    -0.068 A 
ATOM     78  C34 E12 d           3.778  62.187  72.446  0.00  0.00    -0.017 A 
ATOM     79  H18 E12 d           3.142  61.016  74.092  0.00  0.00     0.084 H 
ATOM     80  C29 E12 d           4.115  62.186  70.969  0.00  0.00     0.245 A 
ATOM     81  H19 E12 d           3.859  63.101  73.033  0.00  0.00     0.092 H 
ATOM     82  O35 E12 d           4.599  63.149  70.359  0.00  0.00    -0.268 OA
ATOM     83  H17 E12 d           4.124  60.949  69.341  0.00  0.00     0.169 HD
ATOM     84  H22 E12 d           3.708  58.123  73.479  0.00  0.00     0.092 H 
ENDBRANCH  61  64
ENDBRANCH  58  61
ENDBRANCH  55  58
ENDBRANCH  52  55
ENDBRANCH  49  52
ENDBRANCH  46  49
ENDBRANCH  43  46
ENDBRANCH   1  43
TORSDOF 15
ENDMDL
