MODEL 1
REMARK VINA RESULT:      -8.8      0.000      0.000
REMARK  8 active torsions:
REMARK  status: ('A' for Active; 'I' for Inactive)
REMARK    1  A    between atoms: N1_1  and  C2_2 
REMARK    2  A    between atoms: C2_2  and  C3_3 
REMARK    3  A    between atoms: C6_6  and  N7_7 
REMARK       I    between atoms: N7_7  and  C8_8 
REMARK    4  A    between atoms: C8_8  and  C10_10 
REMARK    5  A    between atoms: C12_12  and  N13_13 
REMARK    6  A    between atoms: N13_13  and  C14_14 
REMARK    7  A    between atoms: C22_22  and  C27_27 
REMARK    8  A    between atoms: C27_27  and  N28_28 
ROOT
ATOM      1  C10 UI1 d          23.228  15.741  33.361  0.00  0.00     0.035 A 
ATOM      2  C11 UI1 d          23.655  16.942  33.972  0.00  0.00    -0.041 A 
ATOM      3  C12 UI1 d          22.761  17.964  34.199  0.00  0.00     0.061 A 
ATOM      4  C20 UI1 d          21.385  17.804  33.819  0.00  0.00     0.002 A 
ATOM      5  C21 UI1 d          20.479  18.870  34.039  0.00  0.00    -0.057 A 
ATOM      6  C22 UI1 d          19.121  18.734  33.678  0.00  0.00     0.008 A 
ATOM      7  C23 UI1 d          18.655  17.535  33.103  0.00  0.00    -0.069 A 
ATOM      8  C24 UI1 d          19.558  16.467  32.876  0.00  0.00    -0.071 A 
ATOM      9  C25 UI1 d          20.932  16.605  33.231  0.00  0.00    -0.023 A 
ATOM     10  C26 UI1 d          21.855  15.562  32.992  0.00  0.00    -0.057 A 
ATOM     11  H9  UI1 d          24.693  17.059  34.262  0.00  0.00     0.088 H 
ATOM     12  H14 UI1 d          20.829  19.794  34.486  0.00  0.00     0.086 H 
ATOM     13  H15 UI1 d          17.611  17.430  32.835  0.00  0.00     0.085 H 
ATOM     14  H16 UI1 d          19.203  15.544  32.433  0.00  0.00     0.084 H 
ATOM     15  H17 UI1 d          21.528  14.636  32.534  0.00  0.00     0.086 H 
ENDROOT
BRANCH   1  16
ATOM     16  C8  UI1 d          24.271  14.711  33.067  0.00  0.00     0.256 C 
ATOM     17  N7  UI1 d          23.991  13.766  32.190  0.00  0.00    -0.323 N 
ATOM     18  H8  UI1 d          23.062  13.694  31.826  0.00  0.00     0.169 HD
ATOM     19  O9  UI1 d          25.380  14.797  33.581  0.00  0.00    -0.267 OA
BRANCH  17  20
ATOM     20  C6  UI1 d          24.998  12.836  31.745  0.00  0.00     0.035 A 
ATOM     21  C5  UI1 d          25.774  13.316  30.645  0.00  0.00    -0.057 A 
ATOM     22  C4  UI1 d          26.787  12.534  30.070  0.00  0.00    -0.073 A 
ATOM     23  H7  UI1 d          25.575  14.304  30.245  0.00  0.00     0.086 H 
ATOM     24  C3  UI1 d          27.049  11.255  30.587  0.00  0.00    -0.033 A 
ATOM     25  H6  UI1 d          27.363  12.915  29.234  0.00  0.00     0.084 H 
ATOM     26  C31 UI1 d          26.287  10.765  31.680  0.00  0.00    -0.073 A 
ATOM     27  C30 UI1 d          25.249  11.560  32.263  0.00  0.00    -0.057 A 
ATOM     28  H23 UI1 d          26.494   9.778  32.077  0.00  0.00     0.084 H 
ATOM     29  H22 UI1 d          24.665  11.178  33.093  0.00  0.00     0.086 H 
BRANCH  24  30
ATOM     30  C2  UI1 d          28.155  10.396  29.956  0.00  0.00     0.103 C 
ATOM     31  H4  UI1 d          29.132  10.852  30.175  0.00  0.00     0.082 H 
ATOM     32  H5  UI1 d          28.116   9.386  30.391  0.00  0.00     0.082 H 
BRANCH  30  33
ATOM     33  N1  UI1 d          27.991  10.297  28.512  0.00  0.00    -0.075 N 
ATOM     34  H1  UI1 d          28.765   9.783  28.120  0.00  0.00     0.274 HD
ATOM     35  H2  UI1 d          27.965  11.222  28.112  0.00  0.00     0.274 HD
ATOM     36  H3  UI1 d          27.129   9.816  28.304  0.00  0.00     0.274 HD
ENDBRANCH  30  33
ENDBRANCH  24  30
ENDBRANCH  17  20
ENDBRANCH   1  16
BRANCH   3  37
ATOM     37  N13 UI1 d          23.243  19.197  34.763  0.00  0.00    -0.187 N 
ATOM     38  H10 UI1 d          22.973  20.080  34.306  0.00  0.00     0.184 HD
BRANCH  37  39
ATOM     39  C14 UI1 d          24.069  19.264  35.915  0.00  0.00     0.726 A 
ATOM     40  N15 UI1 d          24.978  20.266  35.993  0.00  0.00    -0.075 NA
ATOM     41  C16 UI1 d          25.779  20.390  37.075  0.00  0.00     0.022 A 
ATOM     42  C17 UI1 d          25.662  19.472  38.141  0.00  0.00    -0.048 A 
ATOM     43  H11 UI1 d          26.507  21.191  37.124  0.00  0.00     0.115 H 
ATOM     44  C18 UI1 d          24.714  18.444  38.024  0.00  0.00     0.022 A 
ATOM     45  H12 UI1 d          26.287  19.558  39.023  0.00  0.00     0.087 H 
ATOM     46  N19 UI1 d          23.940  18.366  36.916  0.00  0.00    -0.075 NA
ATOM     47  H13 UI1 d          24.602  17.716  38.819  0.00  0.00     0.115 H 
ENDBRANCH  37  39
ENDBRANCH   3  37
BRANCH   6  48
ATOM     48  C27 UI1 d          18.231  19.890  33.934  0.00  0.00     0.102 C 
ATOM     49  N29 UI1 d          18.725  21.115  34.055  0.00  0.00    -0.385 N 
ATOM     50  H20 UI1 d          19.740  21.271  33.970  0.00  0.00     0.157 HD
ATOM     51  H21 UI1 d          18.095  21.909  34.234  0.00  0.00     0.157 HD
BRANCH  48  52
ATOM     52  N28 UI1 d          16.945  19.706  34.043  0.00  0.00    -0.385 N 
ATOM     53  H18 UI1 d          16.551  19.328  34.917  0.00  0.00     0.157 HD
ATOM     54  H19 UI1 d          16.323  19.938  33.256  0.00  0.00     0.157 HD
ENDBRANCH  48  52
ENDBRANCH   6  48
TORSDOF 8
ENDMDL
MODEL 2
REMARK VINA RESULT:      -7.2      1.953      2.473
REMARK  8 active torsions:
REMARK  status: ('A' for Active; 'I' for Inactive)
REMARK    1  A    between atoms: N1_1  and  C2_2 
REMARK    2  A    between atoms: C2_2  and  C3_3 
REMARK    3  A    between atoms: C6_6  and  N7_7 
REMARK       I    between atoms: N7_7  and  C8_8 
REMARK    4  A    between atoms: C8_8  and  C10_10 
REMARK    5  A    between atoms: C12_12  and  N13_13 
REMARK    6  A    between atoms: N13_13  and  C14_14 
REMARK    7  A    between atoms: C22_22  and  C27_27 
REMARK    8  A    between atoms: C27_27  and  N28_28 
ROOT
ATOM      1  C10 UI1 d          22.922  15.227  32.851  0.00  0.00     0.035 A 
ATOM      2  C11 UI1 d          23.533  16.421  33.299  0.00  0.00    -0.041 A 
ATOM      3  C12 UI1 d          22.764  17.515  33.624  0.00  0.00     0.061 A 
ATOM      4  C20 UI1 d          21.333  17.440  33.514  0.00  0.00     0.002 A 
ATOM      5  C21 UI1 d          20.554  18.579  33.830  0.00  0.00    -0.057 A 
ATOM      6  C22 UI1 d          19.147  18.527  33.734  0.00  0.00     0.008 A 
ATOM      7  C23 UI1 d          18.506  17.340  33.328  0.00  0.00    -0.069 A 
ATOM      8  C24 UI1 d          19.280  16.198  33.004  0.00  0.00    -0.071 A 
ATOM      9  C25 UI1 d          20.702  16.251  33.092  0.00  0.00    -0.023 A 
ATOM     10  C26 UI1 d          21.497  15.132  32.751  0.00  0.00    -0.057 A 
ATOM     11  H9  UI1 d          24.611  16.474  33.387  0.00  0.00     0.088 H 
ATOM     12  H14 UI1 d          21.040  19.494  34.149  0.00  0.00     0.086 H 
ATOM     13  H15 UI1 d          17.425  17.300  33.263  0.00  0.00     0.085 H 
ATOM     14  H16 UI1 d          18.790  15.284  32.690  0.00  0.00     0.084 H 
ATOM     15  H17 UI1 d          21.031  14.212  32.418  0.00  0.00     0.086 H 
ENDROOT
BRANCH   1  16
ATOM     16  C8  UI1 d          23.824  14.109  32.434  0.00  0.00     0.256 C 
ATOM     17  N7  UI1 d          25.030  14.409  31.988  0.00  0.00    -0.323 N 
ATOM     18  H8  UI1 d          25.273  15.367  31.836  0.00  0.00     0.169 HD
ATOM     19  O9  UI1 d          23.467  12.946  32.576  0.00  0.00    -0.267 OA
BRANCH  17  20
ATOM     20  C6  UI1 d          26.003  13.381  31.715  0.00  0.00     0.035 A 
ATOM     21  C5  UI1 d          26.661  12.891  32.886  0.00  0.00    -0.057 A 
ATOM     22  C4  UI1 d          27.651  11.902  32.806  0.00  0.00    -0.073 A 
ATOM     23  H7  UI1 d          26.389  13.293  33.855  0.00  0.00     0.086 H 
ATOM     24  C3  UI1 d          28.004  11.377  31.552  0.00  0.00    -0.033 A 
ATOM     25  H6  UI1 d          28.141  11.544  33.705  0.00  0.00     0.084 H 
ATOM     26  C31 UI1 d          27.359  11.854  30.380  0.00  0.00    -0.073 A 
ATOM     27  C30 UI1 d          26.352  12.868  30.460  0.00  0.00    -0.057 A 
ATOM     28  H23 UI1 d          27.632  11.445  29.414  0.00  0.00     0.084 H 
ATOM     29  H22 UI1 d          25.867  13.233  29.562  0.00  0.00     0.086 H 
BRANCH  24  30
ATOM     30  C2  UI1 d          29.092  10.297  31.462  0.00  0.00     0.103 C 
ATOM     31  H4  UI1 d          28.821   9.460  32.122  0.00  0.00     0.082 H 
ATOM     32  H5  UI1 d          29.156   9.939  30.423  0.00  0.00     0.082 H 
BRANCH  30  33
ATOM     33  N1  UI1 d          30.392  10.818  31.865  0.00  0.00    -0.075 N 
ATOM     34  H1  UI1 d          31.040  10.733  31.097  0.00  0.00     0.274 HD
ATOM     35  H2  UI1 d          30.734  10.292  32.654  0.00  0.00     0.274 HD
ATOM     36  H3  UI1 d          30.300  11.789  32.121  0.00  0.00     0.274 HD
ENDBRANCH  30  33
ENDBRANCH  24  30
ENDBRANCH  17  20
ENDBRANCH   1  16
BRANCH   3  37
ATOM     37  N13 UI1 d          23.420  18.735  34.014  0.00  0.00    -0.187 N 
ATOM     38  H10 UI1 d          22.956  19.336  34.710  0.00  0.00     0.184 HD
BRANCH  37  39
ATOM     39  C14 UI1 d          24.671  19.155  33.493  0.00  0.00     0.726 A 
ATOM     40  N15 UI1 d          24.981  18.814  32.219  0.00  0.00    -0.075 NA
ATOM     41  C16 UI1 d          26.150  19.202  31.663  0.00  0.00     0.022 A 
ATOM     42  C17 UI1 d          27.058  19.979  32.415  0.00  0.00    -0.048 A 
ATOM     43  H11 UI1 d          26.390  18.918  30.645  0.00  0.00     0.115 H 
ATOM     44  C18 UI1 d          26.708  20.310  33.732  0.00  0.00     0.022 A 
ATOM     45  H12 UI1 d          27.997  20.310  31.986  0.00  0.00     0.087 H 
ATOM     46  N19 UI1 d          25.524  19.891  34.239  0.00  0.00    -0.075 NA
ATOM     47  H13 UI1 d          27.384  20.898  34.343  0.00  0.00     0.115 H 
ENDBRANCH  37  39
ENDBRANCH   3  37
BRANCH   6  48
ATOM     48  C27 UI1 d          18.396  19.756  34.078  0.00  0.00     0.102 C 
ATOM     49  N29 UI1 d          19.033  20.878  34.385  0.00  0.00    -0.385 N 
ATOM     50  H20 UI1 d          20.063  20.902  34.385  0.00  0.00     0.157 HD
ATOM     51  H21 UI1 d          18.499  21.726  34.624  0.00  0.00     0.157 HD
BRANCH  48  52
ATOM     52  N28 UI1 d          17.093  19.740  34.082  0.00  0.00    -0.385 N 
ATOM     53  H18 UI1 d          16.570  20.467  34.591  0.00  0.00     0.157 HD
ATOM     54  H19 UI1 d          16.586  18.999  33.577  0.00  0.00     0.157 HD
ENDBRANCH  48  52
ENDBRANCH   6  48
TORSDOF 8
ENDMDL
MODEL 3
REMARK VINA RESULT:      -7.1      2.925      9.171
REMARK  8 active torsions:
REMARK  status: ('A' for Active; 'I' for Inactive)
REMARK    1  A    between atoms: N1_1  and  C2_2 
REMARK    2  A    between atoms: C2_2  and  C3_3 
REMARK    3  A    between atoms: C6_6  and  N7_7 
REMARK       I    between atoms: N7_7  and  C8_8 
REMARK    4  A    between atoms: C8_8  and  C10_10 
REMARK    5  A    between atoms: C12_12  and  N13_13 
REMARK    6  A    between atoms: N13_13  and  C14_14 
REMARK    7  A    between atoms: C22_22  and  C27_27 
REMARK    8  A    between atoms: C27_27  and  N28_28 
ROOT
ATOM      1  C10 UI1 d          23.561  14.385  32.227  0.00  0.00     0.035 A 
ATOM      2  C11 UI1 d          24.348  15.008  31.231  0.00  0.00    -0.041 A 
ATOM      3  C12 UI1 d          25.479  14.388  30.751  0.00  0.00     0.061 A 
ATOM      4  C20 UI1 d          25.857  13.099  31.260  0.00  0.00     0.002 A 
ATOM      5  C21 UI1 d          27.034  12.482  30.773  0.00  0.00    -0.057 A 
ATOM      6  C22 UI1 d          27.423  11.213  31.255  0.00  0.00     0.008 A 
ATOM      7  C23 UI1 d          26.639  10.549  32.219  0.00  0.00    -0.069 A 
ATOM      8  C24 UI1 d          25.462  11.164  32.714  0.00  0.00    -0.071 A 
ATOM      9  C25 UI1 d          25.073  12.449  32.236  0.00  0.00    -0.023 A 
ATOM     10  C26 UI1 d          23.917  13.093  32.732  0.00  0.00    -0.057 A 
ATOM     11  H9  UI1 d          24.059  15.978  30.844  0.00  0.00     0.088 H 
ATOM     12  H14 UI1 d          27.639  12.985  30.027  0.00  0.00     0.086 H 
ATOM     13  H15 UI1 d          26.935   9.572  32.581  0.00  0.00     0.085 H 
ATOM     14  H16 UI1 d          24.858  10.656  33.457  0.00  0.00     0.084 H 
ATOM     15  H17 UI1 d          23.306  12.614  33.488  0.00  0.00     0.086 H 
ENDROOT
BRANCH   1  16
ATOM     16  C8  UI1 d          22.396  15.155  32.763  0.00  0.00     0.256 C 
ATOM     17  N7  UI1 d          22.100  16.315  32.207  0.00  0.00    -0.323 N 
ATOM     18  H8  UI1 d          22.718  16.702  31.521  0.00  0.00     0.169 HD
ATOM     19  O9  UI1 d          21.698  14.675  33.648  0.00  0.00    -0.267 OA
BRANCH  17  20
ATOM     20  C6  UI1 d          20.905  17.034  32.568  0.00  0.00     0.035 A 
ATOM     21  C5  UI1 d          21.146  18.142  33.439  0.00  0.00    -0.057 A 
ATOM     22  C4  UI1 d          20.095  18.944  33.908  0.00  0.00    -0.073 A 
ATOM     23  H7  UI1 d          22.162  18.368  33.743  0.00  0.00     0.086 H 
ATOM     24  C3  UI1 d          18.778  18.656  33.513  0.00  0.00    -0.033 A 
ATOM     25  H6  UI1 d          20.298  19.779  34.569  0.00  0.00     0.084 H 
ATOM     26  C31 UI1 d          18.524  17.560  32.648  0.00  0.00    -0.073 A 
ATOM     27  C30 UI1 d          19.595  16.737  32.174  0.00  0.00    -0.057 A 
ATOM     28  H23 UI1 d          17.506  17.342  32.344  0.00  0.00     0.084 H 
ATOM     29  H22 UI1 d          19.395  15.897  31.519  0.00  0.00     0.086 H 
BRANCH  24  30
ATOM     30  C2  UI1 d          17.625  19.531  34.029  0.00  0.00     0.103 C 
ATOM     31  H4  UI1 d          16.716  19.298  33.456  0.00  0.00     0.082 H 
ATOM     32  H5  UI1 d          17.456  19.307  35.093  0.00  0.00     0.082 H 
BRANCH  30  33
ATOM     33  N1  UI1 d          17.928  20.948  33.884  0.00  0.00    -0.075 N 
ATOM     34  H1  UI1 d          17.829  21.406  34.777  0.00  0.00     0.274 HD
ATOM     35  H2  UI1 d          17.291  21.362  33.222  0.00  0.00     0.274 HD
ATOM     36  H3  UI1 d          18.875  21.057  33.554  0.00  0.00     0.274 HD
ENDBRANCH  30  33
ENDBRANCH  24  30
ENDBRANCH  17  20
ENDBRANCH   1  16
BRANCH   3  37
ATOM     37  N13 UI1 d          26.293  15.078  29.784  0.00  0.00    -0.187 N 
ATOM     38  H10 UI1 d          26.504  14.601  28.897  0.00  0.00     0.184 HD
BRANCH  37  39
ATOM     39  C14 UI1 d          26.819  16.380  29.988  0.00  0.00     0.726 A 
ATOM     40  N15 UI1 d          26.229  17.417  29.347  0.00  0.00    -0.075 NA
ATOM     41  C16 UI1 d          26.675  18.682  29.517  0.00  0.00     0.022 A 
ATOM     42  C17 UI1 d          27.765  18.928  30.380  0.00  0.00    -0.048 A 
ATOM     43  H11 UI1 d          26.200  19.503  28.994  0.00  0.00     0.115 H 
ATOM     44  C18 UI1 d          28.356  17.831  31.025  0.00  0.00     0.022 A 
ATOM     45  H12 UI1 d          28.133  19.935  30.540  0.00  0.00     0.087 H 
ATOM     46  N19 UI1 d          27.869  16.585  30.815  0.00  0.00    -0.075 NA
ATOM     47  H13 UI1 d          29.200  17.980  31.689  0.00  0.00     0.115 H 
ENDBRANCH  37  39
ENDBRANCH   3  37
BRANCH   6  48
ATOM     48  C27 UI1 d          28.667  10.628  30.703  0.00  0.00     0.102 C 
ATOM     49  N29 UI1 d          29.728  10.436  31.475  0.00  0.00    -0.385 N 
ATOM     50  H20 UI1 d          29.694  10.694  32.472  0.00  0.00     0.157 HD
ATOM     51  H21 UI1 d          30.587  10.029  31.078  0.00  0.00     0.157 HD
BRANCH  48  52
ATOM     52  N28 UI1 d          28.724  10.297  29.444  0.00  0.00    -0.385 N 
ATOM     53  H18 UI1 d          29.293  10.853  28.790  0.00  0.00     0.157 HD
ATOM     54  H19 UI1 d          28.199   9.479  29.102  0.00  0.00     0.157 HD
ENDBRANCH  48  52
ENDBRANCH   6  48
TORSDOF 8
ENDMDL
MODEL 4
REMARK VINA RESULT:      -6.4      1.973      5.233
REMARK  8 active torsions:
REMARK  status: ('A' for Active; 'I' for Inactive)
REMARK    1  A    between atoms: N1_1  and  C2_2 
REMARK    2  A    between atoms: C2_2  and  C3_3 
REMARK    3  A    between atoms: C6_6  and  N7_7 
REMARK       I    between atoms: N7_7  and  C8_8 
REMARK    4  A    between atoms: C8_8  and  C10_10 
REMARK    5  A    between atoms: C12_12  and  N13_13 
REMARK    6  A    between atoms: N13_13  and  C14_14 
REMARK    7  A    between atoms: C22_22  and  C27_27 
REMARK    8  A    between atoms: C27_27  and  N28_28 
ROOT
ATOM      1  C10 UI1 d          25.292  17.006  32.943  0.00  0.00     0.035 A 
ATOM      2  C11 UI1 d          24.018  17.605  33.070  0.00  0.00    -0.041 A 
ATOM      3  C12 UI1 d          23.745  18.443  34.127  0.00  0.00     0.061 A 
ATOM      4  C20 UI1 d          24.763  18.714  35.103  0.00  0.00     0.002 A 
ATOM      5  C21 UI1 d          24.464  19.561  36.198  0.00  0.00    -0.057 A 
ATOM      6  C22 UI1 d          25.450  19.845  37.167  0.00  0.00     0.008 A 
ATOM      7  C23 UI1 d          26.742  19.295  37.049  0.00  0.00    -0.069 A 
ATOM      8  C24 UI1 d          27.046  18.443  35.958  0.00  0.00    -0.071 A 
ATOM      9  C25 UI1 d          26.049  18.146  34.984  0.00  0.00    -0.023 A 
ATOM     10  C26 UI1 d          26.322  17.280  33.901  0.00  0.00    -0.057 A 
ATOM     11  H9  UI1 d          23.252  17.403  32.330  0.00  0.00     0.088 H 
ATOM     12  H14 UI1 d          23.473  19.992  36.292  0.00  0.00     0.086 H 
ATOM     13  H15 UI1 d          27.499  19.522  37.789  0.00  0.00     0.085 H 
ATOM     14  H16 UI1 d          28.039  18.017  35.866  0.00  0.00     0.084 H 
ATOM     15  H17 UI1 d          27.301  16.828  33.795  0.00  0.00     0.086 H 
ENDROOT
BRANCH   1  16
ATOM     16  C8  UI1 d          25.489  16.040  31.819  0.00  0.00     0.256 C 
ATOM     17  N7  UI1 d          26.643  15.406  31.730  0.00  0.00    -0.323 N 
ATOM     18  H8  UI1 d          27.391  15.662  32.343  0.00  0.00     0.169 HD
ATOM     19  O9  UI1 d          24.567  15.799  31.049  0.00  0.00    -0.267 OA
BRANCH  17  20
ATOM     20  C6  UI1 d          26.845  14.353  30.767  0.00  0.00     0.035 A 
ATOM     21  C5  UI1 d          27.637  14.749  29.645  0.00  0.00    -0.057 A 
ATOM     22  C4  UI1 d          27.919  13.857  28.600  0.00  0.00    -0.073 A 
ATOM     23  H7  UI1 d          28.027  15.759  29.599  0.00  0.00     0.086 H 
ATOM     24  C3  UI1 d          27.418  12.546  28.657  0.00  0.00    -0.033 A 
ATOM     25  H6  UI1 d          28.520  14.176  27.756  0.00  0.00     0.084 H 
ATOM     26  C31 UI1 d          26.630  12.139  29.765  0.00  0.00    -0.073 A 
ATOM     27  C30 UI1 d          26.336  13.050  30.829  0.00  0.00    -0.057 A 
ATOM     28  H23 UI1 d          26.247  11.125  29.807  0.00  0.00     0.084 H 
ATOM     29  H22 UI1 d          25.729  12.736  31.670  0.00  0.00     0.086 H 
BRANCH  24  30
ATOM     30  C2  UI1 d          27.722  11.569  27.511  0.00  0.00     0.103 C 
ATOM     31  H4  UI1 d          27.069  10.689  27.608  0.00  0.00     0.082 H 
ATOM     32  H5  UI1 d          27.524  12.070  26.552  0.00  0.00     0.082 H 
BRANCH  30  33
ATOM     33  N1  UI1 d          29.112  11.133  27.541  0.00  0.00    -0.075 N 
ATOM     34  H1  UI1 d          29.173  10.236  27.997  0.00  0.00     0.274 HD
ATOM     35  H2  UI1 d          29.665  11.807  28.048  0.00  0.00     0.274 HD
ATOM     36  H3  UI1 d          29.459  11.054  26.598  0.00  0.00     0.274 HD
ENDBRANCH  30  33
ENDBRANCH  24  30
ENDBRANCH  17  20
ENDBRANCH   1  16
BRANCH   3  37
ATOM     37  N13 UI1 d          22.418  18.984  34.261  0.00  0.00    -0.187 N 
ATOM     38  H10 UI1 d          22.316  19.931  34.653  0.00  0.00     0.184 HD
BRANCH  37  39
ATOM     39  C14 UI1 d          21.243  18.285  33.881  0.00  0.00     0.726 A 
ATOM     40  N15 UI1 d          21.280  16.931  33.867  0.00  0.00    -0.075 NA
ATOM     41  C16 UI1 d          20.186  16.212  33.531  0.00  0.00     0.022 A 
ATOM     42  C17 UI1 d          18.986  16.879  33.199  0.00  0.00    -0.048 A 
ATOM     43  H11 UI1 d          20.229  15.129  33.517  0.00  0.00     0.115 H 
ATOM     44  C18 UI1 d          18.985  18.281  33.219  0.00  0.00     0.022 A 
ATOM     45  H12 UI1 d          18.094  16.322  32.937  0.00  0.00     0.087 H 
ATOM     46  N19 UI1 d          20.111  18.951  33.560  0.00  0.00    -0.075 NA
ATOM     47  H13 UI1 d          18.084  18.827  32.961  0.00  0.00     0.115 H 
ENDBRANCH  37  39
ENDBRANCH   3  37
BRANCH   6  48
ATOM     48  C27 UI1 d          25.066  20.737  38.286  0.00  0.00     0.102 C 
ATOM     49  N29 UI1 d          25.868  21.716  38.681  0.00  0.00    -0.385 N 
ATOM     50  H20 UI1 d          26.771  21.866  38.207  0.00  0.00     0.157 HD
ATOM     51  H21 UI1 d          25.589  22.328  39.461  0.00  0.00     0.157 HD
BRANCH  48  52
ATOM     52  N28 UI1 d          23.927  20.559  38.894  0.00  0.00    -0.385 N 
ATOM     53  H18 UI1 d          23.905  20.141  39.835  0.00  0.00     0.157 HD
ATOM     54  H19 UI1 d          23.049  20.837  38.433  0.00  0.00     0.157 HD
ENDBRANCH  48  52
ENDBRANCH   6  48
TORSDOF 8
ENDMDL
MODEL 5
REMARK VINA RESULT:      -6.1      2.922      9.111
REMARK  8 active torsions:
REMARK  status: ('A' for Active; 'I' for Inactive)
REMARK    1  A    between atoms: N1_1  and  C2_2 
REMARK    2  A    between atoms: C2_2  and  C3_3 
REMARK    3  A    between atoms: C6_6  and  N7_7 
REMARK       I    between atoms: N7_7  and  C8_8 
REMARK    4  A    between atoms: C8_8  and  C10_10 
REMARK    5  A    between atoms: C12_12  and  N13_13 
REMARK    6  A    between atoms: N13_13  and  C14_14 
REMARK    7  A    between atoms: C22_22  and  C27_27 
REMARK    8  A    between atoms: C27_27  and  N28_28 
ROOT
ATOM      1  C10 UI1 d          24.574  14.186  32.417  0.00  0.00     0.035 A 
ATOM      2  C11 UI1 d          25.697  15.032  32.266  0.00  0.00    -0.041 A 
ATOM      3  C12 UI1 d          26.921  14.507  31.920  0.00  0.00     0.061 A 
ATOM      4  C20 UI1 d          27.056  13.094  31.705  0.00  0.00     0.002 A 
ATOM      5  C21 UI1 d          28.326  12.563  31.371  0.00  0.00    -0.057 A 
ATOM      6  C22 UI1 d          28.482  11.177  31.151  0.00  0.00     0.008 A 
ATOM      7  C23 UI1 d          27.374  10.313  31.256  0.00  0.00    -0.069 A 
ATOM      8  C24 UI1 d          26.103  10.837  31.596  0.00  0.00    -0.071 A 
ATOM      9  C25 UI1 d          25.944  12.234  31.828  0.00  0.00    -0.023 A 
ATOM     10  C26 UI1 d          24.691  12.777  32.191  0.00  0.00    -0.057 A 
ATOM     11  H9  UI1 d          25.592  16.099  32.423  0.00  0.00     0.088 H 
ATOM     12  H14 UI1 d          29.181  13.224  31.283  0.00  0.00     0.086 H 
ATOM     13  H15 UI1 d          27.495   9.251  31.078  0.00  0.00     0.085 H 
ATOM     14  H16 UI1 d          25.249  10.173  31.679  0.00  0.00     0.084 H 
ATOM     15  H17 UI1 d          23.826  12.132  32.298  0.00  0.00     0.086 H 
ENDROOT
BRANCH   1  16
ATOM     16  C8  UI1 d          23.298  14.814  32.879  0.00  0.00     0.256 C 
ATOM     17  N7  UI1 d          23.125  16.107  32.676  0.00  0.00    -0.323 N 
ATOM     18  H8  UI1 d          23.884  16.654  32.322  0.00  0.00     0.169 HD
ATOM     19  O9  UI1 d          22.413  14.120  33.366  0.00  0.00    -0.267 OA
BRANCH  17  20
ATOM     20  C6  UI1 d          21.863  16.745  32.954  0.00  0.00     0.035 A 
ATOM     21  C5  UI1 d          20.786  16.257  32.150  0.00  0.00    -0.057 A 
ATOM     22  C4  UI1 d          19.490  16.778  32.273  0.00  0.00    -0.073 A 
ATOM     23  H7  UI1 d          20.975  15.468  31.431  0.00  0.00     0.086 H 
ATOM     24  C3  UI1 d          19.241  17.798  33.206  0.00  0.00    -0.033 A 
ATOM     25  H6  UI1 d          18.686  16.396  31.653  0.00  0.00     0.084 H 
ATOM     26  C31 UI1 d          20.300  18.292  34.011  0.00  0.00    -0.073 A 
ATOM     27  C30 UI1 d          21.625  17.765  33.882  0.00  0.00    -0.057 A 
ATOM     28  H23 UI1 d          20.104  19.078  34.732  0.00  0.00     0.084 H 
ATOM     29  H22 UI1 d          22.432  18.151  34.495  0.00  0.00     0.086 H 
BRANCH  24  30
ATOM     30  C2  UI1 d          17.823  18.373  33.338  0.00  0.00     0.103 C 
ATOM     31  H4  UI1 d          17.198  17.661  33.897  0.00  0.00     0.082 H 
ATOM     32  H5  UI1 d          17.873  19.326  33.887  0.00  0.00     0.082 H 
BRANCH  30  33
ATOM     33  N1  UI1 d          17.222  18.609  32.033  0.00  0.00    -0.075 N 
ATOM     34  H1  UI1 d          16.253  18.330  32.053  0.00  0.00     0.274 HD
ATOM     35  H2  UI1 d          17.712  18.071  31.335  0.00  0.00     0.274 HD
ATOM     36  H3  UI1 d          17.284  19.590  31.807  0.00  0.00     0.274 HD
ENDBRANCH  30  33
ENDBRANCH  24  30
ENDBRANCH  17  20
ENDBRANCH   1  16
BRANCH   3  37
ATOM     37  N13 UI1 d          28.057  15.388  31.838  0.00  0.00    -0.187 N 
ATOM     38  H10 UI1 d          28.971  15.034  32.153  0.00  0.00     0.184 HD
BRANCH  37  39
ATOM     39  C14 UI1 d          27.986  16.717  31.345  0.00  0.00     0.726 A 
ATOM     40  N15 UI1 d          28.155  17.735  32.223  0.00  0.00    -0.075 NA
ATOM     41  C16 UI1 d          28.116  19.021  31.808  0.00  0.00     0.022 A 
ATOM     42  C17 UI1 d          27.905  19.308  30.442  0.00  0.00    -0.048 A 
ATOM     43  H11 UI1 d          28.247  19.827  32.520  0.00  0.00     0.115 H 
ATOM     44  C18 UI1 d          27.728  18.231  29.561  0.00  0.00     0.022 A 
ATOM     45  H12 UI1 d          27.880  20.331  30.085  0.00  0.00     0.087 H 
ATOM     46  N19 UI1 d          27.774  16.962  30.033  0.00  0.00    -0.075 NA
ATOM     47  H13 UI1 d          27.555  18.413  28.507  0.00  0.00     0.115 H 
ENDBRANCH  37  39
ENDBRANCH   3  37
BRANCH   6  48
ATOM     48  C27 UI1 d          29.838  10.692  30.807  0.00  0.00     0.102 C 
ATOM     49  N29 UI1 d          30.246  10.653  29.546  0.00  0.00    -0.385 N 
ATOM     50  H20 UI1 d          29.617  10.964  28.791  0.00  0.00     0.157 HD
ATOM     51  H21 UI1 d          31.192  10.313  29.321  0.00  0.00     0.157 HD
BRANCH  48  52
ATOM     52  N28 UI1 d          30.644  10.297  31.752  0.00  0.00    -0.385 N 
ATOM     53  H18 UI1 d          31.587   9.957  31.516  0.00  0.00     0.157 HD
ATOM     54  H19 UI1 d          30.337  10.324  32.735  0.00  0.00     0.157 HD
ENDBRANCH  48  52
ENDBRANCH   6  48
TORSDOF 8
ENDMDL
MODEL 6
REMARK VINA RESULT:      -5.8      1.748      2.055
REMARK  8 active torsions:
REMARK  status: ('A' for Active; 'I' for Inactive)
REMARK    1  A    between atoms: N1_1  and  C2_2 
REMARK    2  A    between atoms: C2_2  and  C3_3 
REMARK    3  A    between atoms: C6_6  and  N7_7 
REMARK       I    between atoms: N7_7  and  C8_8 
REMARK    4  A    between atoms: C8_8  and  C10_10 
REMARK    5  A    between atoms: C12_12  and  N13_13 
REMARK    6  A    between atoms: N13_13  and  C14_14 
REMARK    7  A    between atoms: C22_22  and  C27_27 
REMARK    8  A    between atoms: C27_27  and  N28_28 
ROOT
ATOM      1  C10 UI1 d          24.845  16.013  33.019  0.00  0.00     0.035 A 
ATOM      2  C11 UI1 d          24.854  16.996  34.035  0.00  0.00    -0.041 A 
ATOM      3  C12 UI1 d          23.702  17.677  34.353  0.00  0.00     0.061 A 
ATOM      4  C20 UI1 d          22.482  17.382  33.654  0.00  0.00     0.002 A 
ATOM      5  C21 UI1 d          21.308  18.104  33.976  0.00  0.00    -0.057 A 
ATOM      6  C22 UI1 d          20.097  17.828  33.305  0.00  0.00     0.008 A 
ATOM      7  C23 UI1 d          20.046  16.828  32.315  0.00  0.00    -0.069 A 
ATOM      8  C24 UI1 d          21.218  16.105  31.985  0.00  0.00    -0.071 A 
ATOM      9  C25 UI1 d          22.445  16.388  32.654  0.00  0.00    -0.023 A 
ATOM     10  C26 UI1 d          23.633  15.697  32.325  0.00  0.00    -0.057 A 
ATOM     11  H9  UI1 d          25.774  17.214  34.565  0.00  0.00     0.088 H 
ATOM     12  H14 UI1 d          21.339  18.872  34.741  0.00  0.00     0.086 H 
ATOM     13  H15 UI1 d          19.113  16.612  31.808  0.00  0.00     0.085 H 
ATOM     14  H16 UI1 d          21.182  15.335  31.222  0.00  0.00     0.084 H 
ATOM     15  H17 UI1 d          23.627  14.935  31.554  0.00  0.00     0.086 H 
ENDROOT
BRANCH   1  16
ATOM     16  C8  UI1 d          26.152  15.376  32.668  0.00  0.00     0.256 C 
ATOM     17  N7  UI1 d          26.189  14.067  32.506  0.00  0.00    -0.323 N 
ATOM     18  H8  UI1 d          25.379  13.522  32.726  0.00  0.00     0.169 HD
ATOM     19  O9  UI1 d          27.140  16.072  32.466  0.00  0.00    -0.267 OA
BRANCH  17  20
ATOM     20  C6  UI1 d          27.374  13.407  32.018  0.00  0.00     0.035 A 
ATOM     21  C5  UI1 d          27.321  13.093  30.625  0.00  0.00    -0.057 A 
ATOM     22  C4  UI1 d          28.380  12.433  29.985  0.00  0.00    -0.073 A 
ATOM     23  H7  UI1 d          26.445  13.371  30.050  0.00  0.00     0.086 H 
ATOM     24  C3  UI1 d          29.518  12.074  30.725  0.00  0.00    -0.033 A 
ATOM     25  H6  UI1 d          28.321  12.202  28.927  0.00  0.00     0.084 H 
ATOM     26  C31 UI1 d          29.585  12.379  32.110  0.00  0.00    -0.073 A 
ATOM     27  C30 UI1 d          28.502  13.048  32.765  0.00  0.00    -0.057 A 
ATOM     28  H23 UI1 d          30.466  12.102  32.678  0.00  0.00     0.084 H 
ATOM     29  H22 UI1 d          28.555  13.273  33.824  0.00  0.00     0.086 H 
BRANCH  24  30
ATOM     30  C2  UI1 d          30.677  11.346  30.027  0.00  0.00     0.103 C 
ATOM     31  H4  UI1 d          31.629  11.699  30.451  0.00  0.00     0.082 H 
ATOM     32  H5  UI1 d          30.577  10.265  30.201  0.00  0.00     0.082 H 
BRANCH  30  33
ATOM     33  N1  UI1 d          30.674  11.598  28.592  0.00  0.00    -0.075 N 
ATOM     34  H1  UI1 d          29.774  11.353  28.210  0.00  0.00     0.274 HD
ATOM     35  H2  UI1 d          31.390  11.041  28.152  0.00  0.00     0.274 HD
ATOM     36  H3  UI1 d          30.856  12.575  28.423  0.00  0.00     0.274 HD
ENDBRANCH  30  33
ENDBRANCH  24  30
ENDBRANCH  17  20
ENDBRANCH   1  16
BRANCH   3  37
ATOM     37  N13 UI1 d          23.760  18.717  35.347  0.00  0.00    -0.187 N 
ATOM     38  H10 UI1 d          23.107  19.508  35.263  0.00  0.00     0.184 HD
BRANCH  37  39
ATOM     39  C14 UI1 d          24.669  18.710  36.437  0.00  0.00     0.726 A 
ATOM     40  N15 UI1 d          24.491  19.621  37.425  0.00  0.00    -0.075 NA
ATOM     41  C16 UI1 d          25.315  19.650  38.496  0.00  0.00     0.022 A 
ATOM     42  C17 UI1 d          26.368  18.716  38.594  0.00  0.00    -0.048 A 
ATOM     43  H11 UI1 d          25.167  20.387  39.277  0.00  0.00     0.115 H 
ATOM     44  C18 UI1 d          26.527  17.790  37.551  0.00  0.00     0.022 A 
ATOM     45  H12 UI1 d          27.034  18.714  39.449  0.00  0.00     0.087 H 
ATOM     46  N19 UI1 d          25.674  17.809  36.500  0.00  0.00    -0.075 NA
ATOM     47  H13 UI1 d          27.330  17.063  37.588  0.00  0.00     0.115 H 
ENDBRANCH  37  39
ENDBRANCH   3  37
BRANCH   6  48
ATOM     48  C27 UI1 d          18.909  18.624  33.692  0.00  0.00     0.102 C 
ATOM     49  N29 UI1 d          17.709  18.332  33.210  0.00  0.00    -0.385 N 
ATOM     50  H20 UI1 d          17.594  17.542  32.559  0.00  0.00     0.157 HD
ATOM     51  H21 UI1 d          16.891  18.894  33.487  0.00  0.00     0.157 HD
BRANCH  48  52
ATOM     52  N28 UI1 d          19.040  19.626  34.515  0.00  0.00    -0.385 N 
ATOM     53  H18 UI1 d          18.433  20.453  34.422  0.00  0.00     0.157 HD
ATOM     54  H19 UI1 d          19.752  19.591  35.259  0.00  0.00     0.157 HD
ENDBRANCH  48  52
ENDBRANCH   6  48
TORSDOF 8
ENDMDL
