MODEL 1
REMARK VINA RESULT:      -6.5      0.000      0.000
REMARK  21 active torsions:
REMARK  status: ('A' for Active; 'I' for Inactive)
REMARK    1  A    between atoms: C12_6  and  C3_3 
REMARK    2  A    between atoms: O13_7  and  C12_6 
REMARK    3  A    between atoms: C16_8  and  O13_7 
REMARK    4  A    between atoms: C5_11  and  N11_10 
REMARK    5  A    between atoms: CA_13  and  N_12 
REMARK    6  A    between atoms: CA_13  and  CB_16 
REMARK    7  A    between atoms: C_14  and  CA_13 
REMARK       I    between atoms: N_28  and  C_14 
REMARK    8  A    between atoms: CB_16  and  CG_17 
REMARK    9  A    between atoms: CZ_22  and  OH_23 
REMARK   10  A    between atoms: OH_23  and  P_24 
REMARK   11  A    between atoms: CA_29  and  N_28 
REMARK   12  A    between atoms: CA_29  and  CB_33 
REMARK   13  A    between atoms: C_31  and  CA_29 
REMARK   14  A    between atoms: CA_29  and  CH3_30 
REMARK       I    between atoms: C_31  and  N_45 
REMARK   15  A    between atoms: CB_33  and  CG_34 
REMARK   16  A    between atoms: CZ_39  and  OH_40 
REMARK   17  A    between atoms: OH_40  and  P_41 
REMARK   18  A    between atoms: N_45  and  CA_46 
REMARK   19  A    between atoms: CA_46  and  C_47 
REMARK   20  A    between atoms: CA_46  and  CB_49 
REMARK   21  A    between atoms: CB_49  and  CG_50 
REMARK       I    between atoms: CG_50  and  ND2_52 
ROOT
ATOM      1  C   MOL d         -26.771  45.688  31.682  0.00  0.00     0.241 C 
ATOM      2  O   MOL d         -25.697  45.036  31.600  0.00  0.00    -0.271 OA
ATOM      3  N   MOL d         -27.933  45.203  32.001  0.00  0.00    -0.341 N 
ATOM      4  H17 MOL d         -28.707  45.826  32.110  0.00  0.00     0.163 HD
ENDROOT
BRANCH   1   5
ATOM      5  CA  MOL d         -26.856  47.176  31.592  0.00  0.00     0.094 C 
ATOM      6  H10 MOL d         -26.766  47.548  30.561  0.00  0.00     0.088 H 
BRANCH   5   7
ATOM      7  N   MOL d         -28.144  47.416  32.123  0.00  0.00    -0.335 N 
ATOM      8  C16 MOL d         -29.227  47.748  31.460  0.00  0.00     0.292 C 
ATOM      9  O18 MOL d         -29.417  47.270  30.184  0.00  0.00    -0.143 OA
ATOM     10  H9  MOL d         -28.241  47.322  33.114  0.00  0.00     0.164 HD
BRANCH   8  11
ATOM     11  O13 MOL d         -30.194  48.060  32.277  0.00  0.00    -0.310 OA
BRANCH  11  12
ATOM     12  C12 MOL d         -30.257  49.112  33.253  0.00  0.00     0.053 C 
ATOM     13  H5  MOL d         -29.312  49.669  33.165  0.00  0.00     0.082 H 
ATOM     14  H6  MOL d         -31.094  49.760  32.953  0.00  0.00     0.082 H 
BRANCH  12  15
ATOM     15  C3  MOL d         -30.444  48.835  34.699  0.00  0.00    -0.032 A 
ATOM     16  C2  MOL d         -30.951  49.798  35.590  0.00  0.00    -0.075 A 
ATOM     17  C1  MOL d         -31.127  49.441  36.958  0.00  0.00    -0.080 A 
ATOM     18  H2  MOL d         -31.204  50.793  35.242  0.00  0.00     0.084 H 
ATOM     19  C6  MOL d         -30.768  48.139  37.405  0.00  0.00    -0.058 A 
ATOM     20  H1  MOL d         -31.535  50.161  37.658  0.00  0.00     0.083 H 
ATOM     21  C5  MOL d         -30.248  47.202  36.493  0.00  0.00     0.026 A 
ATOM     22  H4  MOL d         -30.895  47.869  38.448  0.00  0.00     0.086 H 
ATOM     23  C4  MOL d         -30.094  47.549  35.144  0.00  0.00    -0.050 A 
ATOM     24  H3  MOL d         -29.705  46.821  34.441  0.00  0.00     0.087 H 
BRANCH  21  25
ATOM     25  N11 MOL d         -29.886  45.963  36.896  0.00  0.00    -0.399 N 
ATOM     26  H7  MOL d         -30.606  45.282  37.176  0.00  0.00     0.156 HD
ATOM     27  H8  MOL d         -28.890  45.700  36.924  0.00  0.00     0.156 HD
ENDBRANCH  21  25
ENDBRANCH  12  15
ENDBRANCH  11  12
ENDBRANCH   8  11
ENDBRANCH   5   7
BRANCH   5  28
ATOM     28  CB  MOL d         -25.716  47.755  32.480  0.00  0.00    -0.014 C 
ATOM     29  H11 MOL d         -25.074  48.398  31.859  0.00  0.00     0.043 H 
ATOM     30  H12 MOL d         -25.120  46.921  32.880  0.00  0.00     0.043 H 
BRANCH  28  31
ATOM     31  CG  MOL d         -26.254  48.578  33.647  0.00  0.00    -0.056 A 
ATOM     32  CD2 MOL d         -26.743  49.896  33.455  0.00  0.00    -0.074 A 
ATOM     33  CE2 MOL d         -27.254  50.642  34.546  0.00  0.00    -0.050 A 
ATOM     34  H14 MOL d         -26.725  50.336  32.465  0.00  0.00     0.084 H 
ATOM     35  CZ  MOL d         -27.258  49.984  35.814  0.00  0.00     0.082 A 
ATOM     36  H16 MOL d         -27.621  51.654  34.425  0.00  0.00     0.087 H 
ATOM     37  CE1 MOL d         -26.788  48.687  36.019  0.00  0.00    -0.050 A 
ATOM     38  CD1 MOL d         -26.283  47.987  34.937  0.00  0.00    -0.074 A 
ATOM     39  H15 MOL d         -26.817  48.237  37.005  0.00  0.00     0.087 H 
ATOM     40  H13 MOL d         -25.908  46.979  35.075  0.00  0.00     0.084 H 
BRANCH  35  41
ATOM     41  OH  MOL d         -27.759  50.679  36.926  0.00  0.00    -0.240 OA
BRANCH  41  42
ATOM     42  P   MOL d         -27.777  52.186  37.140  0.00  0.00     0.427 P 
ATOM     43  O3P MOL d         -28.321  52.475  38.565  0.00  0.00    -0.617 OA
ATOM     44  O2P MOL d         -26.479  52.814  36.952  0.00  0.00    -0.617 OA
ATOM     45  O1P MOL d         -28.711  52.723  36.180  0.00  0.00    -0.617 OA
ENDBRANCH  41  42
ENDBRANCH  35  41
ENDBRANCH  28  31
ENDBRANCH   5  28
ENDBRANCH   1   5
BRANCH   3  46
ATOM     46  CA  MOL d         -28.135  43.802  32.202  0.00  0.00     0.114 C 
BRANCH  46  47
ATOM     47  CB  MOL d         -27.061  43.472  33.299  0.00  0.00    -0.009 C 
ATOM     48  H21 MOL d         -27.584  43.350  34.259  0.00  0.00     0.044 H 
ATOM     49  H22 MOL d         -26.370  44.326  33.364  0.00  0.00     0.044 H 
BRANCH  47  50
ATOM     50  CG  MOL d         -26.227  42.209  33.053  0.00  0.00    -0.055 A 
ATOM     51  CD2 MOL d         -26.858  41.025  32.655  0.00  0.00    -0.074 A 
ATOM     52  CE2 MOL d         -26.129  39.832  32.401  0.00  0.00    -0.050 A 
ATOM     53  H24 MOL d         -27.936  41.017  32.536  0.00  0.00     0.084 H 
ATOM     54  CZ  MOL d         -24.741  39.912  32.573  0.00  0.00     0.082 A 
ATOM     55  H26 MOL d         -26.617  38.914  32.093  0.00  0.00     0.087 H 
ATOM     56  CE1 MOL d         -24.078  41.090  32.968  0.00  0.00    -0.050 A 
ATOM     57  CD1 MOL d         -24.819  42.247  33.213  0.00  0.00    -0.074 A 
ATOM     58  H25 MOL d         -22.999  41.098  33.080  0.00  0.00     0.087 H 
ATOM     59  H23 MOL d         -24.325  43.161  33.520  0.00  0.00     0.084 H 
BRANCH  54  60
ATOM     60  OH  MOL d         -24.017  38.728  32.328  0.00  0.00    -0.240 OA
BRANCH  60  61
ATOM     61  P   MOL d         -23.784  37.607  33.526  0.00  0.00     0.427 P 
ATOM     62  O3P MOL d         -24.927  36.651  33.563  0.00  0.00    -0.617 OA
ATOM     63  O2P MOL d         -22.549  36.838  33.237  0.00  0.00    -0.617 OA
ATOM     64  O1P MOL d         -23.740  38.389  34.775  0.00  0.00    -0.617 OA
ENDBRANCH  60  61
ENDBRANCH  54  60
ENDBRANCH  47  50
ENDBRANCH  46  47
BRANCH  46  65
ATOM     65  C   MOL d         -29.518  43.477  32.820  0.00  0.00     0.246 C 
ATOM     66  O   MOL d         -30.520  44.160  32.527  0.00  0.00    -0.271 OA
ATOM     67  N   MOL d         -29.592  42.501  33.705  0.00  0.00    -0.344 N 
ATOM     68  H27 MOL d         -28.775  41.980  33.953  0.00  0.00     0.163 HD
BRANCH  67  69
ATOM     69  CA  MOL d         -30.869  42.196  34.312  0.00  0.00     0.104 C 
ATOM     70  H28 MOL d         -31.642  42.835  33.859  0.00  0.00     0.090 H 
BRANCH  69  71
ATOM     71  C   MOL d         -30.788  42.481  35.812  0.00  0.00     0.197 C 
ATOM     72  OXT MOL d         -31.840  42.410  36.444  0.00  0.00    -0.646 OA
ATOM     73  O   MOL d         -29.687  42.792  36.368  0.00  0.00    -0.646 OA
ENDBRANCH  69  71
BRANCH  69  74
ATOM     74  CB  MOL d         -31.260  40.706  34.099  0.00  0.00     0.037 C 
ATOM     75  H29 MOL d         -31.233  40.488  33.022  0.00  0.00     0.051 H 
ATOM     76  H30 MOL d         -32.281  40.555  34.479  0.00  0.00     0.051 H 
BRANCH  74  77
ATOM     77  CG  MOL d         -30.295  39.703  34.840  0.00  0.00     0.217 C 
ATOM     78  OD1 MOL d         -29.130  39.663  34.580  0.00  0.00    -0.274 OA
ATOM     79  ND2 MOL d         -30.836  38.905  35.718  0.00  0.00    -0.370 N 
ATOM     80  H31 MOL d         -30.267  38.250  36.215  0.00  0.00     0.159 HD
ATOM     81  H32 MOL d         -31.820  38.947  35.894  0.00  0.00     0.159 HD
ENDBRANCH  74  77
ENDBRANCH  69  74
ENDBRANCH  67  69
ENDBRANCH  46  65
BRANCH  46  82
ATOM     82  CH3 MOL d         -27.621  42.992  30.980  0.00  0.00    -0.044 C 
ATOM     83  H18 MOL d         -26.585  42.673  31.161  0.00  0.00     0.031 H 
ATOM     84  H19 MOL d         -27.659  43.623  30.079  0.00  0.00     0.031 H 
ATOM     85  H20 MOL d         -28.257  42.106  30.834  0.00  0.00     0.031 H 
ENDBRANCH  46  82
ENDBRANCH   3  46
TORSDOF 21
ENDMDL
MODEL 2
REMARK VINA RESULT:      -6.1      2.817      4.857
REMARK  21 active torsions:
REMARK  status: ('A' for Active; 'I' for Inactive)
REMARK    1  A    between atoms: C12_6  and  C3_3 
REMARK    2  A    between atoms: O13_7  and  C12_6 
REMARK    3  A    between atoms: C16_8  and  O13_7 
REMARK    4  A    between atoms: C5_11  and  N11_10 
REMARK    5  A    between atoms: CA_13  and  N_12 
REMARK    6  A    between atoms: CA_13  and  CB_16 
REMARK    7  A    between atoms: C_14  and  CA_13 
REMARK       I    between atoms: N_28  and  C_14 
REMARK    8  A    between atoms: CB_16  and  CG_17 
REMARK    9  A    between atoms: CZ_22  and  OH_23 
REMARK   10  A    between atoms: OH_23  and  P_24 
REMARK   11  A    between atoms: CA_29  and  N_28 
REMARK   12  A    between atoms: CA_29  and  CB_33 
REMARK   13  A    between atoms: C_31  and  CA_29 
REMARK   14  A    between atoms: CA_29  and  CH3_30 
REMARK       I    between atoms: C_31  and  N_45 
REMARK   15  A    between atoms: CB_33  and  CG_34 
REMARK   16  A    between atoms: CZ_39  and  OH_40 
REMARK   17  A    between atoms: OH_40  and  P_41 
REMARK   18  A    between atoms: N_45  and  CA_46 
REMARK   19  A    between atoms: CA_46  and  C_47 
REMARK   20  A    between atoms: CA_46  and  CB_49 
REMARK   21  A    between atoms: CB_49  and  CG_50 
REMARK       I    between atoms: CG_50  and  ND2_52 
ROOT
ATOM      1  C   MOL d         -28.196  44.591  34.016  0.00  0.00     0.241 C 
ATOM      2  O   MOL d         -28.482  44.052  35.119  0.00  0.00    -0.271 OA
ATOM      3  N   MOL d         -28.388  44.068  32.842  0.00  0.00    -0.341 N 
ATOM      4  H17 MOL d         -28.193  44.615  32.029  0.00  0.00     0.163 HD
ENDROOT
BRANCH   1   5
ATOM      5  CA  MOL d         -27.742  46.005  33.868  0.00  0.00     0.094 C 
ATOM      6  H10 MOL d         -26.922  46.264  34.554  0.00  0.00     0.088 H 
BRANCH   5   7
ATOM      7  N   MOL d         -27.319  46.024  32.520  0.00  0.00    -0.335 N 
ATOM      8  C16 MOL d         -26.557  46.920  31.938  0.00  0.00     0.292 C 
ATOM      9  O18 MOL d         -25.568  47.545  32.661  0.00  0.00    -0.143 OA
ATOM     10  H9  MOL d         -27.635  45.269  31.944  0.00  0.00     0.164 HD
BRANCH   8  11
ATOM     11  O13 MOL d         -26.509  46.723  30.650  0.00  0.00    -0.310 OA
BRANCH  11  12
ATOM     12  C12 MOL d         -27.153  47.453  29.594  0.00  0.00     0.053 C 
ATOM     13  H5  MOL d         -26.384  48.110  29.161  0.00  0.00     0.082 H 
ATOM     14  H6  MOL d         -27.461  46.706  28.846  0.00  0.00     0.082 H 
BRANCH  12  15
ATOM     15  C3  MOL d         -28.341  48.309  29.838  0.00  0.00    -0.032 A 
ATOM     16  C2  MOL d         -28.257  49.711  29.903  0.00  0.00    -0.075 A 
ATOM     17  C1  MOL d         -29.451  50.460  30.113  0.00  0.00    -0.080 A 
ATOM     18  H2  MOL d         -27.302  50.213  29.796  0.00  0.00     0.084 H 
ATOM     19  C6  MOL d         -30.694  49.787  30.276  0.00  0.00    -0.058 A 
ATOM     20  H1  MOL d         -29.412  51.543  30.147  0.00  0.00     0.083 H 
ATOM     21  C5  MOL d         -30.743  48.382  30.221  0.00  0.00     0.026 A 
ATOM     22  H4  MOL d         -31.602  50.357  30.442  0.00  0.00     0.086 H 
ATOM     23  C4  MOL d         -29.571  47.648  29.995  0.00  0.00    -0.050 A 
ATOM     24  H3  MOL d         -29.614  46.566  29.941  0.00  0.00     0.087 H 
BRANCH  21  25
ATOM     25  N11 MOL d         -31.910  47.719  30.386  0.00  0.00    -0.399 N 
ATOM     26  H7  MOL d         -32.646  48.114  30.990  0.00  0.00     0.156 HD
ATOM     27  H8  MOL d         -32.064  46.819  29.909  0.00  0.00     0.156 HD
ENDBRANCH  21  25
ENDBRANCH  12  15
ENDBRANCH  11  12
ENDBRANCH   8  11
ENDBRANCH   5   7
BRANCH   5  28
ATOM     28  CB  MOL d         -28.978  46.914  34.130  0.00  0.00    -0.014 C 
ATOM     29  H11 MOL d         -29.510  46.542  35.018  0.00  0.00     0.043 H 
ATOM     30  H12 MOL d         -29.645  46.864  33.256  0.00  0.00     0.043 H 
BRANCH  28  31
ATOM     31  CG  MOL d         -28.585  48.369  34.366  0.00  0.00    -0.056 A 
ATOM     32  CD2 MOL d         -29.208  49.426  33.652  0.00  0.00    -0.074 A 
ATOM     33  CE2 MOL d         -28.843  50.773  33.893  0.00  0.00    -0.050 A 
ATOM     34  H14 MOL d         -29.970  49.200  32.915  0.00  0.00     0.084 H 
ATOM     35  CZ  MOL d         -27.845  50.988  34.891  0.00  0.00     0.082 A 
ATOM     36  H16 MOL d         -29.296  51.595  33.351  0.00  0.00     0.087 H 
ATOM     37  CE1 MOL d         -27.227  49.962  35.608  0.00  0.00    -0.050 A 
ATOM     38  CD1 MOL d         -27.595  48.655  35.342  0.00  0.00    -0.074 A 
ATOM     39  H15 MOL d         -26.475  50.184  36.357  0.00  0.00     0.087 H 
ATOM     40  H13 MOL d         -27.125  47.842  35.883  0.00  0.00     0.084 H 
BRANCH  35  41
ATOM     41  OH  MOL d         -27.452  52.306  35.171  0.00  0.00    -0.240 OA
BRANCH  41  42
ATOM     42  P   MOL d         -28.045  53.244  36.213  0.00  0.00     0.427 P 
ATOM     43  O3P MOL d         -27.645  54.700  35.851  0.00  0.00    -0.617 OA
ATOM     44  O2P MOL d         -29.488  53.130  36.341  0.00  0.00    -0.617 OA
ATOM     45  O1P MOL d         -27.425  52.902  37.469  0.00  0.00    -0.617 OA
ENDBRANCH  41  42
ENDBRANCH  35  41
ENDBRANCH  28  31
ENDBRANCH   5  28
ENDBRANCH   1   5
BRANCH   3  46
ATOM     46  CA  MOL d         -28.871  42.732  32.683  0.00  0.00     0.114 C 
BRANCH  46  47
ATOM     47  CB  MOL d         -29.161  42.672  31.141  0.00  0.00    -0.009 C 
ATOM     48  H21 MOL d         -28.468  43.362  30.638  0.00  0.00     0.044 H 
ATOM     49  H22 MOL d         -30.196  43.010  30.978  0.00  0.00     0.044 H 
BRANCH  47  50
ATOM     50  CG  MOL d         -29.008  41.293  30.490  0.00  0.00    -0.055 A 
ATOM     51  CD2 MOL d         -29.848  40.243  30.877  0.00  0.00    -0.074 A 
ATOM     52  CE2 MOL d         -29.755  38.950  30.294  0.00  0.00    -0.050 A 
ATOM     53  H24 MOL d         -30.593  40.421  31.644  0.00  0.00     0.084 H 
ATOM     54  CZ  MOL d         -28.772  38.790  29.309  0.00  0.00     0.082 A 
ATOM     55  H26 MOL d         -30.406  38.137  30.594  0.00  0.00     0.087 H 
ATOM     56  CE1 MOL d         -27.916  39.828  28.895  0.00  0.00    -0.050 A 
ATOM     57  CD1 MOL d         -28.028  41.088  29.486  0.00  0.00    -0.074 A 
ATOM     58  H25 MOL d         -27.175  39.651  28.123  0.00  0.00     0.087 H 
ATOM     59  H23 MOL d         -27.375  41.897  29.182  0.00  0.00     0.084 H 
BRANCH  54  60
ATOM     60  OH  MOL d         -28.674  37.507  28.734  0.00  0.00    -0.240 OA
BRANCH  60  61
ATOM     61  P   MOL d         -27.763  36.320  29.447  0.00  0.00     0.427 P 
ATOM     62  O3P MOL d         -26.634  35.934  28.553  0.00  0.00    -0.617 OA
ATOM     63  O2P MOL d         -27.192  36.842  30.712  0.00  0.00    -0.617 OA
ATOM     64  O1P MOL d         -28.686  35.182  29.615  0.00  0.00    -0.617 OA
ENDBRANCH  60  61
ENDBRANCH  54  60
ENDBRANCH  47  50
ENDBRANCH  46  47
BRANCH  46  65
ATOM     65  C   MOL d         -27.786  41.664  32.974  0.00  0.00     0.246 C 
ATOM     66  O   MOL d         -28.015  40.725  33.761  0.00  0.00    -0.271 OA
ATOM     67  N   MOL d         -26.601  41.811  32.413  0.00  0.00    -0.344 N 
ATOM     68  H27 MOL d         -26.420  42.586  31.806  0.00  0.00     0.163 HD
BRANCH  67  69
ATOM     69  CA  MOL d         -25.566  40.838  32.687  0.00  0.00     0.104 C 
ATOM     70  H28 MOL d         -25.961  40.084  33.384  0.00  0.00     0.090 H 
BRANCH  69  71
ATOM     71  C   MOL d         -24.373  41.549  33.329  0.00  0.00     0.197 C 
ATOM     72  OXT MOL d         -24.055  42.634  32.847  0.00  0.00    -0.646 OA
ATOM     73  O   MOL d         -23.738  41.031  34.301  0.00  0.00    -0.646 OA
ENDBRANCH  69  71
BRANCH  69  74
ATOM     74  CB  MOL d         -25.093  40.126  31.389  0.00  0.00     0.037 C 
ATOM     75  H29 MOL d         -24.599  40.867  30.744  0.00  0.00     0.051 H 
ATOM     76  H30 MOL d         -25.974  39.719  30.873  0.00  0.00     0.051 H 
BRANCH  74  77
ATOM     77  CG  MOL d         -24.083  38.947  31.664  0.00  0.00     0.217 C 
ATOM     78  OD1 MOL d         -23.195  38.706  30.902  0.00  0.00    -0.274 OA
ATOM     79  ND2 MOL d         -24.286  38.236  32.738  0.00  0.00    -0.370 N 
ATOM     80  H31 MOL d         -23.673  37.476  32.956  0.00  0.00     0.159 HD
ATOM     81  H32 MOL d         -25.053  38.449  33.342  0.00  0.00     0.159 HD
ENDBRANCH  74  77
ENDBRANCH  69  74
ENDBRANCH  67  69
ENDBRANCH  46  65
BRANCH  46  82
ATOM     82  CH3 MOL d         -30.290  42.584  33.295  0.00  0.00    -0.044 C 
ATOM     83  H18 MOL d         -30.480  43.418  33.987  0.00  0.00     0.031 H 
ATOM     84  H19 MOL d         -30.357  41.631  33.842  0.00  0.00     0.031 H 
ATOM     85  H20 MOL d         -31.040  42.597  32.491  0.00  0.00     0.031 H 
ENDBRANCH  46  82
ENDBRANCH   3  46
TORSDOF 21
ENDMDL
MODEL 3
REMARK VINA RESULT:      -6.0      2.831      8.320
REMARK  21 active torsions:
REMARK  status: ('A' for Active; 'I' for Inactive)
REMARK    1  A    between atoms: C12_6  and  C3_3 
REMARK    2  A    between atoms: O13_7  and  C12_6 
REMARK    3  A    between atoms: C16_8  and  O13_7 
REMARK    4  A    between atoms: C5_11  and  N11_10 
REMARK    5  A    between atoms: CA_13  and  N_12 
REMARK    6  A    between atoms: CA_13  and  CB_16 
REMARK    7  A    between atoms: C_14  and  CA_13 
REMARK       I    between atoms: N_28  and  C_14 
REMARK    8  A    between atoms: CB_16  and  CG_17 
REMARK    9  A    between atoms: CZ_22  and  OH_23 
REMARK   10  A    between atoms: OH_23  and  P_24 
REMARK   11  A    between atoms: CA_29  and  N_28 
REMARK   12  A    between atoms: CA_29  and  CB_33 
REMARK   13  A    between atoms: C_31  and  CA_29 
REMARK   14  A    between atoms: CA_29  and  CH3_30 
REMARK       I    between atoms: C_31  and  N_45 
REMARK   15  A    between atoms: CB_33  and  CG_34 
REMARK   16  A    between atoms: CZ_39  and  OH_40 
REMARK   17  A    between atoms: OH_40  and  P_41 
REMARK   18  A    between atoms: N_45  and  CA_46 
REMARK   19  A    between atoms: CA_46  and  C_47 
REMARK   20  A    between atoms: CA_46  and  CB_49 
REMARK   21  A    between atoms: CB_49  and  CG_50 
REMARK       I    between atoms: CG_50  and  ND2_52 
ROOT
ATOM      1  C   MOL d         -27.926  44.547  33.099  0.00  0.00     0.241 C 
ATOM      2  O   MOL d         -29.024  44.219  32.576  0.00  0.00    -0.271 OA
ATOM      3  N   MOL d         -27.767  45.026  34.296  0.00  0.00    -0.341 N 
ATOM      4  H17 MOL d         -26.841  45.183  34.637  0.00  0.00     0.163 HD
ENDROOT
BRANCH   1   5
ATOM      5  CA  MOL d         -26.592  44.276  32.484  0.00  0.00     0.094 C 
ATOM      6  H10 MOL d         -25.759  44.672  33.082  0.00  0.00     0.088 H 
BRANCH   5   7
ATOM      7  N   MOL d         -26.583  42.863  32.448  0.00  0.00    -0.335 N 
ATOM      8  C16 MOL d         -25.537  42.074  32.519  0.00  0.00     0.292 C 
ATOM      9  O18 MOL d         -24.451  42.448  33.276  0.00  0.00    -0.143 OA
ATOM     10  H9  MOL d         -27.472  42.415  32.359  0.00  0.00     0.164 HD
BRANCH   8  11
ATOM     11  O13 MOL d         -25.872  40.836  32.281  0.00  0.00    -0.310 OA
BRANCH  11  12
ATOM     12  C12 MOL d         -25.042  39.724  31.909  0.00  0.00     0.053 C 
ATOM     13  H5  MOL d         -25.420  39.371  30.938  0.00  0.00     0.082 H 
ATOM     14  H6  MOL d         -24.026  40.127  31.782  0.00  0.00     0.082 H 
BRANCH  12  15
ATOM     15  C3  MOL d         -24.908  38.519  32.766  0.00  0.00    -0.032 A 
ATOM     16  C2  MOL d         -23.692  38.160  33.373  0.00  0.00    -0.075 A 
ATOM     17  C1  MOL d         -23.657  37.004  34.204  0.00  0.00    -0.080 A 
ATOM     18  H2  MOL d         -22.798  38.751  33.211  0.00  0.00     0.084 H 
ATOM     19  C6  MOL d         -24.832  36.223  34.388  0.00  0.00    -0.058 A 
ATOM     20  H1  MOL d         -22.735  36.719  34.698  0.00  0.00     0.083 H 
ATOM     21  C5  MOL d         -26.031  36.600  33.755  0.00  0.00     0.026 A 
ATOM     22  H4  MOL d         -24.804  35.339  35.016  0.00  0.00     0.086 H 
ATOM     23  C4  MOL d         -26.068  37.749  32.954  0.00  0.00    -0.050 A 
ATOM     24  H3  MOL d         -26.996  38.044  32.477  0.00  0.00     0.087 H 
BRANCH  21  25
ATOM     25  N11 MOL d         -27.157  35.867  33.903  0.00  0.00    -0.399 N 
ATOM     26  H7  MOL d         -27.769  35.693  33.093  0.00  0.00     0.156 HD
ATOM     27  H8  MOL d         -27.404  35.482  34.826  0.00  0.00     0.156 HD
ENDBRANCH  21  25
ENDBRANCH  12  15
ENDBRANCH  11  12
ENDBRANCH   8  11
ENDBRANCH   5   7
BRANCH   5  28
ATOM     28  CB  MOL d         -26.601  44.920  31.067  0.00  0.00    -0.014 C 
ATOM     29  H11 MOL d         -27.191  44.282  30.392  0.00  0.00     0.043 H 
ATOM     30  H12 MOL d         -25.566  44.983  30.700  0.00  0.00     0.043 H 
BRANCH  28  31
ATOM     31  CG  MOL d         -27.206  46.320  31.072  0.00  0.00    -0.056 A 
ATOM     32  CD2 MOL d         -28.339  46.637  30.278  0.00  0.00    -0.074 A 
ATOM     33  CE2 MOL d         -28.899  47.938  30.306  0.00  0.00    -0.050 A 
ATOM     34  H14 MOL d         -28.780  45.876  29.644  0.00  0.00     0.084 H 
ATOM     35  CZ  MOL d         -28.270  48.877  31.179  0.00  0.00     0.082 A 
ATOM     36  H16 MOL d         -29.755  48.205  29.699  0.00  0.00     0.087 H 
ATOM     37  CE1 MOL d         -27.161  48.582  31.972  0.00  0.00    -0.050 A 
ATOM     38  CD1 MOL d         -26.628  47.305  31.915  0.00  0.00    -0.074 A 
ATOM     39  H15 MOL d         -26.725  49.335  32.619  0.00  0.00     0.087 H 
ATOM     40  H13 MOL d         -25.763  47.055  32.519  0.00  0.00     0.084 H 
BRANCH  35  41
ATOM     41  OH  MOL d         -28.791  50.179  31.247  0.00  0.00    -0.240 OA
BRANCH  41  42
ATOM     42  P   MOL d         -29.849  50.701  32.208  0.00  0.00     0.427 P 
ATOM     43  O3P MOL d         -30.934  49.606  32.389  0.00  0.00    -0.617 OA
ATOM     44  O2P MOL d         -29.313  51.106  33.496  0.00  0.00    -0.617 OA
ATOM     45  O1P MOL d         -30.457  51.840  31.563  0.00  0.00    -0.617 OA
ENDBRANCH  41  42
ENDBRANCH  35  41
ENDBRANCH  28  31
ENDBRANCH   5  28
ENDBRANCH   1   5
BRANCH   3  46
ATOM     46  CA  MOL d         -28.880  45.335  35.137  0.00  0.00     0.114 C 
BRANCH  46  47
ATOM     47  CB  MOL d         -29.308  46.749  34.605  0.00  0.00    -0.009 C 
ATOM     48  H21 MOL d         -30.406  46.766  34.532  0.00  0.00     0.044 H 
ATOM     49  H22 MOL d         -28.872  46.880  33.603  0.00  0.00     0.044 H 
BRANCH  47  50
ATOM     50  CG  MOL d         -28.875  47.941  35.467  0.00  0.00    -0.055 A 
ATOM     51  CD2 MOL d         -27.534  48.343  35.475  0.00  0.00    -0.074 A 
ATOM     52  CE2 MOL d         -27.085  49.449  36.246  0.00  0.00    -0.050 A 
ATOM     53  H24 MOL d         -26.817  47.795  34.876  0.00  0.00     0.084 H 
ATOM     54  CZ  MOL d         -28.064  50.114  36.996  0.00  0.00     0.082 A 
ATOM     55  H26 MOL d         -26.047  49.761  36.253  0.00  0.00     0.087 H 
ATOM     56  CE1 MOL d         -29.420  49.736  37.004  0.00  0.00    -0.050 A 
ATOM     57  CD1 MOL d         -29.834  48.644  36.239  0.00  0.00    -0.074 A 
ATOM     58  H25 MOL d         -30.139  50.289  37.599  0.00  0.00     0.087 H 
ATOM     59  H23 MOL d         -30.873  48.337  36.236  0.00  0.00     0.084 H 
BRANCH  54  60
ATOM     60  OH  MOL d         -27.619  51.207  37.766  0.00  0.00    -0.240 OA
BRANCH  60  61
ATOM     61  P   MOL d         -27.292  52.670  37.059  0.00  0.00     0.427 P 
ATOM     62  O3P MOL d         -25.874  52.713  36.602  0.00  0.00    -0.617 OA
ATOM     63  O2P MOL d         -28.165  52.841  35.873  0.00  0.00    -0.617 OA
ATOM     64  O1P MOL d         -27.508  53.664  38.127  0.00  0.00    -0.617 OA
ENDBRANCH  60  61
ENDBRANCH  54  60
ENDBRANCH  47  50
ENDBRANCH  46  47
BRANCH  46  65
ATOM     65  C   MOL d         -30.086  44.389  34.907  0.00  0.00     0.246 C 
ATOM     66  O   MOL d         -31.179  44.839  34.511  0.00  0.00    -0.271 OA
ATOM     67  N   MOL d         -29.939  43.110  35.199  0.00  0.00    -0.344 N 
ATOM     68  H27 MOL d         -29.065  42.766  35.544  0.00  0.00     0.163 HD
BRANCH  67  69
ATOM     69  CA  MOL d         -31.058  42.212  35.013  0.00  0.00     0.104 C 
ATOM     70  H28 MOL d         -31.950  42.802  34.752  0.00  0.00     0.090 H 
BRANCH  69  71
ATOM     71  C   MOL d         -31.311  41.457  36.318  0.00  0.00     0.197 C 
ATOM     72  OXT MOL d         -31.761  42.113  37.256  0.00  0.00    -0.646 OA
ATOM     73  O   MOL d         -31.051  40.217  36.427  0.00  0.00    -0.646 OA
ENDBRANCH  69  71
BRANCH  69  74
ATOM     74  CB  MOL d         -30.783  41.186  33.879  0.00  0.00     0.037 C 
ATOM     75  H29 MOL d         -30.798  41.716  32.915  0.00  0.00     0.051 H 
ATOM     76  H30 MOL d         -31.581  40.428  33.892  0.00  0.00     0.051 H 
BRANCH  74  77
ATOM     77  CG  MOL d         -29.394  40.455  34.029  0.00  0.00     0.217 C 
ATOM     78  OD1 MOL d         -28.378  41.076  34.125  0.00  0.00    -0.274 OA
ATOM     79  ND2 MOL d         -29.408  39.151  34.010  0.00  0.00    -0.370 N 
ATOM     80  H31 MOL d         -28.553  38.641  34.102  0.00  0.00     0.159 HD
ATOM     81  H32 MOL d         -30.274  38.662  33.904  0.00  0.00     0.159 HD
ENDBRANCH  74  77
ENDBRANCH  69  74
ENDBRANCH  67  69
ENDBRANCH  46  65
BRANCH  46  82
ATOM     82  CH3 MOL d         -28.407  45.652  36.582  0.00  0.00    -0.044 C 
ATOM     83  H18 MOL d         -28.357  44.720  37.164  0.00  0.00     0.031 H 
ATOM     84  H19 MOL d         -29.117  46.345  37.058  0.00  0.00     0.031 H 
ATOM     85  H20 MOL d         -27.410  46.115  36.547  0.00  0.00     0.031 H 
ENDBRANCH  46  82
ENDBRANCH   3  46
TORSDOF 21
ENDMDL
MODEL 4
REMARK VINA RESULT:      -5.7      3.172      7.864
REMARK  21 active torsions:
REMARK  status: ('A' for Active; 'I' for Inactive)
REMARK    1  A    between atoms: C12_6  and  C3_3 
REMARK    2  A    between atoms: O13_7  and  C12_6 
REMARK    3  A    between atoms: C16_8  and  O13_7 
REMARK    4  A    between atoms: C5_11  and  N11_10 
REMARK    5  A    between atoms: CA_13  and  N_12 
REMARK    6  A    between atoms: CA_13  and  CB_16 
REMARK    7  A    between atoms: C_14  and  CA_13 
REMARK       I    between atoms: N_28  and  C_14 
REMARK    8  A    between atoms: CB_16  and  CG_17 
REMARK    9  A    between atoms: CZ_22  and  OH_23 
REMARK   10  A    between atoms: OH_23  and  P_24 
REMARK   11  A    between atoms: CA_29  and  N_28 
REMARK   12  A    between atoms: CA_29  and  CB_33 
REMARK   13  A    between atoms: C_31  and  CA_29 
REMARK   14  A    between atoms: CA_29  and  CH3_30 
REMARK       I    between atoms: C_31  and  N_45 
REMARK   15  A    between atoms: CB_33  and  CG_34 
REMARK   16  A    between atoms: CZ_39  and  OH_40 
REMARK   17  A    between atoms: OH_40  and  P_41 
REMARK   18  A    between atoms: N_45  and  CA_46 
REMARK   19  A    between atoms: CA_46  and  C_47 
REMARK   20  A    between atoms: CA_46  and  CB_49 
REMARK   21  A    between atoms: CB_49  and  CG_50 
REMARK       I    between atoms: CG_50  and  ND2_52 
ROOT
ATOM      1  C   MOL d         -28.032  46.146  30.995  0.00  0.00     0.241 C 
ATOM      2  O   MOL d         -27.637  46.357  29.818  0.00  0.00    -0.271 OA
ATOM      3  N   MOL d         -29.267  45.981  31.364  0.00  0.00    -0.341 N 
ATOM      4  H17 MOL d         -29.462  45.743  32.315  0.00  0.00     0.163 HD
ENDROOT
BRANCH   1   5
ATOM      5  CA  MOL d         -27.123  45.876  32.148  0.00  0.00     0.094 C 
ATOM      6  H10 MOL d         -26.091  45.659  31.836  0.00  0.00     0.088 H 
BRANCH   5   7
ATOM      7  N   MOL d         -27.206  47.094  32.861  0.00  0.00    -0.335 N 
ATOM      8  C16 MOL d         -26.293  48.033  32.939  0.00  0.00     0.292 C 
ATOM      9  O18 MOL d         -25.467  48.270  31.865  0.00  0.00    -0.143 OA
ATOM     10  H9  MOL d         -28.056  47.259  33.361  0.00  0.00     0.164 HD
BRANCH   8  11
ATOM     11  O13 MOL d         -26.629  48.936  33.817  0.00  0.00    -0.310 OA
BRANCH  11  12
ATOM     12  C12 MOL d         -26.303  49.013  35.214  0.00  0.00     0.053 C 
ATOM     13  H5  MOL d         -26.434  47.997  35.616  0.00  0.00     0.082 H 
ATOM     14  H6  MOL d         -25.241  49.295  35.268  0.00  0.00     0.082 H 
BRANCH  12  15
ATOM     15  C3  MOL d         -27.022  49.922  36.142  0.00  0.00    -0.032 A 
ATOM     16  C2  MOL d         -28.003  49.461  37.037  0.00  0.00    -0.075 A 
ATOM     17  C1  MOL d         -28.624  50.396  37.915  0.00  0.00    -0.080 A 
ATOM     18  H2  MOL d         -28.282  48.414  37.060  0.00  0.00     0.084 H 
ATOM     19  C6  MOL d         -28.266  51.772  37.858  0.00  0.00    -0.058 A 
ATOM     20  H1  MOL d         -29.369  50.060  38.627  0.00  0.00     0.083 H 
ATOM     21  C5  MOL d         -27.291  52.205  36.940  0.00  0.00     0.026 A 
ATOM     22  H4  MOL d         -28.743  52.485  38.520  0.00  0.00     0.086 H 
ATOM     23  C4  MOL d         -26.667  51.281  36.092  0.00  0.00    -0.050 A 
ATOM     24  H3  MOL d         -25.908  51.616  35.394  0.00  0.00     0.087 H 
BRANCH  21  25
ATOM     25  N11 MOL d         -26.943  53.510  36.856  0.00  0.00    -0.399 N 
ATOM     26  H7  MOL d         -27.209  54.062  36.028  0.00  0.00     0.156 HD
ATOM     27  H8  MOL d         -26.413  53.951  37.621  0.00  0.00     0.156 HD
ENDBRANCH  21  25
ENDBRANCH  12  15
ENDBRANCH  11  12
ENDBRANCH   8  11
ENDBRANCH   5   7
BRANCH   5  28
ATOM     28  CB  MOL d         -27.720  44.672  32.932  0.00  0.00    -0.014 C 
ATOM     29  H11 MOL d         -28.775  44.549  32.644  0.00  0.00     0.043 H 
ATOM     30  H12 MOL d         -27.656  44.884  34.010  0.00  0.00     0.043 H 
BRANCH  28  31
ATOM     31  CG  MOL d         -26.978  43.370  32.643  0.00  0.00    -0.056 A 
ATOM     32  CD2 MOL d         -25.647  43.165  33.090  0.00  0.00    -0.074 A 
ATOM     33  CE2 MOL d         -24.977  41.945  32.827  0.00  0.00    -0.050 A 
ATOM     34  H14 MOL d         -25.138  43.950  33.638  0.00  0.00     0.084 H 
ATOM     35  CZ  MOL d         -25.722  40.956  32.116  0.00  0.00     0.082 A 
ATOM     36  H16 MOL d         -23.957  41.772  33.148  0.00  0.00     0.087 H 
ATOM     37  CE1 MOL d         -27.033  41.137  31.675  0.00  0.00    -0.050 A 
ATOM     38  CD1 MOL d         -27.658  42.344  31.936  0.00  0.00    -0.074 A 
ATOM     39  H15 MOL d         -27.551  40.350  31.139  0.00  0.00     0.087 H 
ATOM     40  H13 MOL d         -28.675  42.508  31.598  0.00  0.00     0.084 H 
BRANCH  35  41
ATOM     41  OH  MOL d         -25.104  39.728  31.835  0.00  0.00    -0.240 OA
BRANCH  41  42
ATOM     42  P   MOL d         -24.140  38.955  32.724  0.00  0.00     0.427 P 
ATOM     43  O3P MOL d         -22.894  38.569  31.881  0.00  0.00    -0.617 OA
ATOM     44  O2P MOL d         -23.743  39.683  33.918  0.00  0.00    -0.617 OA
ATOM     45  O1P MOL d         -24.822  37.743  33.107  0.00  0.00    -0.617 OA
ENDBRANCH  41  42
ENDBRANCH  35  41
ENDBRANCH  28  31
ENDBRANCH   5  28
ENDBRANCH   1   5
BRANCH   3  46
ATOM     46  CA  MOL d         -30.354  46.129  30.447  0.00  0.00     0.114 C 
BRANCH  46  47
ATOM     47  CB  MOL d         -31.586  45.731  31.336  0.00  0.00    -0.009 C 
ATOM     48  H21 MOL d         -32.485  45.761  30.702  0.00  0.00     0.044 H 
ATOM     49  H22 MOL d         -31.679  46.478  32.139  0.00  0.00     0.044 H 
BRANCH  47  50
ATOM     50  CG  MOL d         -31.515  44.345  31.987  0.00  0.00    -0.055 A 
ATOM     51  CD2 MOL d         -31.787  43.203  31.226  0.00  0.00    -0.074 A 
ATOM     52  CE2 MOL d         -31.721  41.896  31.780  0.00  0.00    -0.050 A 
ATOM     53  H24 MOL d         -32.057  43.319  30.182  0.00  0.00     0.084 H 
ATOM     54  CZ  MOL d         -31.367  41.819  33.133  0.00  0.00     0.082 A 
ATOM     55  H26 MOL d         -31.933  41.011  31.190  0.00  0.00     0.087 H 
ATOM     56  CE1 MOL d         -31.082  42.950  33.923  0.00  0.00    -0.050 A 
ATOM     57  CD1 MOL d         -31.157  44.222  33.354  0.00  0.00    -0.074 A 
ATOM     58  H25 MOL d         -30.806  42.833  34.965  0.00  0.00     0.087 H 
ATOM     59  H23 MOL d         -30.944  45.103  33.947  0.00  0.00     0.084 H 
BRANCH  54  60
ATOM     60  OH  MOL d         -31.307  40.524  33.685  0.00  0.00    -0.240 OA
BRANCH  60  61
ATOM     61  P   MOL d         -30.228  40.159  34.889  0.00  0.00     0.427 P 
ATOM     62  O3P MOL d         -30.074  38.681  35.008  0.00  0.00    -0.617 OA
ATOM     63  O2P MOL d         -28.905  40.734  34.544  0.00  0.00    -0.617 OA
ATOM     64  O1P MOL d         -30.831  40.706  36.118  0.00  0.00    -0.617 OA
ENDBRANCH  60  61
ENDBRANCH  54  60
ENDBRANCH  47  50
ENDBRANCH  46  47
BRANCH  46  65
ATOM     65  C   MOL d         -30.574  47.600  30.012  0.00  0.00     0.246 C 
ATOM     66  O   MOL d         -31.470  47.892  29.196  0.00  0.00    -0.271 OA
ATOM     67  N   MOL d         -29.751  48.518  30.481  0.00  0.00    -0.344 N 
ATOM     68  H27 MOL d         -29.017  48.266  31.112  0.00  0.00     0.163 HD
BRANCH  67  69
ATOM     69  CA  MOL d         -29.924  49.895  30.071  0.00  0.00     0.104 C 
ATOM     70  H28 MOL d         -30.843  49.976  29.471  0.00  0.00     0.090 H 
BRANCH  69  71
ATOM     71  C   MOL d         -28.723  50.315  29.221  0.00  0.00     0.197 C 
ATOM     72  OXT MOL d         -28.852  51.339  28.555  0.00  0.00    -0.646 OA
ATOM     73  O   MOL d         -27.655  49.625  29.198  0.00  0.00    -0.646 OA
ENDBRANCH  69  71
BRANCH  69  74
ATOM     74  CB  MOL d         -30.036  50.845  31.295  0.00  0.00     0.037 C 
ATOM     75  H29 MOL d         -30.884  51.527  31.133  0.00  0.00     0.051 H 
ATOM     76  H30 MOL d         -29.106  51.428  31.371  0.00  0.00     0.051 H 
BRANCH  74  77
ATOM     77  CG  MOL d         -30.260  50.078  32.654  0.00  0.00     0.217 C 
ATOM     78  OD1 MOL d         -31.241  49.420  32.836  0.00  0.00    -0.274 OA
ATOM     79  ND2 MOL d         -29.346  50.226  33.572  0.00  0.00    -0.370 N 
ATOM     80  H31 MOL d         -29.442  49.760  34.452  0.00  0.00     0.159 HD
ATOM     81  H32 MOL d         -28.549  50.804  33.397  0.00  0.00     0.159 HD
ENDBRANCH  74  77
ENDBRANCH  69  74
ENDBRANCH  67  69
ENDBRANCH  46  65
BRANCH  46  82
ATOM     82  CH3 MOL d         -30.332  44.998  29.383  0.00  0.00    -0.044 C 
ATOM     83  H18 MOL d         -30.646  44.052  29.847  0.00  0.00     0.031 H 
ATOM     84  H19 MOL d         -29.313  44.891  28.982  0.00  0.00     0.031 H 
ATOM     85  H20 MOL d         -31.023  45.252  28.565  0.00  0.00     0.031 H 
ENDBRANCH  46  82
ENDBRANCH   3  46
TORSDOF 21
ENDMDL
MODEL 5
REMARK VINA RESULT:      -5.6      2.771      8.603
REMARK  21 active torsions:
REMARK  status: ('A' for Active; 'I' for Inactive)
REMARK    1  A    between atoms: C12_6  and  C3_3 
REMARK    2  A    between atoms: O13_7  and  C12_6 
REMARK    3  A    between atoms: C16_8  and  O13_7 
REMARK    4  A    between atoms: C5_11  and  N11_10 
REMARK    5  A    between atoms: CA_13  and  N_12 
REMARK    6  A    between atoms: CA_13  and  CB_16 
REMARK    7  A    between atoms: C_14  and  CA_13 
REMARK       I    between atoms: N_28  and  C_14 
REMARK    8  A    between atoms: CB_16  and  CG_17 
REMARK    9  A    between atoms: CZ_22  and  OH_23 
REMARK   10  A    between atoms: OH_23  and  P_24 
REMARK   11  A    between atoms: CA_29  and  N_28 
REMARK   12  A    between atoms: CA_29  and  CB_33 
REMARK   13  A    between atoms: C_31  and  CA_29 
REMARK   14  A    between atoms: CA_29  and  CH3_30 
REMARK       I    between atoms: C_31  and  N_45 
REMARK   15  A    between atoms: CB_33  and  CG_34 
REMARK   16  A    between atoms: CZ_39  and  OH_40 
REMARK   17  A    between atoms: OH_40  and  P_41 
REMARK   18  A    between atoms: N_45  and  CA_46 
REMARK   19  A    between atoms: CA_46  and  C_47 
REMARK   20  A    between atoms: CA_46  and  CB_49 
REMARK   21  A    between atoms: CB_49  and  CG_50 
REMARK       I    between atoms: CG_50  and  ND2_52 
ROOT
ATOM      1  C   MOL d         -27.392  47.634  33.852  0.00  0.00     0.241 C 
ATOM      2  O   MOL d         -26.304  48.119  34.263  0.00  0.00    -0.271 OA
ATOM      3  N   MOL d         -28.252  48.236  33.087  0.00  0.00    -0.341 N 
ATOM      4  H17 MOL d         -29.048  47.730  32.758  0.00  0.00     0.163 HD
ENDROOT
BRANCH   1   5
ATOM      5  CA  MOL d         -27.795  46.208  34.036  0.00  0.00     0.094 C 
ATOM      6  H10 MOL d         -27.137  45.664  34.729  0.00  0.00     0.088 H 
BRANCH   5   7
ATOM      7  N   MOL d         -29.100  46.353  34.562  0.00  0.00    -0.335 N 
ATOM      8  C16 MOL d         -29.555  45.880  35.699  0.00  0.00     0.292 C 
ATOM      9  O18 MOL d         -28.712  45.779  36.781  0.00  0.00    -0.143 OA
ATOM     10  H9  MOL d         -29.748  46.874  34.006  0.00  0.00     0.164 HD
BRANCH   8  11
ATOM     11  O13 MOL d         -30.844  46.051  35.789  0.00  0.00    -0.310 OA
BRANCH  11  12
ATOM     12  C12 MOL d         -31.902  45.090  35.642  0.00  0.00     0.053 C 
ATOM     13  H5  MOL d         -32.567  45.230  36.506  0.00  0.00     0.082 H 
ATOM     14  H6  MOL d         -32.437  45.359  34.719  0.00  0.00     0.082 H 
BRANCH  12  15
ATOM     15  C3  MOL d         -31.635  43.632  35.556  0.00  0.00    -0.032 A 
ATOM     16  C2  MOL d         -31.416  42.839  36.697  0.00  0.00    -0.075 A 
ATOM     17  C1  MOL d         -31.196  41.442  36.528  0.00  0.00    -0.080 A 
ATOM     18  H2  MOL d         -31.415  43.283  37.686  0.00  0.00     0.084 H 
ATOM     19  C6  MOL d         -31.175  40.876  35.222  0.00  0.00    -0.058 A 
ATOM     20  H1  MOL d         -31.044  40.808  37.395  0.00  0.00     0.083 H 
ATOM     21  C5  MOL d         -31.382  41.699  34.099  0.00  0.00     0.026 A 
ATOM     22  H4  MOL d         -31.000  39.814  35.093  0.00  0.00     0.086 H 
ATOM     23  C4  MOL d         -31.618  43.069  34.268  0.00  0.00    -0.050 A 
ATOM     24  H3  MOL d         -31.790  43.698  33.402  0.00  0.00     0.087 H 
BRANCH  21  25
ATOM     25  N11 MOL d         -31.353  41.188  32.847  0.00  0.00    -0.399 N 
ATOM     26  H7  MOL d         -30.552  40.617  32.542  0.00  0.00     0.156 HD
ATOM     27  H8  MOL d         -32.133  41.370  32.199  0.00  0.00     0.156 HD
ENDBRANCH  21  25
ENDBRANCH  12  15
ENDBRANCH  11  12
ENDBRANCH   8  11
ENDBRANCH   5   7
BRANCH   5  28
ATOM     28  CB  MOL d         -27.778  45.540  32.630  0.00  0.00    -0.014 C 
ATOM     29  H11 MOL d         -27.128  46.129  31.966  0.00  0.00     0.043 H 
ATOM     30  H12 MOL d         -28.802  45.533  32.229  0.00  0.00     0.043 H 
BRANCH  28  31
ATOM     31  CG  MOL d         -27.259  44.106  32.679  0.00  0.00    -0.056 A 
ATOM     32  CD2 MOL d         -25.956  43.778  32.226  0.00  0.00    -0.074 A 
ATOM     33  CE2 MOL d         -25.483  42.444  32.292  0.00  0.00    -0.050 A 
ATOM     34  H14 MOL d         -25.315  44.555  31.825  0.00  0.00     0.084 H 
ATOM     35  CZ  MOL d         -26.381  41.483  32.849  0.00  0.00     0.082 A 
ATOM     36  H16 MOL d         -24.496  42.168  31.940  0.00  0.00     0.087 H 
ATOM     37  CE1 MOL d         -27.664  41.789  33.305  0.00  0.00    -0.050 A 
ATOM     38  CD1 MOL d         -28.102  43.099  33.217  0.00  0.00    -0.074 A 
ATOM     39  H15 MOL d         -28.302  41.017  33.720  0.00  0.00     0.087 H 
ATOM     40  H13 MOL d         -29.097  43.358  33.562  0.00  0.00     0.084 H 
BRANCH  35  41
ATOM     41  OH  MOL d         -25.958  40.148  32.940  0.00  0.00    -0.240 OA
BRANCH  41  42
ATOM     42  P   MOL d         -24.872  39.465  32.121  0.00  0.00     0.427 P 
ATOM     43  O3P MOL d         -25.258  39.552  30.620  0.00  0.00    -0.617 OA
ATOM     44  O2P MOL d         -23.546  40.021  32.340  0.00  0.00    -0.617 OA
ATOM     45  O1P MOL d         -24.879  38.077  32.513  0.00  0.00    -0.617 OA
ENDBRANCH  41  42
ENDBRANCH  35  41
ENDBRANCH  28  31
ENDBRANCH   5  28
ENDBRANCH   1   5
BRANCH   3  46
ATOM     46  CA  MOL d         -28.089  49.604  32.702  0.00  0.00     0.114 C 
BRANCH  46  47
ATOM     47  CB  MOL d         -29.114  49.733  31.519  0.00  0.00    -0.009 C 
ATOM     48  H21 MOL d         -28.731  50.492  30.821  0.00  0.00     0.044 H 
ATOM     49  H22 MOL d         -30.073  50.072  31.938  0.00  0.00     0.044 H 
BRANCH  47  50
ATOM     50  CG  MOL d         -29.374  48.449  30.724  0.00  0.00    -0.055 A 
ATOM     51  CD2 MOL d         -30.634  47.842  30.773  0.00  0.00    -0.074 A 
ATOM     52  CE2 MOL d         -30.929  46.659  30.044  0.00  0.00    -0.050 A 
ATOM     53  H24 MOL d         -31.409  48.288  31.387  0.00  0.00     0.084 H 
ATOM     54  CZ  MOL d         -29.884  46.136  29.272  0.00  0.00     0.082 A 
ATOM     55  H26 MOL d         -31.905  46.189  30.082  0.00  0.00     0.087 H 
ATOM     56  CE1 MOL d         -28.608  46.727  29.197  0.00  0.00    -0.050 A 
ATOM     57  CD1 MOL d         -28.344  47.888  29.926  0.00  0.00    -0.074 A 
ATOM     58  H25 MOL d         -27.835  46.284  28.579  0.00  0.00     0.087 H 
ATOM     59  H23 MOL d         -27.367  48.354  29.884  0.00  0.00     0.084 H 
BRANCH  54  60
ATOM     60  OH  MOL d         -30.173  44.960  28.552  0.00  0.00    -0.240 OA
BRANCH  60  61
ATOM     61  P   MOL d         -30.284  43.495  29.321  0.00  0.00     0.427 P 
ATOM     62  O3P MOL d         -31.581  42.840  28.989  0.00  0.00    -0.617 OA
ATOM     63  O2P MOL d         -29.188  42.616  28.848  0.00  0.00    -0.617 OA
ATOM     64  O1P MOL d         -30.234  43.817  30.759  0.00  0.00    -0.617 OA
ENDBRANCH  60  61
ENDBRANCH  54  60
ENDBRANCH  47  50
ENDBRANCH  46  47
BRANCH  46  65
ATOM     65  C   MOL d         -28.550  50.594  33.802  0.00  0.00     0.246 C 
ATOM     66  O   MOL d         -29.727  51.006  33.831  0.00  0.00    -0.271 OA
ATOM     67  N   MOL d         -27.652  51.030  34.664  0.00  0.00    -0.344 N 
ATOM     68  H27 MOL d         -26.704  50.714  34.611  0.00  0.00     0.163 HD
BRANCH  67  69
ATOM     69  CA  MOL d         -28.055  51.972  35.685  0.00  0.00     0.104 C 
ATOM     70  H28 MOL d         -29.044  52.379  35.426  0.00  0.00     0.090 H 
BRANCH  69  71
ATOM     71  C   MOL d         -27.036  53.111  35.741  0.00  0.00     0.197 C 
ATOM     72  OXT MOL d         -25.892  52.811  36.076  0.00  0.00    -0.646 OA
ATOM     73  O   MOL d         -27.365  54.309  35.469  0.00  0.00    -0.646 OA
ENDBRANCH  69  71
BRANCH  69  74
ATOM     74  CB  MOL d         -28.137  51.298  37.083  0.00  0.00     0.037 C 
ATOM     75  H29 MOL d         -29.039  51.664  37.596  0.00  0.00     0.051 H 
ATOM     76  H30 MOL d         -27.246  51.581  37.661  0.00  0.00     0.051 H 
BRANCH  74  77
ATOM     77  CG  MOL d         -28.207  49.724  37.006  0.00  0.00     0.217 C 
ATOM     78  OD1 MOL d         -29.245  49.161  36.824  0.00  0.00    -0.274 OA
ATOM     79  ND2 MOL d         -27.091  49.075  37.184  0.00  0.00    -0.370 N 
ATOM     80  H31 MOL d         -27.082  48.076  37.145  0.00  0.00     0.159 HD
ATOM     81  H32 MOL d         -26.243  49.576  37.359  0.00  0.00     0.159 HD
ENDBRANCH  74  77
ENDBRANCH  69  74
ENDBRANCH  67  69
ENDBRANCH  46  65
BRANCH  46  82
ATOM     82  CH3 MOL d         -26.727  49.816  31.988  0.00  0.00    -0.044 C 
ATOM     83  H18 MOL d         -26.429  50.871  32.074  0.00  0.00     0.031 H 
ATOM     84  H19 MOL d         -26.824  49.548  30.925  0.00  0.00     0.031 H 
ATOM     85  H20 MOL d         -25.963  49.180  32.459  0.00  0.00     0.031 H 
ENDBRANCH  46  82
ENDBRANCH   3  46
TORSDOF 21
ENDMDL
MODEL 6
REMARK VINA RESULT:      -5.5      3.062      7.016
REMARK  21 active torsions:
REMARK  status: ('A' for Active; 'I' for Inactive)
REMARK    1  A    between atoms: C12_6  and  C3_3 
REMARK    2  A    between atoms: O13_7  and  C12_6 
REMARK    3  A    between atoms: C16_8  and  O13_7 
REMARK    4  A    between atoms: C5_11  and  N11_10 
REMARK    5  A    between atoms: CA_13  and  N_12 
REMARK    6  A    between atoms: CA_13  and  CB_16 
REMARK    7  A    between atoms: C_14  and  CA_13 
REMARK       I    between atoms: N_28  and  C_14 
REMARK    8  A    between atoms: CB_16  and  CG_17 
REMARK    9  A    between atoms: CZ_22  and  OH_23 
REMARK   10  A    between atoms: OH_23  and  P_24 
REMARK   11  A    between atoms: CA_29  and  N_28 
REMARK   12  A    between atoms: CA_29  and  CB_33 
REMARK   13  A    between atoms: C_31  and  CA_29 
REMARK   14  A    between atoms: CA_29  and  CH3_30 
REMARK       I    between atoms: C_31  and  N_45 
REMARK   15  A    between atoms: CB_33  and  CG_34 
REMARK   16  A    between atoms: CZ_39  and  OH_40 
REMARK   17  A    between atoms: OH_40  and  P_41 
REMARK   18  A    between atoms: N_45  and  CA_46 
REMARK   19  A    between atoms: CA_46  and  C_47 
REMARK   20  A    between atoms: CA_46  and  CB_49 
REMARK   21  A    between atoms: CB_49  and  CG_50 
REMARK       I    between atoms: CG_50  and  ND2_52 
ROOT
ATOM      1  C   MOL d         -28.472  45.227  35.747  0.00  0.00     0.241 C 
ATOM      2  O   MOL d         -28.032  44.406  36.596  0.00  0.00    -0.271 OA
ATOM      3  N   MOL d         -29.026  44.923  34.612  0.00  0.00    -0.341 N 
ATOM      4  H17 MOL d         -29.408  45.653  34.047  0.00  0.00     0.163 HD
ENDROOT
BRANCH   1   5
ATOM      5  CA  MOL d         -28.586  46.696  35.985  0.00  0.00     0.094 C 
ATOM      6  H10 MOL d         -28.495  46.965  37.047  0.00  0.00     0.088 H 
BRANCH   5   7
ATOM      7  N   MOL d         -27.498  47.187  35.228  0.00  0.00    -0.335 N 
ATOM      8  C16 MOL d         -26.700  48.183  35.537  0.00  0.00     0.292 C 
ATOM      9  O18 MOL d         -26.395  48.427  36.856  0.00  0.00    -0.143 OA
ATOM     10  H9  MOL d         -27.314  46.724  34.361  0.00  0.00     0.164 HD
BRANCH   8  11
ATOM     11  O13 MOL d         -25.917  48.477  34.538  0.00  0.00    -0.310 OA
BRANCH  11  12
ATOM     12  C12 MOL d         -26.226  49.147  33.305  0.00  0.00     0.053 C 
ATOM     13  H5  MOL d         -27.311  49.328  33.318  0.00  0.00     0.082 H 
ATOM     14  H6  MOL d         -25.693  50.109  33.334  0.00  0.00     0.082 H 
BRANCH  12  15
ATOM     15  C3  MOL d         -25.922  48.543  31.983  0.00  0.00    -0.032 A 
ATOM     16  C2  MOL d         -25.700  47.165  31.819  0.00  0.00    -0.075 A 
ATOM     17  C1  MOL d         -25.443  46.663  30.510  0.00  0.00    -0.080 A 
ATOM     18  H2  MOL d         -25.724  46.496  32.672  0.00  0.00     0.084 H 
ATOM     19  C6  MOL d         -25.390  47.556  29.403  0.00  0.00    -0.058 A 
ATOM     20  H1  MOL d         -25.287  45.601  30.358  0.00  0.00     0.083 H 
ATOM     21  C5  MOL d         -25.601  48.933  29.602  0.00  0.00     0.026 A 
ATOM     22  H4  MOL d         -25.187  47.175  28.408  0.00  0.00     0.086 H 
ATOM     23  C4  MOL d         -25.874  49.421  30.887  0.00  0.00    -0.050 A 
ATOM     24  H3  MOL d         -26.048  50.481  31.035  0.00  0.00     0.087 H 
BRANCH  21  25
ATOM     25  N11 MOL d         -25.542  49.803  28.569  0.00  0.00    -0.399 N 
ATOM     26  H7  MOL d         -25.658  50.812  28.738  0.00  0.00     0.156 HD
ATOM     27  H8  MOL d         -25.382  49.456  27.612  0.00  0.00     0.156 HD
ENDBRANCH  21  25
ENDBRANCH  12  15
ENDBRANCH  11  12
ENDBRANCH   8  11
ENDBRANCH   5   7
BRANCH   5  28
ATOM     28  CB  MOL d         -29.967  47.146  35.425  0.00  0.00    -0.014 C 
ATOM     29  H11 MOL d         -30.761  46.610  35.967  0.00  0.00     0.043 H 
ATOM     30  H12 MOL d         -30.016  46.890  34.356  0.00  0.00     0.043 H 
BRANCH  28  31
ATOM     31  CG  MOL d         -30.192  48.647  35.582  0.00  0.00    -0.056 A 
ATOM     32  CD2 MOL d         -30.791  49.414  34.549  0.00  0.00    -0.074 A 
ATOM     33  CE2 MOL d         -31.008  50.804  34.716  0.00  0.00    -0.050 A 
ATOM     34  H14 MOL d         -31.086  48.932  33.624  0.00  0.00     0.084 H 
ATOM     35  CZ  MOL d         -30.608  51.359  35.969  0.00  0.00     0.082 A 
ATOM     36  H16 MOL d         -31.452  51.411  33.937  0.00  0.00     0.087 H 
ATOM     37  CE1 MOL d         -30.024  50.620  36.998  0.00  0.00    -0.050 A 
ATOM     38  CD1 MOL d         -29.814  49.266  36.802  0.00  0.00    -0.074 A 
ATOM     39  H15 MOL d         -29.741  51.095  37.931  0.00  0.00     0.087 H 
ATOM     40  H13 MOL d         -29.357  48.672  37.586  0.00  0.00     0.084 H 
BRANCH  35  41
ATOM     41  OH  MOL d         -30.806  52.732  36.186  0.00  0.00    -0.240 OA
BRANCH  41  42
ATOM     42  P   MOL d         -30.858  53.458  37.523  0.00  0.00     0.427 P 
ATOM     43  O3P MOL d         -31.911  54.594  37.427  0.00  0.00    -0.617 OA
ATOM     44  O2P MOL d         -31.153  52.583  38.646  0.00  0.00    -0.617 OA
ATOM     45  O1P MOL d         -29.559  54.056  37.711  0.00  0.00    -0.617 OA
ENDBRANCH  41  42
ENDBRANCH  35  41
ENDBRANCH  28  31
ENDBRANCH   5  28
ENDBRANCH   1   5
BRANCH   3  46
ATOM     46  CA  MOL d         -29.103  43.573  34.149  0.00  0.00     0.114 C 
BRANCH  46  47
ATOM     47  CB  MOL d         -30.259  43.658  33.089  0.00  0.00    -0.009 C 
ATOM     48  H21 MOL d         -31.215  43.547  33.621  0.00  0.00     0.044 H 
ATOM     49  H22 MOL d         -30.133  42.822  32.383  0.00  0.00     0.044 H 
BRANCH  47  50
ATOM     50  CG  MOL d         -30.319  44.956  32.276  0.00  0.00    -0.055 A 
ATOM     51  CD2 MOL d         -31.444  45.782  32.365  0.00  0.00    -0.074 A 
ATOM     52  CE2 MOL d         -31.542  47.002  31.643  0.00  0.00    -0.050 A 
ATOM     53  H24 MOL d         -32.267  45.484  33.005  0.00  0.00     0.084 H 
ATOM     54  CZ  MOL d         -30.444  47.328  30.836  0.00  0.00     0.082 A 
ATOM     55  H26 MOL d         -32.414  47.643  31.712  0.00  0.00     0.087 H 
ATOM     56  CE1 MOL d         -29.296  46.520  30.730  0.00  0.00    -0.050 A 
ATOM     57  CD1 MOL d         -29.228  45.326  31.449  0.00  0.00    -0.074 A 
ATOM     58  H25 MOL d         -28.471  46.823  30.094  0.00  0.00     0.087 H 
ATOM     59  H23 MOL d         -28.353  44.690  31.376  0.00  0.00     0.084 H 
BRANCH  54  60
ATOM     60  OH  MOL d         -30.542  48.534  30.114  0.00  0.00    -0.240 OA
BRANCH  60  61
ATOM     61  P   MOL d         -29.748  49.898  30.621  0.00  0.00     0.427 P 
ATOM     62  O3P MOL d         -30.712  51.027  30.768  0.00  0.00    -0.617 OA
ATOM     63  O2P MOL d         -29.137  49.639  31.946  0.00  0.00    -0.617 OA
ATOM     64  O1P MOL d         -28.782  50.196  29.548  0.00  0.00    -0.617 OA
ENDBRANCH  60  61
ENDBRANCH  54  60
ENDBRANCH  47  50
ENDBRANCH  46  47
BRANCH  46  65
ATOM     65  C   MOL d         -27.830  43.127  33.386  0.00  0.00     0.246 C 
ATOM     66  O   MOL d         -26.843  43.883  33.302  0.00  0.00    -0.271 OA
ATOM     67  N   MOL d         -27.845  41.954  32.781  0.00  0.00    -0.344 N 
ATOM     68  H27 MOL d         -28.655  41.369  32.830  0.00  0.00     0.163 HD
BRANCH  67  69
ATOM     69  CA  MOL d         -26.676  41.527  32.043  0.00  0.00     0.104 C 
ATOM     70  H28 MOL d         -26.138  42.416  31.680  0.00  0.00     0.090 H 
BRANCH  69  71
ATOM     71  C   MOL d         -27.122  40.679  30.851  0.00  0.00     0.197 C 
ATOM     72  OXT MOL d         -28.330  40.633  30.630  0.00  0.00    -0.646 OA
ATOM     73  O   MOL d         -26.282  40.043  30.140  0.00  0.00    -0.646 OA
ENDBRANCH  69  71
BRANCH  69  74
ATOM     74  CB  MOL d         -25.717  40.687  32.932  0.00  0.00     0.037 C 
ATOM     75  H29 MOL d         -25.879  39.622  32.713  0.00  0.00     0.051 H 
ATOM     76  H30 MOL d         -25.955  40.885  33.988  0.00  0.00     0.051 H 
BRANCH  74  77
ATOM     77  CG  MOL d         -24.196  41.024  32.689  0.00  0.00     0.217 C 
ATOM     78  OD1 MOL d         -23.628  41.832  33.361  0.00  0.00    -0.274 OA
ATOM     79  ND2 MOL d         -23.605  40.405  31.706  0.00  0.00    -0.370 N 
ATOM     80  H31 MOL d         -22.641  40.583  31.510  0.00  0.00     0.159 HD
ATOM     81  H32 MOL d         -24.116  39.751  31.147  0.00  0.00     0.159 HD
ENDBRANCH  74  77
ENDBRANCH  69  74
ENDBRANCH  67  69
ENDBRANCH  46  65
BRANCH  46  82
ATOM     82  CH3 MOL d         -29.718  42.652  35.238  0.00  0.00    -0.044 C 
ATOM     83  H18 MOL d         -29.511  41.601  34.989  0.00  0.00     0.031 H 
ATOM     84  H19 MOL d         -30.805  42.812  35.283  0.00  0.00     0.031 H 
ATOM     85  H20 MOL d         -29.271  42.892  36.215  0.00  0.00     0.031 H 
ENDBRANCH  46  82
ENDBRANCH   3  46
TORSDOF 21
ENDMDL
MODEL 7
REMARK VINA RESULT:      -5.1      3.285      8.028
REMARK  21 active torsions:
REMARK  status: ('A' for Active; 'I' for Inactive)
REMARK    1  A    between atoms: C12_6  and  C3_3 
REMARK    2  A    between atoms: O13_7  and  C12_6 
REMARK    3  A    between atoms: C16_8  and  O13_7 
REMARK    4  A    between atoms: C5_11  and  N11_10 
REMARK    5  A    between atoms: CA_13  and  N_12 
REMARK    6  A    between atoms: CA_13  and  CB_16 
REMARK    7  A    between atoms: C_14  and  CA_13 
REMARK       I    between atoms: N_28  and  C_14 
REMARK    8  A    between atoms: CB_16  and  CG_17 
REMARK    9  A    between atoms: CZ_22  and  OH_23 
REMARK   10  A    between atoms: OH_23  and  P_24 
REMARK   11  A    between atoms: CA_29  and  N_28 
REMARK   12  A    between atoms: CA_29  and  CB_33 
REMARK   13  A    between atoms: C_31  and  CA_29 
REMARK   14  A    between atoms: CA_29  and  CH3_30 
REMARK       I    between atoms: C_31  and  N_45 
REMARK   15  A    between atoms: CB_33  and  CG_34 
REMARK   16  A    between atoms: CZ_39  and  OH_40 
REMARK   17  A    between atoms: OH_40  and  P_41 
REMARK   18  A    between atoms: N_45  and  CA_46 
REMARK   19  A    between atoms: CA_46  and  C_47 
REMARK   20  A    between atoms: CA_46  and  CB_49 
REMARK   21  A    between atoms: CB_49  and  CG_50 
REMARK       I    between atoms: CG_50  and  ND2_52 
ROOT
ATOM      1  C   MOL d         -27.828  44.461  32.243  0.00  0.00     0.241 C 
ATOM      2  O   MOL d         -27.122  44.840  31.272  0.00  0.00    -0.271 OA
ATOM      3  N   MOL d         -29.125  44.371  32.251  0.00  0.00    -0.341 N 
ATOM      4  H17 MOL d         -29.580  43.986  33.053  0.00  0.00     0.163 HD
ENDROOT
BRANCH   1   5
ATOM      5  CA  MOL d         -27.277  43.884  33.505  0.00  0.00     0.094 C 
ATOM      6  H10 MOL d         -26.184  43.978  33.575  0.00  0.00     0.088 H 
BRANCH   5   7
ATOM      7  N   MOL d         -27.931  44.669  34.481  0.00  0.00    -0.335 N 
ATOM      8  C16 MOL d         -28.310  44.293  35.680  0.00  0.00     0.292 C 
ATOM      9  O18 MOL d         -27.567  43.361  36.368  0.00  0.00    -0.143 OA
ATOM     10  H9  MOL d         -28.127  45.617  34.231  0.00  0.00     0.164 HD
BRANCH   8  11
ATOM     11  O13 MOL d         -29.036  45.214  36.248  0.00  0.00    -0.310 OA
BRANCH  11  12
ATOM     12  C12 MOL d         -29.387  46.522  35.767  0.00  0.00     0.053 C 
ATOM     13  H5  MOL d         -29.292  46.482  34.672  0.00  0.00     0.082 H 
ATOM     14  H6  MOL d         -30.442  46.677  36.039  0.00  0.00     0.082 H 
BRANCH  12  15
ATOM     15  C3  MOL d         -28.662  47.742  36.203  0.00  0.00    -0.032 A 
ATOM     16  C2  MOL d         -27.270  47.881  36.060  0.00  0.00    -0.075 A 
ATOM     17  C1  MOL d         -26.657  49.097  36.478  0.00  0.00    -0.080 A 
ATOM     18  H2  MOL d         -26.675  47.078  35.641  0.00  0.00     0.084 H 
ATOM     19  C6  MOL d         -27.446  50.133  37.050  0.00  0.00    -0.058 A 
ATOM     20  H1  MOL d         -25.588  49.234  36.359  0.00  0.00     0.083 H 
ATOM     21  C5  MOL d         -28.835  49.958  37.194  0.00  0.00     0.026 A 
ATOM     22  H4  MOL d         -26.978  51.056  37.374  0.00  0.00     0.086 H 
ATOM     23  C4  MOL d         -29.439  48.769  36.764  0.00  0.00    -0.050 A 
ATOM     24  H3  MOL d         -30.512  48.642  36.865  0.00  0.00     0.087 H 
BRANCH  21  25
ATOM     25  N11 MOL d         -29.605  50.922  37.747  0.00  0.00    -0.399 N 
ATOM     26  H7  MOL d         -29.857  51.758  37.199  0.00  0.00     0.156 HD
ATOM     27  H8  MOL d         -29.940  50.822  38.716  0.00  0.00     0.156 HD
ENDBRANCH  21  25
ENDBRANCH  12  15
ENDBRANCH  11  12
ENDBRANCH   8  11
ENDBRANCH   5   7
BRANCH   5  28
ATOM     28  CB  MOL d         -27.699  42.386  33.547  0.00  0.00    -0.014 C 
ATOM     29  H11 MOL d         -28.662  42.275  33.027  0.00  0.00     0.043 H 
ATOM     30  H12 MOL d         -27.812  42.079  34.597  0.00  0.00     0.043 H 
BRANCH  28  31
ATOM     31  CG  MOL d         -26.672  41.478  32.877  0.00  0.00    -0.056 A 
ATOM     32  CD2 MOL d         -27.069  40.445  31.990  0.00  0.00    -0.074 A 
ATOM     33  CE2 MOL d         -26.102  39.620  31.364  0.00  0.00    -0.050 A 
ATOM     34  H14 MOL d         -28.122  40.285  31.788  0.00  0.00     0.084 H 
ATOM     35  CZ  MOL d         -24.736  39.906  31.668  0.00  0.00     0.082 A 
ATOM     36  H16 MOL d         -26.383  38.817  30.692  0.00  0.00     0.087 H 
ATOM     37  CE1 MOL d         -24.327  40.921  32.532  0.00  0.00    -0.050 A 
ATOM     38  CD1 MOL d         -25.295  41.704  33.138  0.00  0.00    -0.074 A 
ATOM     39  H15 MOL d         -23.274  41.094  32.725  0.00  0.00     0.087 H 
ATOM     40  H13 MOL d         -25.000  42.496  33.818  0.00  0.00     0.084 H 
BRANCH  35  41
ATOM     41  OH  MOL d         -23.740  39.119  31.069  0.00  0.00    -0.240 OA
BRANCH  41  42
ATOM     42  P   MOL d         -23.344  39.092  29.599  0.00  0.00     0.427 P 
ATOM     43  O3P MOL d         -24.558  39.562  28.753  0.00  0.00    -0.617 OA
ATOM     44  O2P MOL d         -22.172  39.897  29.299  0.00  0.00    -0.617 OA
ATOM     45  O1P MOL d         -23.073  37.712  29.277  0.00  0.00    -0.617 OA
ENDBRANCH  41  42
ENDBRANCH  35  41
ENDBRANCH  28  31
ENDBRANCH   5  28
ENDBRANCH   1   5
BRANCH   3  46
ATOM     46  CA  MOL d         -29.916  44.806  31.143  0.00  0.00     0.114 C 
BRANCH  46  47
ATOM     47  CB  MOL d         -31.340  44.266  31.527  0.00  0.00    -0.009 C 
ATOM     48  H21 MOL d         -31.931  44.181  30.603  0.00  0.00     0.044 H 
ATOM     49  H22 MOL d         -31.811  45.001  32.197  0.00  0.00     0.044 H 
BRANCH  47  50
ATOM     50  CG  MOL d         -31.364  42.903  32.230  0.00  0.00    -0.055 A 
ATOM     51  CD2 MOL d         -31.539  42.838  33.616  0.00  0.00    -0.074 A 
ATOM     52  CE2 MOL d         -31.582  41.599  34.312  0.00  0.00    -0.050 A 
ATOM     53  H24 MOL d         -31.644  43.759  34.178  0.00  0.00     0.084 H 
ATOM     54  CZ  MOL d         -31.440  40.448  33.527  0.00  0.00     0.082 A 
ATOM     55  H26 MOL d         -31.717  41.548  35.386  0.00  0.00     0.087 H 
ATOM     56  CE1 MOL d         -31.268  40.482  32.129  0.00  0.00    -0.050 A 
ATOM     57  CD1 MOL d         -31.227  41.713  31.472  0.00  0.00    -0.074 A 
ATOM     58  H25 MOL d         -31.169  39.559  31.568  0.00  0.00     0.087 H 
ATOM     59  H23 MOL d         -31.092  41.758  30.398  0.00  0.00     0.084 H 
BRANCH  54  60
ATOM     60  OH  MOL d         -31.477  39.220  34.216  0.00  0.00    -0.240 OA
BRANCH  60  61
ATOM     61  P   MOL d         -30.109  38.588  34.906  0.00  0.00     0.427 P 
ATOM     62  O3P MOL d         -30.193  38.686  36.392  0.00  0.00    -0.617 OA
ATOM     63  O2P MOL d         -30.002  37.154  34.544  0.00  0.00    -0.617 OA
ATOM     64  O1P MOL d         -29.007  39.430  34.406  0.00  0.00    -0.617 OA
ENDBRANCH  60  61
ENDBRANCH  54  60
ENDBRANCH  47  50
ENDBRANCH  46  47
BRANCH  46  65
ATOM     65  C   MOL d         -30.033  46.350  31.059  0.00  0.00     0.246 C 
ATOM     66  O   MOL d         -31.148  46.905  31.111  0.00  0.00    -0.271 OA
ATOM     67  N   MOL d         -28.929  47.049  30.874  0.00  0.00    -0.344 N 
ATOM     68  H27 MOL d         -28.044  46.589  30.805  0.00  0.00     0.163 HD
BRANCH  67  69
ATOM     69  CA  MOL d         -29.017  48.489  30.771  0.00  0.00     0.104 C 
ATOM     70  H28 MOL d         -30.076  48.786  30.803  0.00  0.00     0.090 H 
BRANCH  69  71
ATOM     71  C   MOL d         -28.405  48.930  29.440  0.00  0.00     0.197 C 
ATOM     72  OXT MOL d         -28.277  50.141  29.268  0.00  0.00    -0.646 OA
ATOM     73  O   MOL d         -28.065  48.084  28.555  0.00  0.00    -0.646 OA
ENDBRANCH  69  71
BRANCH  69  74
ATOM     74  CB  MOL d         -28.261  49.191  31.934  0.00  0.00     0.037 C 
ATOM     75  H29 MOL d         -27.687  50.033  31.520  0.00  0.00     0.051 H 
ATOM     76  H30 MOL d         -27.572  48.466  32.391  0.00  0.00     0.051 H 
BRANCH  74  77
ATOM     77  CG  MOL d         -29.225  49.742  33.053  0.00  0.00     0.217 C 
ATOM     78  OD1 MOL d         -30.330  49.308  33.184  0.00  0.00    -0.274 OA
ATOM     79  ND2 MOL d         -28.769  50.710  33.799  0.00  0.00    -0.370 N 
ATOM     80  H31 MOL d         -29.342  51.095  34.523  0.00  0.00     0.159 HD
ATOM     81  H32 MOL d         -27.848  51.068  33.647  0.00  0.00     0.159 HD
ENDBRANCH  74  77
ENDBRANCH  69  74
ENDBRANCH  67  69
ENDBRANCH  46  65
BRANCH  46  82
ATOM     82  CH3 MOL d         -29.580  43.983  29.869  0.00  0.00    -0.044 C 
ATOM     83  H18 MOL d         -29.768  42.917  30.062  0.00  0.00     0.031 H 
ATOM     84  H19 MOL d         -28.521  44.128  29.608  0.00  0.00     0.031 H 
ATOM     85  H20 MOL d         -30.214  44.322  29.036  0.00  0.00     0.031 H 
ENDBRANCH  46  82
ENDBRANCH   3  46
TORSDOF 21
ENDMDL
MODEL 8
REMARK VINA RESULT:      -4.8      3.106      8.145
REMARK  21 active torsions:
REMARK  status: ('A' for Active; 'I' for Inactive)
REMARK    1  A    between atoms: C12_6  and  C3_3 
REMARK    2  A    between atoms: O13_7  and  C12_6 
REMARK    3  A    between atoms: C16_8  and  O13_7 
REMARK    4  A    between atoms: C5_11  and  N11_10 
REMARK    5  A    between atoms: CA_13  and  N_12 
REMARK    6  A    between atoms: CA_13  and  CB_16 
REMARK    7  A    between atoms: C_14  and  CA_13 
REMARK       I    between atoms: N_28  and  C_14 
REMARK    8  A    between atoms: CB_16  and  CG_17 
REMARK    9  A    between atoms: CZ_22  and  OH_23 
REMARK   10  A    between atoms: OH_23  and  P_24 
REMARK   11  A    between atoms: CA_29  and  N_28 
REMARK   12  A    between atoms: CA_29  and  CB_33 
REMARK   13  A    between atoms: C_31  and  CA_29 
REMARK   14  A    between atoms: CA_29  and  CH3_30 
REMARK       I    between atoms: C_31  and  N_45 
REMARK   15  A    between atoms: CB_33  and  CG_34 
REMARK   16  A    between atoms: CZ_39  and  OH_40 
REMARK   17  A    between atoms: OH_40  and  P_41 
REMARK   18  A    between atoms: N_45  and  CA_46 
REMARK   19  A    between atoms: CA_46  and  C_47 
REMARK   20  A    between atoms: CA_46  and  CB_49 
REMARK   21  A    between atoms: CB_49  and  CG_50 
REMARK       I    between atoms: CG_50  and  ND2_52 
ROOT
ATOM      1  C   MOL d         -27.943  45.231  32.315  0.00  0.00     0.241 C 
ATOM      2  O   MOL d         -27.358  46.342  32.410  0.00  0.00    -0.271 OA
ATOM      3  N   MOL d         -28.970  44.975  31.561  0.00  0.00    -0.341 N 
ATOM      4  H17 MOL d         -29.310  44.037  31.504  0.00  0.00     0.163 HD
ENDROOT
BRANCH   1   5
ATOM      5  CA  MOL d         -27.443  43.965  32.928  0.00  0.00     0.094 C 
ATOM      6  H10 MOL d         -26.351  43.955  33.056  0.00  0.00     0.088 H 
BRANCH   5   7
ATOM      7  N   MOL d         -28.114  43.973  34.172  0.00  0.00    -0.335 N 
ATOM      8  C16 MOL d         -27.932  43.150  35.178  0.00  0.00     0.292 C 
ATOM      9  O18 MOL d         -26.679  42.635  35.418  0.00  0.00    -0.143 OA
ATOM     10  H9  MOL d         -28.804  44.685  34.300  0.00  0.00     0.164 HD
BRANCH   8  11
ATOM     11  O13 MOL d         -28.836  43.335  36.099  0.00  0.00    -0.310 OA
BRANCH  11  12
ATOM     12  C12 MOL d         -30.216  43.709  35.957  0.00  0.00     0.053 C 
ATOM     13  H5  MOL d         -30.413  43.752  34.876  0.00  0.00     0.082 H 
ATOM     14  H6  MOL d         -30.803  42.893  36.405  0.00  0.00     0.082 H 
BRANCH  12  15
ATOM     15  C3  MOL d         -30.753  44.969  36.529  0.00  0.00    -0.032 A 
ATOM     16  C2  MOL d         -31.071  45.101  37.893  0.00  0.00    -0.075 A 
ATOM     17  C1  MOL d         -31.555  46.355  38.365  0.00  0.00    -0.080 A 
ATOM     18  H2  MOL d         -30.951  44.264  38.571  0.00  0.00     0.084 H 
ATOM     19  C6  MOL d         -31.732  47.437  37.459  0.00  0.00    -0.058 A 
ATOM     20  H1  MOL d         -31.788  46.484  39.416  0.00  0.00     0.083 H 
ATOM     21  C5  MOL d         -31.419  47.269  36.097  0.00  0.00     0.026 A 
ATOM     22  H4  MOL d         -32.106  48.390  37.817  0.00  0.00     0.086 H 
ATOM     23  C4  MOL d         -30.925  46.042  35.638  0.00  0.00    -0.050 A 
ATOM     24  H3  MOL d         -30.673  45.919  34.590  0.00  0.00     0.087 H 
BRANCH  21  25
ATOM     25  N11 MOL d         -31.591  48.279  35.214  0.00  0.00    -0.399 N 
ATOM     26  H7  MOL d         -31.762  49.236  35.552  0.00  0.00     0.156 HD
ATOM     27  H8  MOL d         -31.552  48.090  34.201  0.00  0.00     0.156 HD
ENDBRANCH  21  25
ENDBRANCH  12  15
ENDBRANCH  11  12
ENDBRANCH   8  11
ENDBRANCH   5   7
BRANCH   5  28
ATOM     28  CB  MOL d         -27.893  42.797  32.003  0.00  0.00    -0.014 C 
ATOM     29  H11 MOL d         -27.908  43.155  30.962  0.00  0.00     0.043 H 
ATOM     30  H12 MOL d         -28.905  42.482  32.296  0.00  0.00     0.043 H 
BRANCH  28  31
ATOM     31  CG  MOL d         -26.959  41.594  32.095  0.00  0.00    -0.056 A 
ATOM     32  CD2 MOL d         -27.465  40.269  32.139  0.00  0.00    -0.074 A 
ATOM     33  CE2 MOL d         -26.584  39.162  32.209  0.00  0.00    -0.050 A 
ATOM     34  H14 MOL d         -28.536  40.103  32.119  0.00  0.00     0.084 H 
ATOM     35  CZ  MOL d         -25.189  39.465  32.214  0.00  0.00     0.082 A 
ATOM     36  H16 MOL d         -26.949  38.143  32.256  0.00  0.00     0.087 H 
ATOM     37  CE1 MOL d         -24.673  40.761  32.165  0.00  0.00    -0.050 A 
ATOM     38  CD1 MOL d         -25.558  41.823  32.109  0.00  0.00    -0.074 A 
ATOM     39  H15 MOL d         -23.602  40.931  32.170  0.00  0.00     0.087 H 
ATOM     40  H13 MOL d         -25.179  42.839  32.074  0.00  0.00     0.084 H 
BRANCH  35  41
ATOM     41  OH  MOL d         -24.274  38.402  32.278  0.00  0.00    -0.240 OA
BRANCH  41  42
ATOM     42  P   MOL d         -23.612  37.828  33.523  0.00  0.00     0.427 P 
ATOM     43  O3P MOL d         -24.202  36.418  33.790  0.00  0.00    -0.617 OA
ATOM     44  O2P MOL d         -22.162  37.765  33.431  0.00  0.00    -0.617 OA
ATOM     45  O1P MOL d         -23.985  38.692  34.617  0.00  0.00    -0.617 OA
ENDBRANCH  41  42
ENDBRANCH  35  41
ENDBRANCH  28  31
ENDBRANCH   5  28
ENDBRANCH   1   5
BRANCH   3  46
ATOM     46  CA  MOL d         -29.627  46.000  30.810  0.00  0.00     0.114 C 
BRANCH  46  47
ATOM     47  CB  MOL d         -30.956  45.284  30.376  0.00  0.00    -0.009 C 
ATOM     48  H21 MOL d         -31.272  45.711  29.413  0.00  0.00     0.044 H 
ATOM     49  H22 MOL d         -31.720  45.498  31.140  0.00  0.00     0.044 H 
BRANCH  47  50
ATOM     50  CG  MOL d         -30.867  43.763  30.212  0.00  0.00    -0.055 A 
ATOM     51  CD2 MOL d         -30.098  43.218  29.178  0.00  0.00    -0.074 A 
ATOM     52  CE2 MOL d         -29.973  41.814  28.993  0.00  0.00    -0.050 A 
ATOM     53  H24 MOL d         -29.582  43.886  28.498  0.00  0.00     0.084 H 
ATOM     54  CZ  MOL d         -30.665  41.009  29.906  0.00  0.00     0.082 A 
ATOM     55  H26 MOL d         -29.377  41.392  28.191  0.00  0.00     0.087 H 
ATOM     56  CE1 MOL d         -31.443  41.528  30.959  0.00  0.00    -0.050 A 
ATOM     57  CD1 MOL d         -31.550  42.911  31.117  0.00  0.00    -0.074 A 
ATOM     58  H25 MOL d         -31.954  40.859  31.643  0.00  0.00     0.087 H 
ATOM     59  H23 MOL d         -32.147  43.328  31.920  0.00  0.00     0.084 H 
BRANCH  54  60
ATOM     60  OH  MOL d         -30.547  39.618  29.720  0.00  0.00    -0.240 OA
BRANCH  60  61
ATOM     61  P   MOL d         -30.680  38.571  30.998  0.00  0.00     0.427 P 
ATOM     62  O3P MOL d         -29.505  37.655  31.034  0.00  0.00    -0.617 OA
ATOM     63  O2P MOL d         -30.698  39.348  32.260  0.00  0.00    -0.617 OA
ATOM     64  O1P MOL d         -31.911  37.803  30.733  0.00  0.00    -0.617 OA
ENDBRANCH  60  61
ENDBRANCH  54  60
ENDBRANCH  47  50
ENDBRANCH  46  47
BRANCH  46  65
ATOM     65  C   MOL d         -30.037  47.213  31.683  0.00  0.00     0.246 C 
ATOM     66  O   MOL d         -31.040  47.153  32.421  0.00  0.00    -0.271 OA
ATOM     67  N   MOL d         -29.333  48.323  31.576  0.00  0.00    -0.344 N 
ATOM     68  H27 MOL d         -28.548  48.368  30.958  0.00  0.00     0.163 HD
BRANCH  67  69
ATOM     69  CA  MOL d         -29.711  49.476  32.365  0.00  0.00     0.104 C 
ATOM     70  H28 MOL d         -30.434  49.161  33.133  0.00  0.00     0.090 H 
BRANCH  69  71
ATOM     71  C   MOL d         -30.362  50.513  31.449  0.00  0.00     0.197 C 
ATOM     72  OXT MOL d         -30.270  51.689  31.796  0.00  0.00    -0.646 OA
ATOM     73  O   MOL d         -30.980  50.168  30.393  0.00  0.00    -0.646 OA
ENDBRANCH  69  71
BRANCH  69  74
ATOM     74  CB  MOL d         -28.481  50.118  33.064  0.00  0.00     0.037 C 
ATOM     75  H29 MOL d         -28.252  51.071  32.565  0.00  0.00     0.051 H 
ATOM     76  H30 MOL d         -27.624  49.436  32.961  0.00  0.00     0.051 H 
BRANCH  74  77
ATOM     77  CG  MOL d         -28.717  50.399  34.597  0.00  0.00     0.217 C 
ATOM     78  OD1 MOL d         -29.817  50.572  35.030  0.00  0.00    -0.274 OA
ATOM     79  ND2 MOL d         -27.658  50.464  35.355  0.00  0.00    -0.370 N 
ATOM     80  H31 MOL d         -27.755  50.640  36.335  0.00  0.00     0.159 HD
ATOM     81  H32 MOL d         -26.749  50.339  34.957  0.00  0.00     0.159 HD
ENDBRANCH  74  77
ENDBRANCH  69  74
ENDBRANCH  67  69
ENDBRANCH  46  65
BRANCH  46  82
ATOM     82  CH3 MOL d         -28.913  46.228  29.450  0.00  0.00    -0.044 C 
ATOM     83  H18 MOL d         -28.689  45.256  28.986  0.00  0.00     0.031 H 
ATOM     84  H19 MOL d         -27.975  46.780  29.616  0.00  0.00     0.031 H 
ATOM     85  H20 MOL d         -29.568  46.809  28.785  0.00  0.00     0.031 H 
ENDBRANCH  46  82
ENDBRANCH   3  46
TORSDOF 21
ENDMDL
MODEL 9
REMARK VINA RESULT:      -4.7      2.890      5.212
REMARK  21 active torsions:
REMARK  status: ('A' for Active; 'I' for Inactive)
REMARK    1  A    between atoms: C12_6  and  C3_3 
REMARK    2  A    between atoms: O13_7  and  C12_6 
REMARK    3  A    between atoms: C16_8  and  O13_7 
REMARK    4  A    between atoms: C5_11  and  N11_10 
REMARK    5  A    between atoms: CA_13  and  N_12 
REMARK    6  A    between atoms: CA_13  and  CB_16 
REMARK    7  A    between atoms: C_14  and  CA_13 
REMARK       I    between atoms: N_28  and  C_14 
REMARK    8  A    between atoms: CB_16  and  CG_17 
REMARK    9  A    between atoms: CZ_22  and  OH_23 
REMARK   10  A    between atoms: OH_23  and  P_24 
REMARK   11  A    between atoms: CA_29  and  N_28 
REMARK   12  A    between atoms: CA_29  and  CB_33 
REMARK   13  A    between atoms: C_31  and  CA_29 
REMARK   14  A    between atoms: CA_29  and  CH3_30 
REMARK       I    between atoms: C_31  and  N_45 
REMARK   15  A    between atoms: CB_33  and  CG_34 
REMARK   16  A    between atoms: CZ_39  and  OH_40 
REMARK   17  A    between atoms: OH_40  and  P_41 
REMARK   18  A    between atoms: N_45  and  CA_46 
REMARK   19  A    between atoms: CA_46  and  C_47 
REMARK   20  A    between atoms: CA_46  and  CB_49 
REMARK   21  A    between atoms: CB_49  and  CG_50 
REMARK       I    between atoms: CG_50  and  ND2_52 
ROOT
ATOM      1  C   MOL d         -28.329  45.117  34.822  0.00  0.00     0.241 C 
ATOM      2  O   MOL d         -28.218  44.493  35.910  0.00  0.00    -0.271 OA
ATOM      3  N   MOL d         -28.854  44.652  33.728  0.00  0.00    -0.341 N 
ATOM      4  H17 MOL d         -28.959  45.261  32.942  0.00  0.00     0.163 HD
ENDROOT
BRANCH   1   5
ATOM      5  CA  MOL d         -28.026  46.570  34.656  0.00  0.00     0.094 C 
ATOM      6  H10 MOL d         -27.414  46.975  35.475  0.00  0.00     0.088 H 
BRANCH   5   7
ATOM      7  N   MOL d         -27.323  46.571  33.430  0.00  0.00    -0.335 N 
ATOM      8  C16 MOL d         -26.509  47.498  32.982  0.00  0.00     0.292 C 
ATOM      9  O18 MOL d         -25.741  48.216  33.869  0.00  0.00    -0.143 OA
ATOM     10  H9  MOL d         -27.460  45.776  32.838  0.00  0.00     0.164 HD
BRANCH   8  11
ATOM     11  O13 MOL d         -26.170  47.260  31.745  0.00  0.00    -0.310 OA
BRANCH  11  12
ATOM     12  C12 MOL d         -27.006  47.096  30.589  0.00  0.00     0.053 C 
ATOM     13  H5  MOL d         -26.434  47.494  29.737  0.00  0.00     0.082 H 
ATOM     14  H6  MOL d         -27.147  46.012  30.462  0.00  0.00     0.082 H 
BRANCH  12  15
ATOM     15  C3  MOL d         -28.358  47.704  30.501  0.00  0.00    -0.032 A 
ATOM     16  C2  MOL d         -29.527  46.927  30.404  0.00  0.00    -0.075 A 
ATOM     17  C1  MOL d         -30.787  47.589  30.354  0.00  0.00    -0.080 A 
ATOM     18  H2  MOL d         -29.469  45.845  30.368  0.00  0.00     0.084 H 
ATOM     19  C6  MOL d         -30.846  49.011  30.377  0.00  0.00    -0.058 A 
ATOM     20  H1  MOL d         -31.702  47.010  30.299  0.00  0.00     0.083 H 
ATOM     21  C5  MOL d         -29.658  49.761  30.459  0.00  0.00     0.026 A 
ATOM     22  H4  MOL d         -31.805  49.515  30.332  0.00  0.00     0.086 H 
ATOM     23  C4  MOL d         -28.420  49.107  30.528  0.00  0.00    -0.050 A 
ATOM     24  H3  MOL d         -27.507  49.687  30.604  0.00  0.00     0.087 H 
BRANCH  21  25
ATOM     25  N11 MOL d         -29.687  51.112  30.469  0.00  0.00    -0.399 N 
ATOM     26  H7  MOL d         -29.783  51.632  29.584  0.00  0.00     0.156 HD
ATOM     27  H8  MOL d         -29.612  51.623  31.360  0.00  0.00     0.156 HD
ENDBRANCH  21  25
ENDBRANCH  12  15
ENDBRANCH  11  12
ENDBRANCH   8  11
ENDBRANCH   5   7
BRANCH   5  28
ATOM     28  CB  MOL d         -29.390  47.316  34.574  0.00  0.00    -0.014 C 
ATOM     29  H11 MOL d         -30.118  46.794  35.212  0.00  0.00     0.043 H 
ATOM     30  H12 MOL d         -29.740  47.302  33.531  0.00  0.00     0.043 H 
BRANCH  28  31
ATOM     31  CG  MOL d         -29.283  48.766  35.036  0.00  0.00    -0.056 A 
ATOM     32  CD2 MOL d         -29.416  49.115  36.405  0.00  0.00    -0.074 A 
ATOM     33  CE2 MOL d         -29.298  50.465  36.820  0.00  0.00    -0.050 A 
ATOM     34  H14 MOL d         -29.608  48.342  37.140  0.00  0.00     0.084 H 
ATOM     35  CZ  MOL d         -29.027  51.420  35.794  0.00  0.00     0.082 A 
ATOM     36  H16 MOL d         -29.408  50.756  37.858  0.00  0.00     0.087 H 
ATOM     37  CE1 MOL d         -28.887  51.094  34.445  0.00  0.00    -0.050 A 
ATOM     38  CD1 MOL d         -29.018  49.769  34.067  0.00  0.00    -0.074 A 
ATOM     39  H15 MOL d         -28.679  51.862  33.708  0.00  0.00     0.087 H 
ATOM     40  H13 MOL d         -28.918  49.494  33.023  0.00  0.00     0.084 H 
BRANCH  35  41
ATOM     41  OH  MOL d         -28.897  52.770  36.155  0.00  0.00    -0.240 OA
BRANCH  41  42
ATOM     42  P   MOL d         -27.607  53.539  36.403  0.00  0.00     0.427 P 
ATOM     43  O3P MOL d         -26.450  52.519  36.577  0.00  0.00    -0.617 OA
ATOM     44  O2P MOL d         -27.291  54.495  35.354  0.00  0.00    -0.617 OA
ATOM     45  O1P MOL d         -27.785  54.241  37.651  0.00  0.00    -0.617 OA
ENDBRANCH  41  42
ENDBRANCH  35  41
ENDBRANCH  28  31
ENDBRANCH   5  28
ENDBRANCH   1   5
BRANCH   3  46
ATOM     46  CA  MOL d         -29.286  43.294  33.619  0.00  0.00     0.114 C 
BRANCH  46  47
ATOM     47  CB  MOL d         -30.190  43.342  32.335  0.00  0.00    -0.009 C 
ATOM     48  H21 MOL d         -29.715  44.020  31.611  0.00  0.00     0.044 H 
ATOM     49  H22 MOL d         -31.171  43.746  32.627  0.00  0.00     0.044 H 
BRANCH  47  50
ATOM     50  CG  MOL d         -30.424  41.997  31.638  0.00  0.00    -0.055 A 
ATOM     51  CD2 MOL d         -31.033  40.947  32.335  0.00  0.00    -0.074 A 
ATOM     52  CE2 MOL d         -31.284  39.687  31.729  0.00  0.00    -0.050 A 
ATOM     53  H24 MOL d         -31.323  41.101  33.368  0.00  0.00     0.084 H 
ATOM     54  CZ  MOL d         -30.885  39.557  30.393  0.00  0.00     0.082 A 
ATOM     55  H26 MOL d         -31.756  38.874  32.269  0.00  0.00     0.087 H 
ATOM     56  CE1 MOL d         -30.274  40.596  29.664  0.00  0.00    -0.050 A 
ATOM     57  CD1 MOL d         -30.038  41.823  30.285  0.00  0.00    -0.074 A 
ATOM     58  H25 MOL d         -29.990  40.443  28.629  0.00  0.00     0.087 H 
ATOM     59  H23 MOL d         -29.566  42.632  29.740  0.00  0.00     0.084 H 
BRANCH  54  60
ATOM     60  OH  MOL d         -31.127  38.305  29.793  0.00  0.00    -0.240 OA
BRANCH  60  61
ATOM     61  P   MOL d         -29.917  37.183  29.642  0.00  0.00     0.427 P 
ATOM     62  O3P MOL d         -28.982  37.581  28.552  0.00  0.00    -0.617 OA
ATOM     63  O2P MOL d         -29.150  37.124  30.909  0.00  0.00    -0.617 OA
ATOM     64  O1P MOL d         -30.605  35.929  29.284  0.00  0.00    -0.617 OA
ENDBRANCH  60  61
ENDBRANCH  54  60
ENDBRANCH  47  50
ENDBRANCH  46  47
BRANCH  46  65
ATOM     65  C   MOL d         -28.122  42.318  33.308  0.00  0.00     0.246 C 
ATOM     66  O   MOL d         -27.829  41.406  34.106  0.00  0.00    -0.271 OA
ATOM     67  N   MOL d         -27.419  42.518  32.210  0.00  0.00    -0.344 N 
ATOM     68  H27 MOL d         -27.646  43.271  31.592  0.00  0.00     0.163 HD
BRANCH  67  69
ATOM     69  CA  MOL d         -26.314  41.633  31.911  0.00  0.00     0.104 C 
ATOM     70  H28 MOL d         -25.622  42.144  31.224  0.00  0.00     0.090 H 
BRANCH  69  71
ATOM     71  C   MOL d         -26.856  40.370  31.240  0.00  0.00     0.197 C 
ATOM     72  OXT MOL d         -27.327  39.511  31.983  0.00  0.00    -0.646 OA
ATOM     73  O   MOL d         -26.804  40.215  29.979  0.00  0.00    -0.646 OA
ENDBRANCH  69  71
BRANCH  69  74
ATOM     74  CB  MOL d         -25.540  41.231  33.198  0.00  0.00     0.037 C 
ATOM     75  H29 MOL d         -25.978  40.304  33.594  0.00  0.00     0.051 H 
ATOM     76  H30 MOL d         -25.653  42.036  33.939  0.00  0.00     0.051 H 
BRANCH  74  77
ATOM     77  CG  MOL d         -24.002  40.993  32.945  0.00  0.00     0.217 C 
ATOM     78  OD1 MOL d         -23.615  40.022  32.367  0.00  0.00    -0.274 OA
ATOM     79  ND2 MOL d         -23.181  41.885  33.425  0.00  0.00    -0.370 N 
ATOM     80  H31 MOL d         -22.196  41.780  33.292  0.00  0.00     0.159 HD
ATOM     81  H32 MOL d         -23.537  42.674  33.927  0.00  0.00     0.159 HD
ENDBRANCH  74  77
ENDBRANCH  69  74
ENDBRANCH  67  69
ENDBRANCH  46  65
BRANCH  46  82
ATOM     82  CH3 MOL d         -30.310  42.951  34.735  0.00  0.00    -0.044 C 
ATOM     83  H18 MOL d         -29.952  43.349  35.695  0.00  0.00     0.031 H 
ATOM     84  H19 MOL d         -30.420  41.858  34.809  0.00  0.00     0.031 H 
ATOM     85  H20 MOL d         -31.283  43.401  34.491  0.00  0.00     0.031 H 
ENDBRANCH  46  82
ENDBRANCH   3  46
TORSDOF 21
ENDMDL
MODEL 10
REMARK VINA RESULT:      -4.6      3.144      6.055
REMARK  21 active torsions:
REMARK  status: ('A' for Active; 'I' for Inactive)
REMARK    1  A    between atoms: C12_6  and  C3_3 
REMARK    2  A    between atoms: O13_7  and  C12_6 
REMARK    3  A    between atoms: C16_8  and  O13_7 
REMARK    4  A    between atoms: C5_11  and  N11_10 
REMARK    5  A    between atoms: CA_13  and  N_12 
REMARK    6  A    between atoms: CA_13  and  CB_16 
REMARK    7  A    between atoms: C_14  and  CA_13 
REMARK       I    between atoms: N_28  and  C_14 
REMARK    8  A    between atoms: CB_16  and  CG_17 
REMARK    9  A    between atoms: CZ_22  and  OH_23 
REMARK   10  A    between atoms: OH_23  and  P_24 
REMARK   11  A    between atoms: CA_29  and  N_28 
REMARK   12  A    between atoms: CA_29  and  CB_33 
REMARK   13  A    between atoms: C_31  and  CA_29 
REMARK   14  A    between atoms: CA_29  and  CH3_30 
REMARK       I    between atoms: C_31  and  N_45 
REMARK   15  A    between atoms: CB_33  and  CG_34 
REMARK   16  A    between atoms: CZ_39  and  OH_40 
REMARK   17  A    between atoms: OH_40  and  P_41 
REMARK   18  A    between atoms: N_45  and  CA_46 
REMARK   19  A    between atoms: CA_46  and  C_47 
REMARK   20  A    between atoms: CA_46  and  CB_49 
REMARK   21  A    between atoms: CB_49  and  CG_50 
REMARK       I    between atoms: CG_50  and  ND2_52 
ROOT
ATOM      1  C   MOL d         -30.633  45.695  34.315  0.00  0.00     0.241 C 
ATOM      2  O   MOL d         -31.295  44.937  33.557  0.00  0.00    -0.271 OA
ATOM      3  N   MOL d         -29.748  45.314  35.186  0.00  0.00    -0.341 N 
ATOM      4  H17 MOL d         -29.227  46.006  35.685  0.00  0.00     0.163 HD
ENDROOT
BRANCH   1   5
ATOM      5  CA  MOL d         -30.634  47.185  34.218  0.00  0.00     0.094 C 
ATOM      6  H10 MOL d         -31.376  47.656  34.878  0.00  0.00     0.088 H 
BRANCH   5   7
ATOM      7  N   MOL d         -29.313  47.491  34.616  0.00  0.00    -0.335 N 
ATOM      8  C16 MOL d         -28.936  48.113  35.709  0.00  0.00     0.292 C 
ATOM      9  O18 MOL d         -29.662  47.953  36.867  0.00  0.00    -0.143 OA
ATOM     10  H9  MOL d         -28.583  47.202  33.996  0.00  0.00     0.164 HD
BRANCH   8  11
ATOM     11  O13 MOL d         -27.661  48.381  35.675  0.00  0.00    -0.310 OA
BRANCH  11  12
ATOM     12  C12 MOL d         -26.887  49.233  36.534  0.00  0.00     0.053 C 
ATOM     13  H5  MOL d         -27.048  48.865  37.558  0.00  0.00     0.082 H 
ATOM     14  H6  MOL d         -25.834  49.082  36.251  0.00  0.00     0.082 H 
BRANCH  12  15
ATOM     15  C3  MOL d         -27.097  50.702  36.583  0.00  0.00    -0.032 A 
ATOM     16  C2  MOL d         -26.452  51.583  35.697  0.00  0.00    -0.075 A 
ATOM     17  C1  MOL d         -26.732  52.977  35.793  0.00  0.00    -0.080 A 
ATOM     18  H2  MOL d         -25.756  51.210  34.955  0.00  0.00     0.084 H 
ATOM     19  C6  MOL d         -27.629  53.457  36.787  0.00  0.00    -0.058 A 
ATOM     20  H1  MOL d         -26.261  53.673  35.107  0.00  0.00     0.083 H 
ATOM     21  C5  MOL d         -28.247  52.551  37.669  0.00  0.00     0.026 A 
ATOM     22  H4  MOL d         -27.837  54.518  36.865  0.00  0.00     0.086 H 
ATOM     23  C4  MOL d         -27.986  51.179  37.561  0.00  0.00    -0.050 A 
ATOM     24  H3  MOL d         -28.473  50.482  38.234  0.00  0.00     0.087 H 
BRANCH  21  25
ATOM     25  N11 MOL d         -29.093  52.983  38.632  0.00  0.00    -0.399 N 
ATOM     26  H7  MOL d         -30.074  52.668  38.635  0.00  0.00     0.156 HD
ATOM     27  H8  MOL d         -28.757  53.628  39.362  0.00  0.00     0.156 HD
ENDBRANCH  21  25
ENDBRANCH  12  15
ENDBRANCH  11  12
ENDBRANCH   8  11
ENDBRANCH   5   7
BRANCH   5  28
ATOM     28  CB  MOL d         -30.919  47.547  32.731  0.00  0.00    -0.014 C 
ATOM     29  H11 MOL d         -31.509  48.476  32.700  0.00  0.00     0.043 H 
ATOM     30  H12 MOL d         -31.497  46.731  32.272  0.00  0.00     0.043 H 
BRANCH  28  31
ATOM     31  CG  MOL d         -29.637  47.752  31.930  0.00  0.00    -0.056 A 
ATOM     32  CD2 MOL d         -29.142  46.745  31.061  0.00  0.00    -0.074 A 
ATOM     33  CE2 MOL d         -27.959  46.957  30.312  0.00  0.00    -0.050 A 
ATOM     34  H14 MOL d         -29.676  45.806  30.968  0.00  0.00     0.084 H 
ATOM     35  CZ  MOL d         -27.326  48.226  30.476  0.00  0.00     0.082 A 
ATOM     36  H16 MOL d         -27.556  46.198  29.651  0.00  0.00     0.087 H 
ATOM     37  CE1 MOL d         -27.801  49.230  31.321  0.00  0.00    -0.050 A 
ATOM     38  CD1 MOL d         -28.954  48.990  32.049  0.00  0.00    -0.074 A 
ATOM     39  H15 MOL d         -27.279  50.176  31.405  0.00  0.00     0.087 H 
ATOM     40  H13 MOL d         -29.338  49.754  32.715  0.00  0.00     0.084 H 
BRANCH  35  41
ATOM     41  OH  MOL d         -26.152  48.487  29.752  0.00  0.00    -0.240 OA
BRANCH  41  42
ATOM     42  P   MOL d         -24.772  47.887  29.984  0.00  0.00     0.427 P 
ATOM     43  O3P MOL d         -23.843  48.992  30.553  0.00  0.00    -0.617 OA
ATOM     44  O2P MOL d         -24.784  46.729  30.862  0.00  0.00    -0.617 OA
ATOM     45  O1P MOL d         -24.274  47.498  28.687  0.00  0.00    -0.617 OA
ENDBRANCH  41  42
ENDBRANCH  35  41
ENDBRANCH  28  31
ENDBRANCH   5  28
ENDBRANCH   1   5
BRANCH   3  46
ATOM     46  CA  MOL d         -29.499  43.931  35.451  0.00  0.00     0.114 C 
BRANCH  46  47
ATOM     47  CB  MOL d         -30.938  43.313  35.338  0.00  0.00    -0.009 C 
ATOM     48  H21 MOL d         -31.186  43.225  34.269  0.00  0.00     0.044 H 
ATOM     49  H22 MOL d         -31.643  44.006  35.822  0.00  0.00     0.044 H 
BRANCH  47  50
ATOM     50  CG  MOL d         -31.119  41.932  35.978  0.00  0.00    -0.055 A 
ATOM     51  CD2 MOL d         -31.515  41.832  37.317  0.00  0.00    -0.074 A 
ATOM     52  CE2 MOL d         -31.710  40.576  37.952  0.00  0.00    -0.050 A 
ATOM     53  H24 MOL d         -31.679  42.740  37.886  0.00  0.00     0.084 H 
ATOM     54  CZ  MOL d         -31.482  39.444  37.159  0.00  0.00     0.082 A 
ATOM     55  H26 MOL d         -32.017  40.498  38.989  0.00  0.00     0.087 H 
ATOM     56  CE1 MOL d         -31.088  39.513  35.809  0.00  0.00    -0.050 A 
ATOM     57  CD1 MOL d         -30.902  40.760  35.210  0.00  0.00    -0.074 A 
ATOM     58  H25 MOL d         -30.931  38.604  35.238  0.00  0.00     0.087 H 
ATOM     59  H23 MOL d         -30.596  40.832  34.173  0.00  0.00     0.084 H 
BRANCH  54  60
ATOM     60  OH  MOL d         -31.669  38.198  37.789  0.00  0.00    -0.240 OA
BRANCH  60  61
ATOM     61  P   MOL d         -30.460  37.065  37.814  0.00  0.00     0.427 P 
ATOM     62  O3P MOL d         -30.854  35.914  38.676  0.00  0.00    -0.617 OA
ATOM     63  O2P MOL d         -30.243  36.557  36.438  0.00  0.00    -0.617 OA
ATOM     64  O1P MOL d         -29.300  37.760  38.401  0.00  0.00    -0.617 OA
ENDBRANCH  60  61
ENDBRANCH  54  60
ENDBRANCH  47  50
ENDBRANCH  46  47
BRANCH  46  65
ATOM     65  C   MOL d         -28.636  43.257  34.355  0.00  0.00     0.246 C 
ATOM     66  O   MOL d         -27.458  42.925  34.589  0.00  0.00    -0.271 OA
ATOM     67  N   MOL d         -29.164  43.100  33.155  0.00  0.00    -0.344 N 
ATOM     68  H27 MOL d         -30.101  43.398  32.972  0.00  0.00     0.163 HD
BRANCH  67  69
ATOM     69  CA  MOL d         -28.370  42.493  32.110  0.00  0.00     0.104 C 
ATOM     70  H28 MOL d         -27.368  42.949  32.112  0.00  0.00     0.090 H 
BRANCH  69  71
ATOM     71  C   MOL d         -29.043  42.750  30.761  0.00  0.00     0.197 C 
ATOM     72  OXT MOL d         -30.205  43.150  30.793  0.00  0.00    -0.646 OA
ATOM     73  O   MOL d         -28.432  42.544  29.665  0.00  0.00    -0.646 OA
ENDBRANCH  69  71
BRANCH  69  74
ATOM     74  CB  MOL d         -28.226  40.960  32.320  0.00  0.00     0.037 C 
ATOM     75  H29 MOL d         -28.793  40.444  31.532  0.00  0.00     0.051 H 
ATOM     76  H30 MOL d         -28.645  40.701  33.303  0.00  0.00     0.051 H 
BRANCH  74  77
ATOM     77  CG  MOL d         -26.729  40.467  32.267  0.00  0.00     0.217 C 
ATOM     78  OD1 MOL d         -26.464  39.320  32.061  0.00  0.00    -0.274 OA
ATOM     79  ND2 MOL d         -25.806  41.360  32.491  0.00  0.00    -0.370 N 
ATOM     80  H31 MOL d         -24.841  41.098  32.469  0.00  0.00     0.159 HD
ATOM     81  H32 MOL d         -26.062  42.307  32.685  0.00  0.00     0.159 HD
ENDBRANCH  74  77
ENDBRANCH  69  74
ENDBRANCH  67  69
ENDBRANCH  46  65
BRANCH  46  82
ATOM     82  CH3 MOL d         -29.159  43.711  36.951  0.00  0.00    -0.044 C 
ATOM     83  H18 MOL d         -29.936  43.086  37.414  0.00  0.00     0.031 H 
ATOM     84  H19 MOL d         -29.116  44.683  37.464  0.00  0.00     0.031 H 
ATOM     85  H20 MOL d         -28.185  43.208  37.036  0.00  0.00     0.031 H 
ENDBRANCH  46  82
ENDBRANCH   3  46
TORSDOF 21
ENDMDL
