MODEL 1
REMARK VINA RESULT:      -5.8      0.000      0.000
REMARK  2 active torsions:
REMARK  status: ('A' for Active; 'I' for Inactive)
REMARK    1  A    between atoms: OAH_8  and  CAA_1 
REMARK    2  A    between atoms: OAH_8  and  CAI_9 
ROOT
ATOM      1  CAB BZ3 d          14.974  10.458  -0.155  0.00  0.00    -0.022 A 
ATOM      2  CAC BZ3 d          14.495   9.711  -4.654  0.00  0.00    -0.049 A 
ATOM      3  CAD BZ3 d          13.658  10.292  -0.568  0.00  0.00    -0.056 A 
ATOM      4  CAE BZ3 d          15.494   9.932  -3.704  0.00  0.00    -0.054 A 
ATOM      5  CAF BZ3 d          12.801   9.861  -2.924  0.00  0.00    -0.039 A 
ATOM      6  NAG BZ3 d          15.815  10.342  -1.221  0.00  0.00    -0.365 N 
ATOM      7  CAI BZ3 d          13.158   9.666  -4.263  0.00  0.00     0.069 A 
ATOM      8  CAJ BZ3 d          13.801  10.080  -1.971  0.00  0.00    -0.005 A 
ATOM      9  CAK BZ3 d          15.124  10.121  -2.363  0.00  0.00     0.042 A 
ATOM     10  H4  BZ3 d          15.287  10.652   0.870  0.00  0.00     0.111 H 
ATOM     11  H5  BZ3 d          14.760   9.574  -5.696  0.00  0.00     0.087 H 
ATOM     12  H6  BZ3 d          12.748  10.318   0.029  0.00  0.00     0.086 H 
ATOM     13  H7  BZ3 d          16.537   9.959  -3.997  0.00  0.00     0.087 H 
ATOM     14  H8  BZ3 d          11.759   9.843  -2.628  0.00  0.00     0.089 H 
ATOM     15  H9  BZ3 d          16.841  10.412  -1.165  0.00  0.00     0.165 HD
ENDROOT
BRANCH   7  16
ATOM     16  OAH BZ3 d          12.191   9.452  -5.218  0.00  0.00    -0.356 OA
BRANCH  16  17
ATOM     17  CAA BZ3 d          10.803   9.533  -4.887  0.00  0.00     0.010 C 
ATOM     18  H1  BZ3 d          10.199   9.330  -5.784  0.00  0.00     0.066 H 
ATOM     19  H2  BZ3 d          10.574  10.541  -4.510  0.00  0.00     0.066 H 
ATOM     20  H3  BZ3 d          10.567   8.789  -4.111  0.00  0.00     0.066 H 
ENDBRANCH  16  17
ENDBRANCH   7  16
TORSDOF 2
ENDMDL
