MODEL 1
REMARK VINA RESULT:      -5.8      0.000      0.000
REMARK  2 active torsions:
REMARK  status: ('A' for Active; 'I' for Inactive)
REMARK    1  A    between atoms: OAH_8  and  CAA_1 
REMARK    2  A    between atoms: OAH_8  and  CAI_9 
ROOT
ATOM      1  CAB BZ3 d          14.881  10.479  -0.088  0.00  0.00    -0.022 A 
ATOM      2  CAC BZ3 d          14.531   9.702  -4.594  0.00  0.00    -0.049 A 
ATOM      3  CAD BZ3 d          13.578  10.313  -0.537  0.00  0.00    -0.056 A 
ATOM      4  CAE BZ3 d          15.502   9.928  -3.617  0.00  0.00    -0.054 A 
ATOM      5  CAF BZ3 d          12.788   9.867  -2.914  0.00  0.00    -0.039 A 
ATOM      6  NAG BZ3 d          15.753  10.354  -1.129  0.00  0.00    -0.365 N 
ATOM      7  CAI BZ3 d          13.183   9.662  -4.242  0.00  0.00     0.069 A 
ATOM      8  CAJ BZ3 d          13.761  10.091  -1.935  0.00  0.00    -0.005 A 
ATOM      9  CAK BZ3 d          15.095  10.127  -2.288  0.00  0.00     0.042 A 
ATOM     10  H4  BZ3 d          15.166  10.680   0.944  0.00  0.00     0.111 H 
ATOM     11  H5  BZ3 d          14.825   9.557  -5.627  0.00  0.00     0.087 H 
ATOM     12  H6  BZ3 d          12.651  10.345   0.033  0.00  0.00     0.086 H 
ATOM     13  H7  BZ3 d          16.554   9.950  -3.879  0.00  0.00     0.087 H 
ATOM     14  H8  BZ3 d          11.738   9.853  -2.649  0.00  0.00     0.089 H 
ATOM     15  H9  BZ3 d          16.777  10.423  -1.043  0.00  0.00     0.165 HD
ENDROOT
BRANCH   7  16
ATOM     16  OAH BZ3 d          12.244   9.443  -5.222  0.00  0.00    -0.356 OA
BRANCH  16  17
ATOM     17  CAA BZ3 d          10.847   9.535  -4.933  0.00  0.00     0.010 C 
ATOM     18  H1  BZ3 d          10.331  10.027  -5.771  0.00  0.00     0.066 H 
ATOM     19  H2  BZ3 d          10.701  10.123  -4.015  0.00  0.00     0.066 H 
ATOM     20  H3  BZ3 d          10.434   8.525  -4.791  0.00  0.00     0.066 H 
ENDBRANCH  16  17
ENDBRANCH   7  16
TORSDOF 2
ENDMDL
MODEL 2
REMARK VINA RESULT:      -5.8      2.544      4.545
REMARK  2 active torsions:
REMARK  status: ('A' for Active; 'I' for Inactive)
REMARK    1  A    between atoms: OAH_8  and  CAA_1 
REMARK    2  A    between atoms: OAH_8  and  CAI_9 
ROOT
ATOM      1  CAB BZ3 d          12.458   9.147  -4.692  0.00  0.00    -0.022 A 
ATOM      2  CAC BZ3 d          14.396  10.795  -0.877  0.00  0.00    -0.049 A 
ATOM      3  CAD BZ3 d          13.845   9.079  -4.683  0.00  0.00    -0.056 A 
ATOM      4  CAE BZ3 d          13.134  10.597  -1.439  0.00  0.00    -0.054 A 
ATOM      5  CAF BZ3 d          15.436   9.843  -2.851  0.00  0.00    -0.039 A 
ATOM      6  NAG BZ3 d          12.011   9.691  -3.525  0.00  0.00    -0.365 N 
ATOM      7  CAI BZ3 d          15.539  10.410  -1.575  0.00  0.00     0.069 A 
ATOM      8  CAJ BZ3 d          14.172   9.643  -3.414  0.00  0.00    -0.005 A 
ATOM      9  CAK BZ3 d          13.043  10.022  -2.716  0.00  0.00     0.042 A 
ATOM     10  H4  BZ3 d          11.821   8.814  -5.510  0.00  0.00     0.111 H 
ATOM     11  H5  BZ3 d          14.487  11.247   0.104  0.00  0.00     0.087 H 
ATOM     12  H6  BZ3 d          14.514   8.694  -5.451  0.00  0.00     0.086 H 
ATOM     13  H7  BZ3 d          12.239  10.883  -0.899  0.00  0.00     0.087 H 
ATOM     14  H8  BZ3 d          16.329   9.563  -3.397  0.00  0.00     0.089 H 
ATOM     15  H9  BZ3 d          11.017   9.832  -3.290  0.00  0.00     0.165 HD
ENDROOT
BRANCH   7  16
ATOM     16  OAH BZ3 d          16.772  10.620  -1.003  0.00  0.00    -0.356 OA
BRANCH  16  17
ATOM     17  CAA BZ3 d          16.888  11.137   0.324  0.00  0.00     0.010 C 
ATOM     18  H1  BZ3 d          16.393  12.118   0.380  0.00  0.00     0.066 H 
ATOM     19  H2  BZ3 d          17.951  11.246   0.584  0.00  0.00     0.066 H 
ATOM     20  H3  BZ3 d          16.407  10.444   1.031  0.00  0.00     0.066 H 
ENDBRANCH  16  17
ENDBRANCH   7  16
TORSDOF 2
ENDMDL
MODEL 3
REMARK VINA RESULT:      -5.1      1.182      2.173
REMARK  2 active torsions:
REMARK  status: ('A' for Active; 'I' for Inactive)
REMARK    1  A    between atoms: OAH_8  and  CAA_1 
REMARK    2  A    between atoms: OAH_8  and  CAI_9 
ROOT
ATOM      1  CAB BZ3 d          16.506  10.899   0.077  0.00  0.00    -0.022 A 
ATOM      2  CAC BZ3 d          12.661  10.123  -2.298  0.00  0.00    -0.049 A 
ATOM      3  CAD BZ3 d          16.719  10.467  -1.226  0.00  0.00    -0.056 A 
ATOM      4  CAE BZ3 d          13.073  10.545  -1.034  0.00  0.00    -0.054 A 
ATOM      5  CAF BZ3 d          14.976   9.882  -2.984  0.00  0.00    -0.039 A 
ATOM      6  NAG BZ3 d          15.169  10.997   0.323  0.00  0.00    -0.365 N 
ATOM      7  CAI BZ3 d          13.608   9.803  -3.270  0.00  0.00     0.069 A 
ATOM      8  CAJ BZ3 d          15.389  10.308  -1.718  0.00  0.00    -0.005 A 
ATOM      9  CAK BZ3 d          14.448  10.627  -0.760  0.00  0.00     0.042 A 
ATOM     10  H4  BZ3 d          17.292  11.127   0.796  0.00  0.00     0.111 H 
ATOM     11  H5  BZ3 d          11.604  10.043  -2.525  0.00  0.00     0.087 H 
ATOM     12  H6  BZ3 d          17.662  10.292  -1.741  0.00  0.00     0.086 H 
ATOM     13  H7  BZ3 d          12.344  10.806  -0.275  0.00  0.00     0.087 H 
ATOM     14  H8  BZ3 d          15.708   9.615  -3.738  0.00  0.00     0.089 H 
ATOM     15  H9  BZ3 d          14.761  11.311   1.215  0.00  0.00     0.165 HD
ENDROOT
BRANCH   7  16
ATOM     16  OAH BZ3 d          13.178   9.383  -4.507  0.00  0.00    -0.356 OA
BRANCH  16  17
ATOM     17  CAA BZ3 d          11.787   9.359  -4.832  0.00  0.00     0.010 C 
ATOM     18  H1  BZ3 d          11.304   8.515  -4.316  0.00  0.00     0.066 H 
ATOM     19  H2  BZ3 d          11.666   9.242  -5.919  0.00  0.00     0.066 H 
ATOM     20  H3  BZ3 d          11.318  10.300  -4.510  0.00  0.00     0.066 H 
ENDBRANCH  16  17
ENDBRANCH   7  16
TORSDOF 2
ENDMDL
MODEL 4
REMARK VINA RESULT:      -5.1      2.492      4.173
REMARK  2 active torsions:
REMARK  status: ('A' for Active; 'I' for Inactive)
REMARK    1  A    between atoms: OAH_8  and  CAA_1 
REMARK    2  A    between atoms: OAH_8  and  CAI_9 
ROOT
ATOM      1  CAB BZ3 d          12.083   9.307  -4.696  0.00  0.00    -0.022 A 
ATOM      2  CAC BZ3 d          15.838  10.209  -2.224  0.00  0.00    -0.049 A 
ATOM      3  CAD BZ3 d          11.825   9.681  -3.384  0.00  0.00    -0.056 A 
ATOM      4  CAE BZ3 d          15.471   9.818  -3.513  0.00  0.00    -0.054 A 
ATOM      5  CAF BZ3 d          13.504  10.286  -1.570  0.00  0.00    -0.039 A 
ATOM      6  NAG BZ3 d          13.426   9.315  -4.927  0.00  0.00    -0.365 N 
ATOM      7  CAI BZ3 d          14.859  10.451  -1.263  0.00  0.00     0.069 A 
ATOM      8  CAJ BZ3 d          13.135   9.896  -2.862  0.00  0.00    -0.005 A 
ATOM      9  CAK BZ3 d          14.109   9.661  -3.812  0.00  0.00     0.042 A 
ATOM     10  H4  BZ3 d          11.324   9.047  -5.433  0.00  0.00     0.111 H 
ATOM     11  H5  BZ3 d          16.886  10.325  -1.971  0.00  0.00     0.087 H 
ATOM     12  H6  BZ3 d          10.865   9.783  -2.880  0.00  0.00     0.086 H 
ATOM     13  H7  BZ3 d          16.225   9.638  -4.270  0.00  0.00     0.087 H 
ATOM     14  H8  BZ3 d          12.747  10.458  -0.814  0.00  0.00     0.089 H 
ATOM     15  H9  BZ3 d          13.864   9.087  -5.831  0.00  0.00     0.165 HD
ENDROOT
BRANCH   7  16
ATOM     16  OAH BZ3 d          15.245  10.829   0.002  0.00  0.00    -0.356 OA
BRANCH  16  17
ATOM     17  CAA BZ3 d          16.625  11.014   0.324  0.00  0.00     0.010 C 
ATOM     18  H1  BZ3 d          17.246  10.435  -0.376  0.00  0.00     0.066 H 
ATOM     19  H2  BZ3 d          16.811  10.668   1.351  0.00  0.00     0.066 H 
ATOM     20  H3  BZ3 d          16.881  12.081   0.244  0.00  0.00     0.066 H 
ENDBRANCH  16  17
ENDBRANCH   7  16
TORSDOF 2
ENDMDL
MODEL 5
REMARK VINA RESULT:      -3.5      1.246      1.388
REMARK  2 active torsions:
REMARK  status: ('A' for Active; 'I' for Inactive)
REMARK    1  A    between atoms: OAH_8  and  CAA_1 
REMARK    2  A    between atoms: OAH_8  and  CAI_9 
ROOT
ATOM      1  CAB BZ3 d          16.214   9.982  -1.567  0.00  0.00    -0.022 A 
ATOM      2  CAC BZ3 d          13.993  10.096  -5.577  0.00  0.00    -0.049 A 
ATOM      3  CAD BZ3 d          14.978   9.350  -1.551  0.00  0.00    -0.056 A 
ATOM      4  CAE BZ3 d          15.192  10.521  -5.003  0.00  0.00    -0.054 A 
ATOM      5  CAF BZ3 d          13.320   9.109  -3.465  0.00  0.00    -0.039 A 
ATOM      6  NAG BZ3 d          16.467  10.480  -2.810  0.00  0.00    -0.365 N 
ATOM      7  CAI BZ3 d          13.068   9.385  -4.814  0.00  0.00     0.069 A 
ATOM      8  CAJ BZ3 d          14.523   9.532  -2.890  0.00  0.00    -0.005 A 
ATOM      9  CAK BZ3 d          15.437  10.233  -3.651  0.00  0.00     0.042 A 
ATOM     10  H4  BZ3 d          16.884  10.066  -0.712  0.00  0.00     0.111 H 
ATOM     11  H5  BZ3 d          13.781  10.318  -6.616  0.00  0.00     0.087 H 
ATOM     12  H6  BZ3 d          14.482   8.843  -0.724  0.00  0.00     0.086 H 
ATOM     13  H7  BZ3 d          15.923  11.065  -5.591  0.00  0.00     0.087 H 
ATOM     14  H8  BZ3 d          12.590   8.571  -2.872  0.00  0.00     0.089 H 
ATOM     15  H9  BZ3 d          17.329  10.980  -3.074  0.00  0.00     0.165 HD
ENDROOT
BRANCH   7  16
ATOM     16  OAH BZ3 d          11.891   8.981  -5.400  0.00  0.00    -0.356 OA
BRANCH  16  17
ATOM     17  CAA BZ3 d          10.638   9.180  -4.741  0.00  0.00     0.010 C 
ATOM     18  H1  BZ3 d          10.084   8.230  -4.711  0.00  0.00     0.066 H 
ATOM     19  H2  BZ3 d          10.051   9.931  -5.289  0.00  0.00     0.066 H 
ATOM     20  H3  BZ3 d          10.815   9.531  -3.713  0.00  0.00     0.066 H 
ENDBRANCH  16  17
ENDBRANCH   7  16
TORSDOF 2
ENDMDL
MODEL 6
REMARK VINA RESULT:      -3.4      2.353      3.811
REMARK  2 active torsions:
REMARK  status: ('A' for Active; 'I' for Inactive)
REMARK    1  A    between atoms: OAH_8  and  CAA_1 
REMARK    2  A    between atoms: OAH_8  and  CAI_9 
ROOT
ATOM      1  CAB BZ3 d          14.689   9.668  -5.649  0.00  0.00    -0.022 A 
ATOM      2  CAC BZ3 d          15.785  10.350  -1.249  0.00  0.00    -0.049 A 
ATOM      3  CAD BZ3 d          13.601   9.681  -4.787  0.00  0.00    -0.056 A 
ATOM      4  CAE BZ3 d          16.392  10.245  -2.501  0.00  0.00    -0.054 A 
ATOM      5  CAF BZ3 d          13.608  10.009  -2.264  0.00  0.00    -0.039 A 
ATOM      6  NAG BZ3 d          15.840   9.878  -4.950  0.00  0.00    -0.365 N 
ATOM      7  CAI BZ3 d          14.400  10.243  -1.133  0.00  0.00     0.069 A 
ATOM      8  CAJ BZ3 d          14.216   9.907  -3.519  0.00  0.00    -0.005 A 
ATOM      9  CAK BZ3 d          15.587  10.017  -3.628  0.00  0.00     0.042 A 
ATOM     10  H4  BZ3 d          14.632   9.512  -6.725  0.00  0.00     0.111 H 
ATOM     11  H5  BZ3 d          16.391  10.516  -0.365  0.00  0.00     0.087 H 
ATOM     12  H6  BZ3 d          12.545   9.553  -5.019  0.00  0.00     0.086 H 
ATOM     13  H7  BZ3 d          17.467  10.338  -2.602  0.00  0.00     0.087 H 
ATOM     14  H8  BZ3 d          12.533   9.909  -2.166  0.00  0.00     0.089 H 
ATOM     15  H9  BZ3 d          16.779   9.926  -5.372  0.00  0.00     0.165 HD
ENDROOT
BRANCH   7  16
ATOM     16  OAH BZ3 d          13.825  10.344   0.112  0.00  0.00    -0.356 OA
BRANCH  16  17
ATOM     17  CAA BZ3 d          12.464   9.963   0.324  0.00  0.00     0.010 C 
ATOM     18  H1  BZ3 d          12.430   9.027   0.901  0.00  0.00     0.066 H 
ATOM     19  H2  BZ3 d          11.969   9.813  -0.648  0.00  0.00     0.066 H 
ATOM     20  H3  BZ3 d          11.943  10.755   0.882  0.00  0.00     0.066 H 
ENDBRANCH  16  17
ENDBRANCH   7  16
TORSDOF 2
ENDMDL
MODEL 7
REMARK VINA RESULT:      -2.8      2.199      3.893
REMARK  2 active torsions:
REMARK  status: ('A' for Active; 'I' for Inactive)
REMARK    1  A    between atoms: OAH_8  and  CAA_1 
REMARK    2  A    between atoms: OAH_8  and  CAI_9 
ROOT
ATOM      1  CAB BZ3 d          15.979   9.689  -5.494  0.00  0.00    -0.022 A 
ATOM      2  CAC BZ3 d          12.111   9.632  -3.032  0.00  0.00    -0.049 A 
ATOM      3  CAD BZ3 d          16.141  10.075  -4.171  0.00  0.00    -0.056 A 
ATOM      4  CAE BZ3 d          12.563   9.363  -4.325  0.00  0.00    -0.054 A 
ATOM      5  CAF BZ3 d          14.362  10.238  -2.359  0.00  0.00    -0.039 A 
ATOM      6  NAG BZ3 d          14.675   9.370  -5.730  0.00  0.00    -0.365 N 
ATOM      7  CAI BZ3 d          13.008  10.056  -2.053  0.00  0.00     0.069 A 
ATOM      8  CAJ BZ3 d          14.816   9.966  -3.654  0.00  0.00    -0.005 A 
ATOM      9  CAK BZ3 d          13.924   9.543  -4.619  0.00  0.00     0.042 A 
ATOM     10  H4  BZ3 d          16.776   9.646  -6.235  0.00  0.00     0.111 H 
ATOM     11  H5  BZ3 d          11.062   9.510  -2.788  0.00  0.00     0.087 H 
ATOM     12  H6  BZ3 d          17.051  10.383  -3.656  0.00  0.00     0.086 H 
ATOM     13  H7  BZ3 d          11.875   9.022  -5.090  0.00  0.00     0.087 H 
ATOM     14  H8  BZ3 d          15.052  10.585  -1.600  0.00  0.00     0.089 H 
ATOM     15  H9  BZ3 d          14.309   9.041  -6.636  0.00  0.00     0.165 HD
ENDROOT
BRANCH   7  16
ATOM     16  OAH BZ3 d          12.539  10.321  -0.788  0.00  0.00    -0.356 OA
BRANCH  16  17
ATOM     17  CAA BZ3 d          13.437  10.435   0.318  0.00  0.00     0.010 C 
ATOM     18  H1  BZ3 d          13.283   9.588   1.005  0.00  0.00     0.066 H 
ATOM     19  H2  BZ3 d          13.245  11.378   0.850  0.00  0.00     0.066 H 
ATOM     20  H3  BZ3 d          14.474  10.425  -0.048  0.00  0.00     0.066 H 
ENDBRANCH  16  17
ENDBRANCH   7  16
TORSDOF 2
ENDMDL
