MODEL 1
REMARK VINA RESULT:      -9.4      0.000      0.000
REMARK  8 active torsions:
REMARK  status: ('A' for Active; 'I' for Inactive)
REMARK    1  A    between atoms: CAQ_9  and  CAL_10 
REMARK    2  A    between atoms: CAL_10  and  CAP_11 
REMARK       I    between atoms: CAP_11  and  NAM_13 
REMARK    3  A    between atoms: NAM_13  and  CAK_14 
REMARK    4  A    between atoms: CAK_14  and  CAU_15 
REMARK    5  A    between atoms: CAT_17  and  CAA_18 
REMARK    6  A    between atoms: CAV_19  and  OAC_20 
REMARK    7  A    between atoms: CAX_21  and  OAE_22 
REMARK    8  A    between atoms: CAW_23  and  OAD_24 
ROOT
ATOM      1  CAK ZX6 d          -1.860  26.145  27.164  0.00  0.00     0.024 C 
ATOM      2  H10 ZX6 d          -2.887  25.763  27.065  0.00  0.00     0.067 H 
ATOM      3  H11 ZX6 d          -1.150  25.306  27.110  0.00  0.00     0.067 H 
ENDROOT
BRANCH   1   4
ATOM      4  NAM ZX6 d          -1.733  26.755  28.499  0.00  0.00    -0.359 N 
ATOM      5  CAP ZX6 d          -2.635  26.571  29.462  0.00  0.00     0.222 C 
ATOM      6  OAB ZX6 d          -3.715  26.018  29.260  0.00  0.00    -0.273 OA
ATOM      7  H9  ZX6 d          -0.938  27.330  28.690  0.00  0.00     0.162 HD
BRANCH   5   8
ATOM      8  CAL ZX6 d          -2.385  27.197  30.840  0.00  0.00     0.035 C 
ATOM      9  H7  ZX6 d          -2.195  28.271  30.694  0.00  0.00     0.054 H 
ATOM     10  H8  ZX6 d          -3.295  27.065  31.443  0.00  0.00     0.054 H 
BRANCH   8  11
ATOM     11  CAQ ZX6 d          -1.210  26.611  31.625  0.00  0.00    -0.022 A 
ATOM     12  CAS ZX6 d          -0.781  25.290  31.689  0.00  0.00    -0.001 A 
ATOM     13  CAI ZX6 d          -1.191  24.113  31.073  0.00  0.00    -0.070 A 
ATOM     14  CAR ZX6 d           0.318  25.274  32.541  0.00  0.00     0.042 A 
ATOM     15  CAG ZX6 d          -0.500  22.928  31.308  0.00  0.00    -0.082 A 
ATOM     16  H1  ZX6 d          -2.049  24.118  30.410  0.00  0.00     0.084 H 
ATOM     17  CAF ZX6 d           0.598  22.912  32.163  0.00  0.00    -0.081 A 
ATOM     18  H2  ZX6 d          -0.818  22.013  30.823  0.00  0.00     0.083 H 
ATOM     19  CAH ZX6 d           1.006  24.090  32.783  0.00  0.00    -0.056 A 
ATOM     20  H3  ZX6 d           1.133  21.988  32.345  0.00  0.00     0.083 H 
ATOM     21  H4  ZX6 d           1.859  24.084  33.452  0.00  0.00     0.086 H 
ATOM     22  NAO ZX6 d           0.518  26.523  32.952  0.00  0.00    -0.365 N 
ATOM     23  CAJ ZX6 d          -0.397  27.321  32.404  0.00  0.00    -0.015 A 
ATOM     24  H5  ZX6 d           1.264  26.826  33.593  0.00  0.00     0.165 HD
ATOM     25  H6  ZX6 d          -0.469  28.395  32.568  0.00  0.00     0.112 H 
ENDBRANCH   8  11
ENDBRANCH   5   8
ENDBRANCH   1   4
BRANCH   1  26
ATOM     26  CAU ZX6 d          -1.586  27.065  25.969  0.00  0.00     0.144 C 
ATOM     27  NAN ZX6 d          -0.140  27.318  25.832  0.00  0.00    -0.060 N 
ATOM     28  CAT ZX6 d           0.155  28.257  24.734  0.00  0.00     0.126 C 
ATOM     29  H13 ZX6 d           0.327  26.444  25.648  0.00  0.00     0.278 HD
ATOM     30  H14 ZX6 d           0.205  27.708  26.696  0.00  0.00     0.278 HD
ATOM     31  CAV ZX6 d          -0.400  27.788  23.382  0.00  0.00     0.089 C 
ATOM     32  H15 ZX6 d          -0.313  29.223  24.976  0.00  0.00     0.087 H 
ATOM     33  CAX ZX6 d          -1.880  27.419  23.524  0.00  0.00     0.089 C 
ATOM     34  H19 ZX6 d          -0.301  28.605  22.653  0.00  0.00     0.090 H 
ATOM     35  CAW ZX6 d          -2.012  26.398  24.654  0.00  0.00     0.091 C 
ATOM     36  H21 ZX6 d          -2.456  28.322  23.771  0.00  0.00     0.091 H 
ATOM     37  H23 ZX6 d          -1.344  25.546  24.461  0.00  0.00     0.090 H 
ATOM     38  H12 ZX6 d          -2.129  28.011  26.108  0.00  0.00     0.091 H 
BRANCH  28  39
ATOM     39  CAA ZX6 d           1.668  28.459  24.633  0.00  0.00    -0.047 C 
ATOM     40  H16 ZX6 d           2.132  27.553  24.218  0.00  0.00     0.030 H 
ATOM     41  H17 ZX6 d           2.079  28.655  25.634  0.00  0.00     0.030 H 
ATOM     42  H18 ZX6 d           1.880  29.314  23.974  0.00  0.00     0.030 H 
ENDBRANCH  28  39
BRANCH  31  43
ATOM     43  OAC ZX6 d           0.328  26.650  22.910  0.00  0.00    -0.391 OA
ATOM     44  H20 ZX6 d           0.430  26.710  21.967  0.00  0.00     0.210 HD
ENDBRANCH  31  43
BRANCH  33  45
ATOM     45  OAE ZX6 d          -2.398  26.849  22.320  0.00  0.00    -0.390 OA
ATOM     46  H22 ZX6 d          -2.210  25.918  22.306  0.00  0.00     0.210 HD
ENDBRANCH  33  45
BRANCH  35  47
ATOM     47  OAD ZX6 d          -3.360  25.928  24.673  0.00  0.00    -0.391 OA
ATOM     48  H24 ZX6 d          -3.542  25.459  23.867  0.00  0.00     0.210 HD
ENDBRANCH  35  47
ENDBRANCH   1  26
TORSDOF 8
ENDMDL
MODEL 2
REMARK VINA RESULT:      -6.6      0.971      2.235
REMARK  8 active torsions:
REMARK  status: ('A' for Active; 'I' for Inactive)
REMARK    1  A    between atoms: CAQ_9  and  CAL_10 
REMARK    2  A    between atoms: CAL_10  and  CAP_11 
REMARK       I    between atoms: CAP_11  and  NAM_13 
REMARK    3  A    between atoms: NAM_13  and  CAK_14 
REMARK    4  A    between atoms: CAK_14  and  CAU_15 
REMARK    5  A    between atoms: CAT_17  and  CAA_18 
REMARK    6  A    between atoms: CAV_19  and  OAC_20 
REMARK    7  A    between atoms: CAX_21  and  OAE_22 
REMARK    8  A    between atoms: CAW_23  and  OAD_24 
ROOT
ATOM      1  CAK ZX6 d          -2.627  26.669  27.225  0.00  0.00     0.024 C 
ATOM      2  H10 ZX6 d          -2.975  27.445  27.922  0.00  0.00     0.067 H 
ATOM      3  H11 ZX6 d          -3.492  26.103  26.846  0.00  0.00     0.067 H 
ENDROOT
BRANCH   1   4
ATOM      4  NAM ZX6 d          -1.774  25.735  27.980  0.00  0.00    -0.359 N 
ATOM      5  CAP ZX6 d          -2.209  25.068  29.049  0.00  0.00     0.222 C 
ATOM      6  OAB ZX6 d          -3.293  25.305  29.580  0.00  0.00    -0.273 OA
ATOM      7  H9  ZX6 d          -0.832  25.595  27.679  0.00  0.00     0.162 HD
BRANCH   5   8
ATOM      8  CAL ZX6 d          -1.266  24.071  29.733  0.00  0.00     0.035 C 
ATOM      9  H7  ZX6 d          -1.867  23.215  30.075  0.00  0.00     0.054 H 
ATOM     10  H8  ZX6 d          -0.533  23.730  28.986  0.00  0.00     0.054 H 
BRANCH   8  11
ATOM     11  CAQ ZX6 d          -0.493  24.616  30.936  0.00  0.00    -0.022 A 
ATOM     12  CAS ZX6 d          -0.417  25.926  31.398  0.00  0.00    -0.001 A 
ATOM     13  CAI ZX6 d          -1.008  27.121  31.008  0.00  0.00    -0.070 A 
ATOM     14  CAR ZX6 d           0.415  25.901  32.513  0.00  0.00     0.042 A 
ATOM     15  CAG ZX6 d          -0.769  28.285  31.732  0.00  0.00    -0.082 A 
ATOM     16  H1  ZX6 d          -1.656  27.147  30.139  0.00  0.00     0.084 H 
ATOM     17  CAF ZX6 d           0.066  28.260  32.845  0.00  0.00    -0.081 A 
ATOM     18  H2  ZX6 d          -1.235  29.215  31.429  0.00  0.00     0.083 H 
ATOM     19  CAH ZX6 d           0.662  27.064  33.234  0.00  0.00    -0.056 A 
ATOM     20  H3  ZX6 d           0.253  29.169  33.406  0.00  0.00     0.083 H 
ATOM     21  H4  ZX6 d           1.316  27.038  34.099  0.00  0.00     0.086 H 
ATOM     22  NAO ZX6 d           0.804  24.642  32.688  0.00  0.00    -0.365 N 
ATOM     23  CAJ ZX6 d           0.260  23.875  31.744  0.00  0.00    -0.015 A 
ATOM     24  H5  ZX6 d           1.427  24.311  33.438  0.00  0.00     0.165 HD
ATOM     25  H6  ZX6 d           0.411  22.801  31.649  0.00  0.00     0.112 H 
ENDBRANCH   8  11
ENDBRANCH   5   8
ENDBRANCH   1   4
BRANCH   1  26
ATOM     26  CAU ZX6 d          -1.972  27.373  26.032  0.00  0.00     0.144 C 
ATOM     27  NAN ZX6 d          -0.508  27.202  26.072  0.00  0.00    -0.060 N 
ATOM     28  CAT ZX6 d           0.164  27.926  24.977  0.00  0.00     0.126 C 
ATOM     29  H13 ZX6 d          -0.293  26.220  25.993  0.00  0.00     0.278 HD
ATOM     30  H14 ZX6 d          -0.164  27.552  26.953  0.00  0.00     0.278 HD
ATOM     31  CAV ZX6 d          -0.349  27.518  23.589  0.00  0.00     0.089 C 
ATOM     32  H15 ZX6 d          -0.032  29.001  25.108  0.00  0.00     0.087 H 
ATOM     33  CAX ZX6 d          -1.878  27.588  23.555  0.00  0.00     0.089 C 
ATOM     34  H19 ZX6 d           0.061  28.212  22.839  0.00  0.00     0.090 H 
ATOM     35  CAW ZX6 d          -2.421  26.743  24.707  0.00  0.00     0.091 C 
ATOM     36  H21 ZX6 d          -2.196  28.634  23.681  0.00  0.00     0.091 H 
ATOM     37  H23 ZX6 d          -2.008  25.726  24.645  0.00  0.00     0.090 H 
ATOM     38  H12 ZX6 d          -2.233  28.441  26.053  0.00  0.00     0.091 H 
BRANCH  28  39
ATOM     39  CAA ZX6 d           1.672  27.690  25.064  0.00  0.00    -0.047 C 
ATOM     40  H16 ZX6 d           2.078  27.530  24.055  0.00  0.00     0.030 H 
ATOM     41  H17 ZX6 d           1.870  26.803  25.683  0.00  0.00     0.030 H 
ATOM     42  H18 ZX6 d           2.156  28.569  25.517  0.00  0.00     0.030 H 
ENDBRANCH  28  39
BRANCH  31  43
ATOM     43  OAC ZX6 d           0.071  26.187  23.272  0.00  0.00    -0.391 OA
ATOM     44  H20 ZX6 d           0.498  25.803  24.029  0.00  0.00     0.210 HD
ENDBRANCH  31  43
BRANCH  33  45
ATOM     45  OAE ZX6 d          -2.401  27.086  22.323  0.00  0.00    -0.390 OA
ATOM     46  H22 ZX6 d          -1.763  26.507  21.923  0.00  0.00     0.210 HD
ENDBRANCH  33  45
BRANCH  35  47
ATOM     47  OAD ZX6 d          -3.841  26.670  24.573  0.00  0.00    -0.391 OA
ATOM     48  H24 ZX6 d          -4.206  27.547  24.595  0.00  0.00     0.210 HD
ENDBRANCH  35  47
ENDBRANCH   1  26
TORSDOF 8
ENDMDL
MODEL 3
REMARK VINA RESULT:      -6.6      2.365      7.863
REMARK  8 active torsions:
REMARK  status: ('A' for Active; 'I' for Inactive)
REMARK    1  A    between atoms: CAQ_9  and  CAL_10 
REMARK    2  A    between atoms: CAL_10  and  CAP_11 
REMARK       I    between atoms: CAP_11  and  NAM_13 
REMARK    3  A    between atoms: NAM_13  and  CAK_14 
REMARK    4  A    between atoms: CAK_14  and  CAU_15 
REMARK    5  A    between atoms: CAT_17  and  CAA_18 
REMARK    6  A    between atoms: CAV_19  and  OAC_20 
REMARK    7  A    between atoms: CAX_21  and  OAE_22 
REMARK    8  A    between atoms: CAW_23  and  OAD_24 
ROOT
ATOM      1  CAK ZX6 d          -2.718  27.211  29.928  0.00  0.00     0.024 C 
ATOM      2  H10 ZX6 d          -3.811  27.294  30.025  0.00  0.00     0.067 H 
ATOM      3  H11 ZX6 d          -2.286  28.212  29.787  0.00  0.00     0.067 H 
ENDROOT
BRANCH   1   4
ATOM      4  NAM ZX6 d          -2.433  26.423  28.716  0.00  0.00    -0.359 N 
ATOM      5  CAP ZX6 d          -2.978  26.701  27.533  0.00  0.00     0.222 C 
ATOM      6  OAB ZX6 d          -3.879  27.527  27.398  0.00  0.00    -0.273 OA
ATOM      7  H9  ZX6 d          -1.805  25.648  28.785  0.00  0.00     0.162 HD
BRANCH   5   8
ATOM      8  CAL ZX6 d          -2.572  25.862  26.315  0.00  0.00     0.035 C 
ATOM      9  H7  ZX6 d          -1.766  25.181  26.626  0.00  0.00     0.054 H 
ATOM     10  H8  ZX6 d          -3.447  25.275  26.001  0.00  0.00     0.054 H 
BRANCH   8  11
ATOM     11  CAQ ZX6 d          -2.078  26.657  25.104  0.00  0.00    -0.022 A 
ATOM     12  CAS ZX6 d          -0.859  27.301  24.926  0.00  0.00    -0.001 A 
ATOM     13  CAI ZX6 d           0.294  27.409  25.695  0.00  0.00    -0.070 A 
ATOM     14  CAR ZX6 d          -0.902  27.883  23.664  0.00  0.00     0.042 A 
ATOM     15  CAG ZX6 d           1.399  28.095  25.198  0.00  0.00    -0.082 A 
ATOM     16  H1  ZX6 d           0.333  26.959  26.681  0.00  0.00     0.084 H 
ATOM     17  CAF ZX6 d           1.354  28.679  23.937  0.00  0.00    -0.081 A 
ATOM     18  H2  ZX6 d           2.299  28.174  25.797  0.00  0.00     0.083 H 
ATOM     19  CAH ZX6 d           0.198  28.574  23.168  0.00  0.00    -0.056 A 
ATOM     20  H3  ZX6 d           2.215  29.214  23.553  0.00  0.00     0.083 H 
ATOM     21  H4  ZX6 d           0.155  29.030  22.185  0.00  0.00     0.086 H 
ATOM     22  NAO ZX6 d          -2.087  27.592  23.135  0.00  0.00    -0.365 N 
ATOM     23  CAJ ZX6 d          -2.789  26.860  23.998  0.00  0.00    -0.015 A 
ATOM     24  H5  ZX6 d          -2.410  27.887  22.203  0.00  0.00     0.165 HD
ATOM     25  H6  ZX6 d          -3.796  26.483  23.823  0.00  0.00     0.112 H 
ENDBRANCH   8  11
ENDBRANCH   5   8
ENDBRANCH   1   4
BRANCH   1  26
ATOM     26  CAU ZX6 d          -2.173  26.649  31.246  0.00  0.00     0.144 C 
ATOM     27  NAN ZX6 d          -2.187  25.175  31.224  0.00  0.00    -0.060 N 
ATOM     28  CAT ZX6 d          -1.735  24.598  32.504  0.00  0.00     0.126 C 
ATOM     29  H13 ZX6 d          -1.575  24.855  30.489  0.00  0.00     0.278 HD
ATOM     30  H14 ZX6 d          -3.127  24.861  31.039  0.00  0.00     0.278 HD
ATOM     31  CAV ZX6 d          -0.336  25.080  32.914  0.00  0.00     0.089 C 
ATOM     32  H15 ZX6 d          -2.443  24.908  33.287  0.00  0.00     0.087 H 
ATOM     33  CAX ZX6 d          -0.267  26.608  32.844  0.00  0.00     0.089 C 
ATOM     34  H19 ZX6 d          -0.137  24.756  33.947  0.00  0.00     0.090 H 
ATOM     35  CAW ZX6 d          -0.704  27.042  31.446  0.00  0.00     0.091 C 
ATOM     36  H21 ZX6 d          -0.948  27.036  33.595  0.00  0.00     0.091 H 
ATOM     37  H23 ZX6 d          -0.096  26.522  30.691  0.00  0.00     0.090 H 
ATOM     38  H12 ZX6 d          -2.784  27.025  32.080  0.00  0.00     0.091 H 
BRANCH  28  39
ATOM     39  CAA ZX6 d          -1.752  23.072  32.407  0.00  0.00    -0.047 C 
ATOM     40  H16 ZX6 d          -2.100  22.648  33.359  0.00  0.00     0.030 H 
ATOM     41  H17 ZX6 d          -0.737  22.707  32.192  0.00  0.00     0.030 H 
ATOM     42  H18 ZX6 d          -2.432  22.764  31.598  0.00  0.00     0.030 H 
ENDBRANCH  28  39
BRANCH  31  43
ATOM     43  OAC ZX6 d           0.659  24.521  32.050  0.00  0.00    -0.391 OA
ATOM     44  H20 ZX6 d           0.260  23.858  31.498  0.00  0.00     0.210 HD
ENDBRANCH  31  43
BRANCH  33  45
ATOM     45  OAE ZX6 d           1.057  27.087  33.088  0.00  0.00    -0.390 OA
ATOM     46  H22 ZX6 d           1.022  27.817  33.695  0.00  0.00     0.210 HD
ENDBRANCH  33  45
BRANCH  35  47
ATOM     47  OAD ZX6 d          -0.477  28.448  31.326  0.00  0.00    -0.391 OA
ATOM     48  H24 ZX6 d           0.457  28.618  31.335  0.00  0.00     0.210 HD
ENDBRANCH  35  47
ENDBRANCH   1  26
TORSDOF 8
ENDMDL
