MODEL 1
REMARK VINA RESULT:      -6.0      0.000      0.000
REMARK  11 active torsions:
REMARK  status: ('A' for Active; 'I' for Inactive)
REMARK    1  A    between atoms: C1_3  and  C2_4 
REMARK    2  A    between atoms: C2_4  and  C3_5 
REMARK    3  A    between atoms: C3_5  and  C4_6 
REMARK    4  A    between atoms: C4_6  and  C5_7 
REMARK    5  A    between atoms: C5_7  and  C6_8 
REMARK    6  A    between atoms: C6_8  and  C7_9 
REMARK    7  A    between atoms: C7_9  and  C8_10 
REMARK    8  A    between atoms: C8_10  and  C9_11 
REMARK    9  A    between atoms: C9_11  and  C10_12 
REMARK   10  A    between atoms: C10_12  and  C11_13 
REMARK   11  A    between atoms: C11_13  and  C12_14 
ROOT
ATOM      1  C7  DAO d          -3.123  12.875  17.963  0.00  0.00    -0.065 C 
ATOM      2  H11 DAO d          -3.969  12.535  18.578  0.00  0.00     0.033 H 
ATOM      3  H12 DAO d          -3.062  12.262  17.052  0.00  0.00     0.033 H 
ENDROOT
BRANCH   1   4
ATOM      4  C6  DAO d          -1.830  12.693  18.764  0.00  0.00    -0.065 C 
ATOM      5  H9  DAO d          -0.984  13.107  18.195  0.00  0.00     0.033 H 
ATOM      6  H10 DAO d          -1.917  13.219  19.726  0.00  0.00     0.033 H 
BRANCH   4   7
ATOM      7  C5  DAO d          -1.597  11.211  19.014  0.00  0.00    -0.065 C 
ATOM      8  H7  DAO d          -0.538  10.988  18.820  0.00  0.00     0.033 H 
ATOM      9  H8  DAO d          -1.830  10.995  20.067  0.00  0.00     0.033 H 
BRANCH   7  10
ATOM     10  C4  DAO d          -2.452  10.305  18.133  0.00  0.00    -0.065 C 
ATOM     11  H5  DAO d          -3.179   9.776  18.768  0.00  0.00     0.033 H 
ATOM     12  H6  DAO d          -2.988  10.925  17.401  0.00  0.00     0.033 H 
BRANCH  10  13
ATOM     13  C3  DAO d          -1.606   9.268  17.380  0.00  0.00    -0.056 C 
ATOM     14  H3  DAO d          -1.618   9.512  16.307  0.00  0.00     0.033 H 
ATOM     15  H4  DAO d          -0.572   9.315  17.754  0.00  0.00     0.033 H 
BRANCH  13  16
ATOM     16  C2  DAO d          -2.134   7.842  17.568  0.00  0.00     0.016 C 
ATOM     17  H1  DAO d          -3.130   7.776  17.106  0.00  0.00     0.049 H 
ATOM     18  H2  DAO d          -1.448   7.146  17.061  0.00  0.00     0.049 H 
BRANCH  16  19
ATOM     19  C1  DAO d          -2.251   7.426  19.031  0.00  0.00     0.172 C 
ATOM     20  O1  DAO d          -3.346   6.989  19.466  0.00  0.00    -0.648 OA
ATOM     21  O2  DAO d          -1.257   7.508  19.787  0.00  0.00    -0.648 OA
ENDBRANCH  16  19
ENDBRANCH  13  16
ENDBRANCH  10  13
ENDBRANCH   7  10
ENDBRANCH   4   7
ENDBRANCH   1   4
BRANCH   1  22
ATOM     22  C8  DAO d          -3.364  14.326  17.560  0.00  0.00    -0.065 C 
ATOM     23  H13 DAO d          -4.269  14.689  18.068  0.00  0.00     0.033 H 
ATOM     24  H14 DAO d          -3.512  14.372  16.471  0.00  0.00     0.033 H 
BRANCH  22  25
ATOM     25  C9  DAO d          -2.201  15.221  17.934  0.00  0.00    -0.065 C 
ATOM     26  H15 DAO d          -1.358  14.998  17.262  0.00  0.00     0.033 H 
ATOM     27  H16 DAO d          -1.911  15.001  18.971  0.00  0.00     0.033 H 
BRANCH  25  28
ATOM     28  C10 DAO d          -2.524  16.712  17.826  0.00  0.00    -0.065 C 
ATOM     29  H17 DAO d          -1.744  17.207  17.228  0.00  0.00     0.033 H 
ATOM     30  H18 DAO d          -2.545  17.150  18.835  0.00  0.00     0.033 H 
BRANCH  28  31
ATOM     31  C11 DAO d          -3.869  16.933  17.164  0.00  0.00    -0.069 C 
ATOM     32  H19 DAO d          -4.622  17.154  17.936  0.00  0.00     0.032 H 
ATOM     33  H20 DAO d          -4.159  16.023  16.619  0.00  0.00     0.032 H 
BRANCH  31  34
ATOM     34  C12 DAO d          -3.788  18.089  16.199  0.00  0.00    -0.077 C 
ATOM     35  H21 DAO d          -3.926  19.034  16.745  0.00  0.00     0.027 H 
ATOM     36  H22 DAO d          -4.577  17.988  15.438  0.00  0.00     0.027 H 
ATOM     37  H23 DAO d          -2.804  18.090  15.708  0.00  0.00     0.027 H 
ENDBRANCH  31  34
ENDBRANCH  28  31
ENDBRANCH  25  28
ENDBRANCH  22  25
ENDBRANCH   1  22
TORSDOF 11
ENDMDL
MODEL 2
REMARK VINA RESULT:      -5.9      1.482      1.903
REMARK  11 active torsions:
REMARK  status: ('A' for Active; 'I' for Inactive)
REMARK    1  A    between atoms: C1_3  and  C2_4 
REMARK    2  A    between atoms: C2_4  and  C3_5 
REMARK    3  A    between atoms: C3_5  and  C4_6 
REMARK    4  A    between atoms: C4_6  and  C5_7 
REMARK    5  A    between atoms: C5_7  and  C6_8 
REMARK    6  A    between atoms: C6_8  and  C7_9 
REMARK    7  A    between atoms: C7_9  and  C8_10 
REMARK    8  A    between atoms: C8_10  and  C9_11 
REMARK    9  A    between atoms: C9_11  and  C10_12 
REMARK   10  A    between atoms: C10_12  and  C11_13 
REMARK   11  A    between atoms: C11_13  and  C12_14 
ROOT
ATOM      1  C7  DAO d          -3.231  13.205  17.874  0.00  0.00    -0.065 C 
ATOM      2  H11 DAO d          -3.995  13.546  18.588  0.00  0.00     0.033 H 
ATOM      3  H12 DAO d          -3.395  13.692  16.901  0.00  0.00     0.033 H 
ENDROOT
BRANCH   1   4
ATOM      4  C6  DAO d          -3.370  11.690  17.695  0.00  0.00    -0.065 C 
ATOM      5  H9  DAO d          -3.708  11.470  16.671  0.00  0.00     0.033 H 
ATOM      6  H10 DAO d          -2.397  11.209  17.870  0.00  0.00     0.033 H 
BRANCH   4   7
ATOM      7  C5  DAO d          -4.388  11.156  18.691  0.00  0.00    -0.065 C 
ATOM      8  H7  DAO d          -5.064  11.977  18.972  0.00  0.00     0.033 H 
ATOM      9  H8  DAO d          -4.965  10.356  18.205  0.00  0.00     0.033 H 
BRANCH   7  10
ATOM     10  C4  DAO d          -3.757  10.594  19.962  0.00  0.00    -0.065 C 
ATOM     11  H5  DAO d          -3.547  11.425  20.652  0.00  0.00     0.033 H 
ATOM     12  H6  DAO d          -4.466   9.898  20.432  0.00  0.00     0.033 H 
BRANCH  10  13
ATOM     13  C3  DAO d          -2.446   9.847  19.673  0.00  0.00    -0.056 C 
ATOM     14  H3  DAO d          -1.956  10.314  18.805  0.00  0.00     0.033 H 
ATOM     15  H4  DAO d          -1.790   9.930  20.552  0.00  0.00     0.033 H 
BRANCH  13  16
ATOM     16  C2  DAO d          -2.680   8.364  19.368  0.00  0.00     0.016 C 
ATOM     17  H1  DAO d          -2.372   7.776  20.245  0.00  0.00     0.049 H 
ATOM     18  H2  DAO d          -3.753   8.211  19.182  0.00  0.00     0.049 H 
BRANCH  16  19
ATOM     19  C1  DAO d          -1.903   7.864  18.155  0.00  0.00     0.172 C 
ATOM     20  O1  DAO d          -1.668   8.651  17.202  0.00  0.00    -0.648 OA
ATOM     21  O2  DAO d          -1.493   6.682  18.116  0.00  0.00    -0.648 OA
ENDBRANCH  16  19
ENDBRANCH  13  16
ENDBRANCH  10  13
ENDBRANCH   7  10
ENDBRANCH   4   7
ENDBRANCH   1   4
BRANCH   1  22
ATOM     22  C8  DAO d          -1.857  13.611  18.398  0.00  0.00    -0.065 C 
ATOM     23  H13 DAO d          -1.088  13.065  17.833  0.00  0.00     0.033 H 
ATOM     24  H14 DAO d          -1.790  13.343  19.462  0.00  0.00     0.033 H 
BRANCH  22  25
ATOM     25  C9  DAO d          -1.610  15.098  18.251  0.00  0.00    -0.065 C 
ATOM     26  H15 DAO d          -0.541  15.256  18.041  0.00  0.00     0.033 H 
ATOM     27  H16 DAO d          -1.873  15.591  19.199  0.00  0.00     0.033 H 
BRANCH  25  28
ATOM     28  C10 DAO d          -2.425  15.741  17.128  0.00  0.00    -0.065 C 
ATOM     29  H17 DAO d          -3.201  15.034  16.798  0.00  0.00     0.033 H 
ATOM     30  H18 DAO d          -1.757  15.972  16.285  0.00  0.00     0.033 H 
BRANCH  28  31
ATOM     31  C11 DAO d          -3.088  17.019  17.597  0.00  0.00    -0.069 C 
ATOM     32  H19 DAO d          -2.404  17.865  17.433  0.00  0.00     0.032 H 
ATOM     33  H20 DAO d          -3.319  16.937  18.669  0.00  0.00     0.032 H 
BRANCH  31  34
ATOM     34  C12 DAO d          -4.365  17.254  16.828  0.00  0.00    -0.077 C 
ATOM     35  H21 DAO d          -4.177  17.115  15.753  0.00  0.00     0.027 H 
ATOM     36  H22 DAO d          -4.719  18.280  17.008  0.00  0.00     0.027 H 
ATOM     37  H23 DAO d          -5.131  16.538  17.162  0.00  0.00     0.027 H 
ENDBRANCH  31  34
ENDBRANCH  28  31
ENDBRANCH  25  28
ENDBRANCH  22  25
ENDBRANCH   1  22
TORSDOF 11
ENDMDL
MODEL 3
REMARK VINA RESULT:      -5.6      4.027      7.640
REMARK  11 active torsions:
REMARK  status: ('A' for Active; 'I' for Inactive)
REMARK    1  A    between atoms: C1_3  and  C2_4 
REMARK    2  A    between atoms: C2_4  and  C3_5 
REMARK    3  A    between atoms: C3_5  and  C4_6 
REMARK    4  A    between atoms: C4_6  and  C5_7 
REMARK    5  A    between atoms: C5_7  and  C6_8 
REMARK    6  A    between atoms: C6_8  and  C7_9 
REMARK    7  A    between atoms: C7_9  and  C8_10 
REMARK    8  A    between atoms: C8_10  and  C9_11 
REMARK    9  A    between atoms: C9_11  and  C10_12 
REMARK   10  A    between atoms: C10_12  and  C11_13 
REMARK   11  A    between atoms: C11_13  and  C12_14 
ROOT
ATOM      1  C7  DAO d          -3.001  11.082  19.229  0.00  0.00    -0.065 C 
ATOM      2  H11 DAO d          -3.794  10.594  19.814  0.00  0.00     0.033 H 
ATOM      3  H12 DAO d          -2.622  11.955  19.780  0.00  0.00     0.033 H 
ENDROOT
BRANCH   1   4
ATOM      4  C6  DAO d          -3.595  11.560  17.900  0.00  0.00    -0.065 C 
ATOM      5  H9  DAO d          -3.090  11.050  17.067  0.00  0.00     0.033 H 
ATOM      6  H10 DAO d          -4.670  11.328  17.875  0.00  0.00     0.033 H 
BRANCH   4   7
ATOM      7  C5  DAO d          -3.395  13.062  17.772  0.00  0.00    -0.065 C 
ATOM      8  H7  DAO d          -3.385  13.322  16.703  0.00  0.00     0.033 H 
ATOM      9  H8  DAO d          -4.238  13.569  18.264  0.00  0.00     0.033 H 
BRANCH   7  10
ATOM     10  C4  DAO d          -2.097  13.559  18.403  0.00  0.00    -0.065 C 
ATOM     11  H5  DAO d          -2.247  13.663  19.488  0.00  0.00     0.033 H 
ATOM     12  H6  DAO d          -1.305  12.821  18.211  0.00  0.00     0.033 H 
BRANCH  10  13
ATOM     13  C3  DAO d          -1.660  14.915  17.830  0.00  0.00    -0.056 C 
ATOM     14  H3  DAO d          -1.650  15.656  18.644  0.00  0.00     0.033 H 
ATOM     15  H4  DAO d          -0.647  14.814  17.414  0.00  0.00     0.033 H 
BRANCH  13  16
ATOM     16  C2  DAO d          -2.600  15.408  16.726  0.00  0.00     0.016 C 
ATOM     17  H1  DAO d          -2.005  15.598  15.820  0.00  0.00     0.049 H 
ATOM     18  H2  DAO d          -3.340  14.620  16.519  0.00  0.00     0.049 H 
BRANCH  16  19
ATOM     19  C1  DAO d          -3.347  16.687  17.090  0.00  0.00     0.172 C 
ATOM     20  O1  DAO d          -2.857  17.469  17.944  0.00  0.00    -0.648 OA
ATOM     21  O2  DAO d          -4.434  16.960  16.532  0.00  0.00    -0.648 OA
ENDBRANCH  16  19
ENDBRANCH  13  16
ENDBRANCH  10  13
ENDBRANCH   7  10
ENDBRANCH   4   7
ENDBRANCH   1   4
BRANCH   1  22
ATOM     22  C8  DAO d          -1.856  10.091  19.037  0.00  0.00    -0.065 C 
ATOM     23  H13 DAO d          -1.985   9.259  19.744  0.00  0.00     0.033 H 
ATOM     24  H14 DAO d          -0.906  10.604  19.244  0.00  0.00     0.033 H 
BRANCH  22  25
ATOM     25  C9  DAO d          -1.816   9.535  17.629  0.00  0.00    -0.065 C 
ATOM     26  H15 DAO d          -0.852   9.806  17.173  0.00  0.00     0.033 H 
ATOM     27  H16 DAO d          -2.635   9.988  17.051  0.00  0.00     0.033 H 
BRANCH  25  28
ATOM     28  C10 DAO d          -1.968   8.014  17.574  0.00  0.00    -0.065 C 
ATOM     29  H17 DAO d          -1.210   7.602  16.891  0.00  0.00     0.033 H 
ATOM     30  H18 DAO d          -2.972   7.765  17.200  0.00  0.00     0.033 H 
BRANCH  28  31
ATOM     31  C11 DAO d          -1.785   7.397  18.945  0.00  0.00    -0.069 C 
ATOM     32  H19 DAO d          -2.741   6.967  19.280  0.00  0.00     0.032 H 
ATOM     33  H20 DAO d          -1.464   8.175  19.653  0.00  0.00     0.032 H 
BRANCH  31  34
ATOM     34  C12 DAO d          -0.741   6.310  18.890  0.00  0.00    -0.077 C 
ATOM     35  H21 DAO d          -0.609   5.979  17.849  0.00  0.00     0.027 H 
ATOM     36  H22 DAO d          -1.066   5.457  19.506  0.00  0.00     0.027 H 
ATOM     37  H23 DAO d           0.213   6.698  19.275  0.00  0.00     0.027 H 
ENDBRANCH  31  34
ENDBRANCH  28  31
ENDBRANCH  25  28
ENDBRANCH  22  25
ENDBRANCH   1  22
TORSDOF 11
ENDMDL
MODEL 4
REMARK VINA RESULT:      -5.5      3.995      7.690
REMARK  11 active torsions:
REMARK  status: ('A' for Active; 'I' for Inactive)
REMARK    1  A    between atoms: C1_3  and  C2_4 
REMARK    2  A    between atoms: C2_4  and  C3_5 
REMARK    3  A    between atoms: C3_5  and  C4_6 
REMARK    4  A    between atoms: C4_6  and  C5_7 
REMARK    5  A    between atoms: C5_7  and  C6_8 
REMARK    6  A    between atoms: C6_8  and  C7_9 
REMARK    7  A    between atoms: C7_9  and  C8_10 
REMARK    8  A    between atoms: C8_10  and  C9_11 
REMARK    9  A    between atoms: C9_11  and  C10_12 
REMARK   10  A    between atoms: C10_12  and  C11_13 
REMARK   11  A    between atoms: C11_13  and  C12_14 
ROOT
ATOM      1  C7  DAO d          -2.433  10.421  17.965  0.00  0.00    -0.065 C 
ATOM      2  H11 DAO d          -2.575  11.236  17.240  0.00  0.00     0.033 H 
ATOM      3  H12 DAO d          -3.413  10.014  18.255  0.00  0.00     0.033 H 
ENDROOT
BRANCH   1   4
ATOM      4  C6  DAO d          -1.748  10.988  19.212  0.00  0.00    -0.065 C 
ATOM      5  H9  DAO d          -2.360  10.767  20.100  0.00  0.00     0.033 H 
ATOM      6  H10 DAO d          -0.756  10.528  19.327  0.00  0.00     0.033 H 
BRANCH   4   7
ATOM      7  C5  DAO d          -1.596  12.494  19.063  0.00  0.00    -0.065 C 
ATOM      8  H7  DAO d          -1.666  12.952  20.060  0.00  0.00     0.033 H 
ATOM      9  H8  DAO d          -0.607  12.703  18.631  0.00  0.00     0.033 H 
BRANCH   7  10
ATOM     10  C4  DAO d          -2.658  13.125  18.166  0.00  0.00    -0.065 C 
ATOM     11  H5  DAO d          -2.762  12.515  17.256  0.00  0.00     0.033 H 
ATOM     12  H6  DAO d          -3.615  13.142  18.706  0.00  0.00     0.033 H 
BRANCH  10  13
ATOM     13  C3  DAO d          -2.292  14.561  17.762  0.00  0.00    -0.056 C 
ATOM     14  H3  DAO d          -2.161  15.163  18.674  0.00  0.00     0.033 H 
ATOM     15  H4  DAO d          -1.347  14.540  17.198  0.00  0.00     0.033 H 
BRANCH  13  16
ATOM     16  C2  DAO d          -3.372  15.211  16.892  0.00  0.00     0.016 C 
ATOM     17  H1  DAO d          -3.069  15.125  15.838  0.00  0.00     0.049 H 
ATOM     18  H2  DAO d          -4.318  14.669  17.046  0.00  0.00     0.049 H 
BRANCH  16  19
ATOM     19  C1  DAO d          -3.602  16.685  17.210  0.00  0.00     0.172 C 
ATOM     20  O1  DAO d          -4.612  17.270  16.742  0.00  0.00    -0.648 OA
ATOM     21  O2  DAO d          -2.796  17.301  17.944  0.00  0.00    -0.648 OA
ENDBRANCH  16  19
ENDBRANCH  13  16
ENDBRANCH  10  13
ENDBRANCH   7  10
ENDBRANCH   4   7
ENDBRANCH   1   4
BRANCH   1  22
ATOM     22  C8  DAO d          -1.621   9.313  17.302  0.00  0.00    -0.065 C 
ATOM     23  H13 DAO d          -0.623   9.281  17.762  0.00  0.00     0.033 H 
ATOM     24  H14 DAO d          -1.522   9.539  16.230  0.00  0.00     0.033 H 
BRANCH  22  25
ATOM     25  C9  DAO d          -2.276   7.956  17.457  0.00  0.00    -0.065 C 
ATOM     26  H15 DAO d          -2.464   7.542  16.456  0.00  0.00     0.033 H 
ATOM     27  H16 DAO d          -3.232   8.089  17.984  0.00  0.00     0.033 H 
BRANCH  25  28
ATOM     28  C10 DAO d          -1.424   6.958  18.243  0.00  0.00    -0.065 C 
ATOM     29  H17 DAO d          -0.388   7.004  17.876  0.00  0.00     0.033 H 
ATOM     30  H18 DAO d          -1.823   5.945  18.088  0.00  0.00     0.033 H 
BRANCH  28  31
ATOM     31  C11 DAO d          -1.439   7.274  19.724  0.00  0.00    -0.069 C 
ATOM     32  H19 DAO d          -0.956   8.248  19.893  0.00  0.00     0.032 H 
ATOM     33  H20 DAO d          -0.890   6.492  20.268  0.00  0.00     0.032 H 
BRANCH  31  34
ATOM     34  C12 DAO d          -2.861   7.328  20.228  0.00  0.00    -0.077 C 
ATOM     35  H21 DAO d          -3.217   6.307  20.430  0.00  0.00     0.027 H 
ATOM     36  H22 DAO d          -3.503   7.796  19.466  0.00  0.00     0.027 H 
ATOM     37  H23 DAO d          -2.899   7.920  21.154  0.00  0.00     0.027 H 
ENDBRANCH  31  34
ENDBRANCH  28  31
ENDBRANCH  25  28
ENDBRANCH  22  25
ENDBRANCH   1  22
TORSDOF 11
ENDMDL
MODEL 5
REMARK VINA RESULT:      -5.1      3.698      7.692
REMARK  11 active torsions:
REMARK  status: ('A' for Active; 'I' for Inactive)
REMARK    1  A    between atoms: C1_3  and  C2_4 
REMARK    2  A    between atoms: C2_4  and  C3_5 
REMARK    3  A    between atoms: C3_5  and  C4_6 
REMARK    4  A    between atoms: C4_6  and  C5_7 
REMARK    5  A    between atoms: C5_7  and  C6_8 
REMARK    6  A    between atoms: C6_8  and  C7_9 
REMARK    7  A    between atoms: C7_9  and  C8_10 
REMARK    8  A    between atoms: C8_10  and  C9_11 
REMARK    9  A    between atoms: C9_11  and  C10_12 
REMARK   10  A    between atoms: C10_12  and  C11_13 
REMARK   11  A    between atoms: C11_13  and  C12_14 
ROOT
ATOM      1  C7  DAO d          -3.428   9.062  20.269  0.00  0.00    -0.065 C 
ATOM      2  H11 DAO d          -4.522   9.058  20.154  0.00  0.00     0.033 H 
ATOM      3  H12 DAO d          -3.166   9.433  21.271  0.00  0.00     0.033 H 
ENDROOT
BRANCH   1   4
ATOM      4  C6  DAO d          -2.828  10.007  19.223  0.00  0.00    -0.065 C 
ATOM      5  H9  DAO d          -1.960   9.527  18.748  0.00  0.00     0.033 H 
ATOM      6  H10 DAO d          -3.585  10.236  18.459  0.00  0.00     0.033 H 
BRANCH   4   7
ATOM      7  C5  DAO d          -2.388  11.295  19.903  0.00  0.00    -0.065 C 
ATOM      8  H7  DAO d          -3.285  11.859  20.195  0.00  0.00     0.033 H 
ATOM      9  H8  DAO d          -1.810  11.034  20.802  0.00  0.00     0.033 H 
BRANCH   7  10
ATOM     10  C4  DAO d          -1.524  12.186  19.014  0.00  0.00    -0.065 C 
ATOM     11  H5  DAO d          -0.790  12.711  19.644  0.00  0.00     0.033 H 
ATOM     12  H6  DAO d          -0.995  11.554  18.286  0.00  0.00     0.033 H 
BRANCH  10  13
ATOM     13  C3  DAO d          -2.360  13.226  18.255  0.00  0.00    -0.056 C 
ATOM     14  H3  DAO d          -2.459  12.904  17.207  0.00  0.00     0.033 H 
ATOM     15  H4  DAO d          -3.357  13.285  18.716  0.00  0.00     0.033 H 
BRANCH  13  16
ATOM     16  C2  DAO d          -1.720  14.618  18.285  0.00  0.00     0.016 C 
ATOM     17  H1  DAO d          -1.682  14.961  19.329  0.00  0.00     0.049 H 
ATOM     18  H2  DAO d          -0.696  14.540  17.888  0.00  0.00     0.049 H 
BRANCH  16  19
ATOM     19  C1  DAO d          -2.480  15.653  17.462  0.00  0.00     0.172 C 
ATOM     20  O1  DAO d          -2.991  15.318  16.363  0.00  0.00    -0.648 OA
ATOM     21  O2  DAO d          -2.603  16.824  17.887  0.00  0.00    -0.648 OA
ENDBRANCH  16  19
ENDBRANCH  13  16
ENDBRANCH  10  13
ENDBRANCH   7  10
ENDBRANCH   4   7
ENDBRANCH   1   4
BRANCH   1  22
ATOM     22  C8  DAO d          -2.917   7.632  20.129  0.00  0.00    -0.065 C 
ATOM     23  H13 DAO d          -3.550   7.098  19.406  0.00  0.00     0.033 H 
ATOM     24  H14 DAO d          -2.979   7.135  21.108  0.00  0.00     0.033 H 
BRANCH  22  25
ATOM     25  C9  DAO d          -1.480   7.586  19.648  0.00  0.00    -0.065 C 
ATOM     26  H15 DAO d          -0.831   7.356  20.506  0.00  0.00     0.033 H 
ATOM     27  H16 DAO d          -1.217   8.574  19.243  0.00  0.00     0.033 H 
BRANCH  25  28
ATOM     28  C10 DAO d          -1.238   6.536  18.562  0.00  0.00    -0.065 C 
ATOM     29  H17 DAO d          -1.394   5.535  18.990  0.00  0.00     0.033 H 
ATOM     30  H18 DAO d          -0.203   6.624  18.202  0.00  0.00     0.033 H 
BRANCH  28  31
ATOM     31  C11 DAO d          -2.185   6.728  17.396  0.00  0.00    -0.069 C 
ATOM     32  H19 DAO d          -1.813   7.542  16.756  0.00  0.00     0.032 H 
ATOM     33  H20 DAO d          -3.183   6.988  17.777  0.00  0.00     0.032 H 
BRANCH  31  34
ATOM     34  C12 DAO d          -2.276   5.458  16.587  0.00  0.00    -0.077 C 
ATOM     35  H21 DAO d          -2.950   5.615  15.731  0.00  0.00     0.027 H 
ATOM     36  H22 DAO d          -2.669   4.647  17.218  0.00  0.00     0.027 H 
ATOM     37  H23 DAO d          -1.276   5.185  16.220  0.00  0.00     0.027 H 
ENDBRANCH  31  34
ENDBRANCH  28  31
ENDBRANCH  25  28
ENDBRANCH  22  25
ENDBRANCH   1  22
TORSDOF 11
ENDMDL
MODEL 6
REMARK VINA RESULT:      -5.0      1.523      2.643
REMARK  11 active torsions:
REMARK  status: ('A' for Active; 'I' for Inactive)
REMARK    1  A    between atoms: C1_3  and  C2_4 
REMARK    2  A    between atoms: C2_4  and  C3_5 
REMARK    3  A    between atoms: C3_5  and  C4_6 
REMARK    4  A    between atoms: C4_6  and  C5_7 
REMARK    5  A    between atoms: C5_7  and  C6_8 
REMARK    6  A    between atoms: C6_8  and  C7_9 
REMARK    7  A    between atoms: C7_9  and  C8_10 
REMARK    8  A    between atoms: C8_10  and  C9_11 
REMARK    9  A    between atoms: C9_11  and  C10_12 
REMARK   10  A    between atoms: C10_12  and  C11_13 
REMARK   11  A    between atoms: C11_13  and  C12_14 
ROOT
ATOM      1  C7  DAO d          -2.692  11.100  17.779  0.00  0.00    -0.065 C 
ATOM      2  H11 DAO d          -3.788  11.030  17.727  0.00  0.00     0.033 H 
ATOM      3  H12 DAO d          -2.308  11.540  16.847  0.00  0.00     0.033 H 
ENDROOT
BRANCH   1   4
ATOM      4  C6  DAO d          -2.117   9.688  17.928  0.00  0.00    -0.065 C 
ATOM      5  H9  DAO d          -2.653   9.000  17.257  0.00  0.00     0.033 H 
ATOM      6  H10 DAO d          -1.049   9.697  17.666  0.00  0.00     0.033 H 
BRANCH   4   7
ATOM      7  C5  DAO d          -2.284   9.226  19.367  0.00  0.00    -0.065 C 
ATOM      8  H7  DAO d          -1.801   9.961  20.027  0.00  0.00     0.033 H 
ATOM      9  H8  DAO d          -3.359   9.179  19.595  0.00  0.00     0.033 H 
BRANCH   7  10
ATOM     10  C4  DAO d          -1.672   7.855  19.640  0.00  0.00    -0.065 C 
ATOM     11  H5  DAO d          -1.209   7.482  18.714  0.00  0.00     0.033 H 
ATOM     12  H6  DAO d          -0.902   7.958  20.418  0.00  0.00     0.033 H 
BRANCH  10  13
ATOM     13  C3  DAO d          -2.722   6.839  20.114  0.00  0.00    -0.056 C 
ATOM     14  H3  DAO d          -2.489   6.545  21.148  0.00  0.00     0.033 H 
ATOM     15  H4  DAO d          -3.714   7.313  20.082  0.00  0.00     0.033 H 
BRANCH  13  16
ATOM     16  C2  DAO d          -2.748   5.582  19.238  0.00  0.00     0.016 C 
ATOM     17  H1  DAO d          -1.789   5.056  19.354  0.00  0.00     0.049 H 
ATOM     18  H2  DAO d          -3.566   4.932  19.584  0.00  0.00     0.049 H 
BRANCH  16  19
ATOM     19  C1  DAO d          -2.961   5.878  17.757  0.00  0.00     0.172 C 
ATOM     20  O1  DAO d          -4.031   6.422  17.381  0.00  0.00    -0.648 OA
ATOM     21  O2  DAO d          -2.070   5.593  16.926  0.00  0.00    -0.648 OA
ENDBRANCH  16  19
ENDBRANCH  13  16
ENDBRANCH  10  13
ENDBRANCH   7  10
ENDBRANCH   4   7
ENDBRANCH   1   4
BRANCH   1  22
ATOM     22  C8  DAO d          -2.315  12.013  18.941  0.00  0.00    -0.065 C 
ATOM     23  H13 DAO d          -1.532  11.522  19.538  0.00  0.00     0.033 H 
ATOM     24  H14 DAO d          -3.204  12.176  19.567  0.00  0.00     0.033 H 
BRANCH  22  25
ATOM     25  C9  DAO d          -1.799  13.356  18.466  0.00  0.00    -0.065 C 
ATOM     26  H15 DAO d          -0.991  13.182  17.739  0.00  0.00     0.033 H 
ATOM     27  H16 DAO d          -1.401  13.903  19.332  0.00  0.00     0.033 H 
BRANCH  25  28
ATOM     28  C10 DAO d          -2.873  14.216  17.799  0.00  0.00    -0.065 C 
ATOM     29  H17 DAO d          -3.826  14.077  18.331  0.00  0.00     0.033 H 
ATOM     30  H18 DAO d          -2.989  13.900  16.752  0.00  0.00     0.033 H 
BRANCH  28  31
ATOM     31  C11 DAO d          -2.498  15.683  17.834  0.00  0.00    -0.069 C 
ATOM     32  H19 DAO d          -1.580  15.837  17.246  0.00  0.00     0.032 H 
ATOM     33  H20 DAO d          -2.322  15.988  18.876  0.00  0.00     0.032 H 
BRANCH  31  34
ATOM     34  C12 DAO d          -3.611  16.518  17.250  0.00  0.00    -0.077 C 
ATOM     35  H21 DAO d          -3.227  17.095  16.396  0.00  0.00     0.027 H 
ATOM     36  H22 DAO d          -3.992  17.209  18.017  0.00  0.00     0.027 H 
ATOM     37  H23 DAO d          -4.424  15.859  16.913  0.00  0.00     0.027 H 
ENDBRANCH  31  34
ENDBRANCH  28  31
ENDBRANCH  25  28
ENDBRANCH  22  25
ENDBRANCH   1  22
TORSDOF 11
ENDMDL
MODEL 7
REMARK VINA RESULT:      -4.2      2.249      4.521
REMARK  11 active torsions:
REMARK  status: ('A' for Active; 'I' for Inactive)
REMARK    1  A    between atoms: C1_3  and  C2_4 
REMARK    2  A    between atoms: C2_4  and  C3_5 
REMARK    3  A    between atoms: C3_5  and  C4_6 
REMARK    4  A    between atoms: C4_6  and  C5_7 
REMARK    5  A    between atoms: C5_7  and  C6_8 
REMARK    6  A    between atoms: C6_8  and  C7_9 
REMARK    7  A    between atoms: C7_9  and  C8_10 
REMARK    8  A    between atoms: C8_10  and  C9_11 
REMARK    9  A    between atoms: C9_11  and  C10_12 
REMARK   10  A    between atoms: C10_12  and  C11_13 
REMARK   11  A    between atoms: C11_13  and  C12_14 
ROOT
ATOM      1  C7  DAO d          -2.391   8.273  17.640  0.00  0.00    -0.065 C 
ATOM      2  H11 DAO d          -3.042   8.225  18.526  0.00  0.00     0.033 H 
ATOM      3  H12 DAO d          -2.987   8.078  16.736  0.00  0.00     0.033 H 
ENDROOT
BRANCH   1   4
ATOM      4  C6  DAO d          -1.316   7.188  17.762  0.00  0.00    -0.065 C 
ATOM      5  H9  DAO d          -1.683   6.254  17.312  0.00  0.00     0.033 H 
ATOM      6  H10 DAO d          -0.405   7.514  17.239  0.00  0.00     0.033 H 
BRANCH   4   7
ATOM      7  C5  DAO d          -1.002   6.955  19.232  0.00  0.00    -0.065 C 
ATOM      8  H7  DAO d           0.015   7.321  19.433  0.00  0.00     0.033 H 
ATOM      9  H8  DAO d          -1.723   7.524  19.837  0.00  0.00     0.033 H 
BRANCH   7  10
ATOM     10  C4  DAO d          -1.078   5.487  19.644  0.00  0.00    -0.065 C 
ATOM     11  H5  DAO d          -1.302   4.880  18.754  0.00  0.00     0.033 H 
ATOM     12  H6  DAO d          -0.106   5.184  20.059  0.00  0.00     0.033 H 
BRANCH  10  13
ATOM     13  C3  DAO d          -2.166   5.240  20.699  0.00  0.00    -0.056 C 
ATOM     14  H3  DAO d          -2.354   4.158  20.768  0.00  0.00     0.033 H 
ATOM     15  H4  DAO d          -1.808   5.612  21.671  0.00  0.00     0.033 H 
BRANCH  13  16
ATOM     16  C2  DAO d          -3.480   5.949  20.354  0.00  0.00     0.016 C 
ATOM     17  H1  DAO d          -4.032   6.134  21.287  0.00  0.00     0.049 H 
ATOM     18  H2  DAO d          -3.242   6.909  19.872  0.00  0.00     0.049 H 
BRANCH  16  19
ATOM     19  C1  DAO d          -4.373   5.145  19.414  0.00  0.00     0.172 C 
ATOM     20  O1  DAO d          -5.115   4.244  19.883  0.00  0.00    -0.648 OA
ATOM     21  O2  DAO d          -4.376   5.392  18.187  0.00  0.00    -0.648 OA
ENDBRANCH  16  19
ENDBRANCH  13  16
ENDBRANCH  10  13
ENDBRANCH   7  10
ENDBRANCH   4   7
ENDBRANCH   1   4
BRANCH   1  22
ATOM     22  C8  DAO d          -1.801   9.676  17.542  0.00  0.00    -0.065 C 
ATOM     23  H13 DAO d          -1.882  10.023  16.502  0.00  0.00     0.033 H 
ATOM     24  H14 DAO d          -0.741   9.636  17.834  0.00  0.00     0.033 H 
BRANCH  22  25
ATOM     25  C9  DAO d          -2.520  10.659  18.444  0.00  0.00    -0.065 C 
ATOM     26  H15 DAO d          -2.688  10.180  19.420  0.00  0.00     0.033 H 
ATOM     27  H16 DAO d          -3.488  10.908  17.987  0.00  0.00     0.033 H 
BRANCH  25  28
ATOM     28  C10 DAO d          -1.741  11.956  18.669  0.00  0.00    -0.065 C 
ATOM     29  H17 DAO d          -0.788  11.902  18.122  0.00  0.00     0.033 H 
ATOM     30  H18 DAO d          -1.540  12.073  19.744  0.00  0.00     0.033 H 
BRANCH  28  31
ATOM     31  C11 DAO d          -2.525  13.156  18.180  0.00  0.00    -0.069 C 
ATOM     32  H19 DAO d          -3.429  13.275  18.797  0.00  0.00     0.032 H 
ATOM     33  H20 DAO d          -2.815  12.998  17.131  0.00  0.00     0.032 H 
BRANCH  31  34
ATOM     34  C12 DAO d          -1.683  14.403  18.282  0.00  0.00    -0.077 C 
ATOM     35  H21 DAO d          -2.260  15.267  17.920  0.00  0.00     0.027 H 
ATOM     36  H22 DAO d          -0.776  14.286  17.669  0.00  0.00     0.027 H 
ATOM     37  H23 DAO d          -1.397  14.568  19.331  0.00  0.00     0.027 H 
ENDBRANCH  31  34
ENDBRANCH  28  31
ENDBRANCH  25  28
ENDBRANCH  22  25
ENDBRANCH   1  22
TORSDOF 11
ENDMDL
MODEL 8
REMARK VINA RESULT:      -4.0      2.001      2.443
REMARK  11 active torsions:
REMARK  status: ('A' for Active; 'I' for Inactive)
REMARK    1  A    between atoms: C1_3  and  C2_4 
REMARK    2  A    between atoms: C2_4  and  C3_5 
REMARK    3  A    between atoms: C3_5  and  C4_6 
REMARK    4  A    between atoms: C4_6  and  C5_7 
REMARK    5  A    between atoms: C5_7  and  C6_8 
REMARK    6  A    between atoms: C6_8  and  C7_9 
REMARK    7  A    between atoms: C7_9  and  C8_10 
REMARK    8  A    between atoms: C8_10  and  C9_11 
REMARK    9  A    between atoms: C9_11  and  C10_12 
REMARK   10  A    between atoms: C10_12  and  C11_13 
REMARK   11  A    between atoms: C11_13  and  C12_14 
ROOT
ATOM      1  C7  DAO d          -3.563  14.391  17.686  0.00  0.00    -0.065 C 
ATOM      2  H11 DAO d          -4.149  14.787  18.528  0.00  0.00     0.033 H 
ATOM      3  H12 DAO d          -3.826  14.935  16.768  0.00  0.00     0.033 H 
ENDROOT
BRANCH   1   4
ATOM      4  C6  DAO d          -3.912  12.911  17.498  0.00  0.00    -0.065 C 
ATOM      5  H9  DAO d          -4.499  12.560  18.359  0.00  0.00     0.033 H 
ATOM      6  H10 DAO d          -4.502  12.788  16.577  0.00  0.00     0.033 H 
BRANCH   4   7
ATOM      7  C5  DAO d          -2.630  12.101  17.392  0.00  0.00    -0.065 C 
ATOM      8  H7  DAO d          -1.996  12.553  16.615  0.00  0.00     0.033 H 
ATOM      9  H8  DAO d          -2.110  12.143  18.360  0.00  0.00     0.033 H 
BRANCH   7  10
ATOM     10  C4  DAO d          -2.864  10.636  17.033  0.00  0.00    -0.065 C 
ATOM     11  H5  DAO d          -3.820  10.552  16.494  0.00  0.00     0.033 H 
ATOM     12  H6  DAO d          -2.046  10.294  16.382  0.00  0.00     0.033 H 
BRANCH  10  13
ATOM     13  C3  DAO d          -2.916   9.739  18.278  0.00  0.00    -0.056 C 
ATOM     14  H3  DAO d          -3.917   9.815  18.729  0.00  0.00     0.033 H 
ATOM     15  H4  DAO d          -2.731   8.698  17.972  0.00  0.00     0.033 H 
BRANCH  13  16
ATOM     16  C2  DAO d          -1.871  10.139  19.325  0.00  0.00     0.016 C 
ATOM     17  H1  DAO d          -1.493   9.226  19.806  0.00  0.00     0.049 H 
ATOM     18  H2  DAO d          -1.043  10.653  18.813  0.00  0.00     0.049 H 
BRANCH  16  19
ATOM     19  C1  DAO d          -2.419  11.065  20.406  0.00  0.00     0.172 C 
ATOM     20  O1  DAO d          -3.579  10.877  20.853  0.00  0.00    -0.648 OA
ATOM     21  O2  DAO d          -1.712  11.996  20.852  0.00  0.00    -0.648 OA
ENDBRANCH  16  19
ENDBRANCH  13  16
ENDBRANCH  10  13
ENDBRANCH   7  10
ENDBRANCH   4   7
ENDBRANCH   1   4
BRANCH   1  22
ATOM     22  C8  DAO d          -2.082  14.612  17.977  0.00  0.00    -0.065 C 
ATOM     23  H13 DAO d          -1.496  14.271  17.111  0.00  0.00     0.033 H 
ATOM     24  H14 DAO d          -1.802  14.023  18.863  0.00  0.00     0.033 H 
BRANCH  22  25
ATOM     25  C9  DAO d          -1.765  16.070  18.240  0.00  0.00    -0.065 C 
ATOM     26  H15 DAO d          -0.907  16.359  17.614  0.00  0.00     0.033 H 
ATOM     27  H16 DAO d          -1.500  16.184  19.301  0.00  0.00     0.033 H 
BRANCH  25  28
ATOM     28  C10 DAO d          -2.932  17.009  17.927  0.00  0.00    -0.065 C 
ATOM     29  H17 DAO d          -2.650  18.036  18.203  0.00  0.00     0.033 H 
ATOM     30  H18 DAO d          -3.809  16.700  18.513  0.00  0.00     0.033 H 
BRANCH  28  31
ATOM     31  C11 DAO d          -3.283  16.971  16.455  0.00  0.00    -0.069 C 
ATOM     32  H19 DAO d          -4.116  16.269  16.298  0.00  0.00     0.032 H 
ATOM     33  H20 DAO d          -2.408  16.636  15.880  0.00  0.00     0.032 H 
BRANCH  31  34
ATOM     34  C12 DAO d          -3.694  18.344  15.983  0.00  0.00    -0.077 C 
ATOM     35  H21 DAO d          -4.403  18.782  16.701  0.00  0.00     0.027 H 
ATOM     36  H22 DAO d          -4.173  18.266  14.996  0.00  0.00     0.027 H 
ATOM     37  H23 DAO d          -2.804  18.987  15.909  0.00  0.00     0.027 H 
ENDBRANCH  31  34
ENDBRANCH  28  31
ENDBRANCH  25  28
ENDBRANCH  22  25
ENDBRANCH   1  22
TORSDOF 11
ENDMDL
MODEL 9
REMARK VINA RESULT:      -3.7      3.823      7.856
REMARK  11 active torsions:
REMARK  status: ('A' for Active; 'I' for Inactive)
REMARK    1  A    between atoms: C1_3  and  C2_4 
REMARK    2  A    between atoms: C2_4  and  C3_5 
REMARK    3  A    between atoms: C3_5  and  C4_6 
REMARK    4  A    between atoms: C4_6  and  C5_7 
REMARK    5  A    between atoms: C5_7  and  C6_8 
REMARK    6  A    between atoms: C6_8  and  C7_9 
REMARK    7  A    between atoms: C7_9  and  C8_10 
REMARK    8  A    between atoms: C8_10  and  C9_11 
REMARK    9  A    between atoms: C9_11  and  C10_12 
REMARK   10  A    between atoms: C10_12  and  C11_13 
REMARK   11  A    between atoms: C11_13  and  C12_14 
ROOT
ATOM      1  C7  DAO d          -3.150   5.066  20.319  0.00  0.00    -0.065 C 
ATOM      2  H11 DAO d          -3.268   4.428  21.207  0.00  0.00     0.033 H 
ATOM      3  H12 DAO d          -2.351   4.663  19.681  0.00  0.00     0.033 H 
ENDROOT
BRANCH   1   4
ATOM      4  C6  DAO d          -2.751   6.473  20.777  0.00  0.00    -0.065 C 
ATOM      5  H9  DAO d          -3.573   7.174  20.569  0.00  0.00     0.033 H 
ATOM      6  H10 DAO d          -2.543   6.462  21.856  0.00  0.00     0.033 H 
BRANCH   4   7
ATOM      7  C5  DAO d          -1.505   6.913  20.023  0.00  0.00    -0.065 C 
ATOM      8  H7  DAO d          -0.660   6.927  20.727  0.00  0.00     0.033 H 
ATOM      9  H8  DAO d          -1.306   6.183  19.225  0.00  0.00     0.033 H 
BRANCH   7  10
ATOM     10  C4  DAO d          -1.633   8.297  19.393  0.00  0.00    -0.065 C 
ATOM     11  H5  DAO d          -0.821   8.935  19.771  0.00  0.00     0.033 H 
ATOM     12  H6  DAO d          -1.545   8.199  18.301  0.00  0.00     0.033 H 
BRANCH  10  13
ATOM     13  C3  DAO d          -2.979   8.958  19.724  0.00  0.00    -0.056 C 
ATOM     14  H3  DAO d          -3.745   8.174  19.824  0.00  0.00     0.033 H 
ATOM     15  H4  DAO d          -2.883   9.499  20.678  0.00  0.00     0.033 H 
BRANCH  13  16
ATOM     16  C2  DAO d          -3.422   9.946  18.640  0.00  0.00     0.016 C 
ATOM     17  H1  DAO d          -2.954   9.651  17.688  0.00  0.00     0.049 H 
ATOM     18  H2  DAO d          -4.516   9.889  18.542  0.00  0.00     0.049 H 
BRANCH  16  19
ATOM     19  C1  DAO d          -3.037  11.390  18.940  0.00  0.00     0.172 C 
ATOM     20  O1  DAO d          -2.297  11.643  19.925  0.00  0.00    -0.648 OA
ATOM     21  O2  DAO d          -3.447  12.315  18.203  0.00  0.00    -0.648 OA
ENDBRANCH  16  19
ENDBRANCH  13  16
ENDBRANCH  10  13
ENDBRANCH   7  10
ENDBRANCH   4   7
ENDBRANCH   1   4
BRANCH   1  22
ATOM     22  C8  DAO d          -4.457   5.054  19.531  0.00  0.00    -0.065 C 
ATOM     23  H13 DAO d          -4.932   6.042  19.618  0.00  0.00     0.033 H 
ATOM     24  H14 DAO d          -5.121   4.289  19.958  0.00  0.00     0.033 H 
BRANCH  22  25
ATOM     25  C9  DAO d          -4.233   4.745  18.065  0.00  0.00    -0.065 C 
ATOM     26  H15 DAO d          -4.415   5.662  17.483  0.00  0.00     0.033 H 
ATOM     27  H16 DAO d          -4.950   3.969  17.759  0.00  0.00     0.033 H 
BRANCH  25  28
ATOM     28  C10 DAO d          -2.819   4.249  17.759  0.00  0.00    -0.065 C 
ATOM     29  H17 DAO d          -2.856   3.172  17.539  0.00  0.00     0.033 H 
ATOM     30  H18 DAO d          -2.180   4.422  18.637  0.00  0.00     0.033 H 
BRANCH  28  31
ATOM     31  C11 DAO d          -2.231   4.977  16.568  0.00  0.00    -0.069 C 
ATOM     32  H19 DAO d          -2.650   4.557  15.642  0.00  0.00     0.032 H 
ATOM     33  H20 DAO d          -1.139   4.850  16.568  0.00  0.00     0.032 H 
BRANCH  31  34
ATOM     34  C12 DAO d          -2.562   6.447  16.644  0.00  0.00    -0.077 C 
ATOM     35  H21 DAO d          -2.861   6.704  17.671  0.00  0.00     0.027 H 
ATOM     36  H22 DAO d          -3.390   6.673  15.954  0.00  0.00     0.027 H 
ATOM     37  H23 DAO d          -1.678   7.037  16.362  0.00  0.00     0.027 H 
ENDBRANCH  31  34
ENDBRANCH  28  31
ENDBRANCH  25  28
ENDBRANCH  22  25
ENDBRANCH   1  22
TORSDOF 11
ENDMDL
