MODEL 1
REMARK VINA RESULT:      -6.1      0.000      0.000
REMARK  8 active torsions:
REMARK  status: ('A' for Active; 'I' for Inactive)
REMARK    1  A    between atoms: C1_1  and  O7_7 
REMARK    2  A    between atoms: C2_2  and  O16_14 
REMARK    3  A    between atoms: C14_12  and  C4_4 
REMARK    4  A    between atoms: C10_9  and  C9_8 
REMARK    5  A    between atoms: N3_15  and  C10_9 
REMARK    6  A    between atoms: C12_10  and  C13_11 
REMARK    7  A    between atoms: N3_15  and  C12_10 
REMARK       I    between atoms: C14_12  and  N3_15 
REMARK    8  A    between atoms: O16_14  and  C15_16 
ROOT
ATOM      1  C14 MOL d          64.644  35.455  24.200  0.00  0.00     0.253 C 
ATOM      2  O15 MOL d          64.228  34.974  23.171  0.00  0.00    -0.267 OA
ATOM      3  N3  MOL d          65.138  36.726  24.279  0.00  0.00    -0.349 N 
ENDROOT
BRANCH   1   4
ATOM      4  C4  MOL d          64.682  34.625  25.439  0.00  0.00     0.035 A 
ATOM      5  C3  MOL d          65.905  34.195  25.934  0.00  0.00    -0.033 A 
ATOM      6  C2  MOL d          65.986  33.410  27.061  0.00  0.00     0.102 A 
ATOM      7  H1  MOL d          66.816  34.485  25.423  0.00  0.00     0.089 H 
ATOM      8  C1  MOL d          64.815  33.053  27.738  0.00  0.00     0.099 A 
ATOM      9  C6  MOL d          63.573  33.484  27.248  0.00  0.00    -0.047 A 
ATOM     10  C5  MOL d          63.508  34.265  26.108  0.00  0.00    -0.065 A 
ATOM     11  H3  MOL d          62.662  33.204  27.764  0.00  0.00     0.087 H 
ATOM     12  H2  MOL d          62.547  34.598  25.734  0.00  0.00     0.085 H 
BRANCH   6  13
ATOM     13  O16 MOL d          67.168  32.963  27.592  0.00  0.00    -0.353 OA
BRANCH  13  14
ATOM     14  C15 MOL d          68.392  33.571  27.098  0.00  0.00     0.010 C 
ATOM     15  H15 MOL d          68.434  34.622  27.419  0.00  0.00     0.066 H 
ATOM     16  H16 MOL d          68.407  33.522  25.999  0.00  0.00     0.066 H 
ATOM     17  H17 MOL d          69.259  33.029  27.502  0.00  0.00     0.066 H 
ENDBRANCH  13  14
ENDBRANCH   6  13
BRANCH   8  18
ATOM     18  O7  MOL d          64.898  32.300  28.871  0.00  0.00    -0.358 OA
ATOM     19  H4  MOL d          65.441  31.539  28.706  0.00  0.00     0.217 HD
ENDBRANCH   8  18
ENDBRANCH   1   4
BRANCH   3  20
ATOM     20  C10 MOL d          65.262  37.417  25.579  0.00  0.00    -0.005 C 
ATOM     21  H8  MOL d          64.468  37.054  26.248  0.00  0.00     0.063 H 
ATOM     22  H9  MOL d          66.245  37.179  26.012  0.00  0.00     0.063 H 
BRANCH  20  23
ATOM     23  C9  MOL d          65.139  38.918  25.448  0.00  0.00    -0.061 C 
ATOM     24  H5  MOL d          65.442  39.395  26.392  0.00  0.00     0.029 H 
ATOM     25  H6  MOL d          64.095  39.182  25.222  0.00  0.00     0.029 H 
ATOM     26  H7  MOL d          65.790  39.270  24.634  0.00  0.00     0.029 H 
ENDBRANCH  20  23
ENDBRANCH   3  20
BRANCH   3  27
ATOM     27  C12 MOL d          65.369  37.545  23.090  0.00  0.00    -0.005 C 
ATOM     28  H10 MOL d          64.715  37.189  22.280  0.00  0.00     0.063 H 
ATOM     29  H11 MOL d          65.126  38.592  23.325  0.00  0.00     0.063 H 
BRANCH  27  30
ATOM     30  C13 MOL d          66.813  37.468  22.625  0.00  0.00    -0.061 C 
ATOM     31  H12 MOL d          67.457  37.202  23.476  0.00  0.00     0.029 H 
ATOM     32  H13 MOL d          67.121  38.444  22.223  0.00  0.00     0.029 H 
ATOM     33  H14 MOL d          66.906  36.702  21.842  0.00  0.00     0.029 H 
ENDBRANCH  27  30
ENDBRANCH   3  27
TORSDOF 8
ENDMDL
MODEL 2
REMARK VINA RESULT:      -5.6      2.686      5.283
REMARK  8 active torsions:
REMARK  status: ('A' for Active; 'I' for Inactive)
REMARK    1  A    between atoms: C1_1  and  O7_7 
REMARK    2  A    between atoms: C2_2  and  O16_14 
REMARK    3  A    between atoms: C14_12  and  C4_4 
REMARK    4  A    between atoms: C10_9  and  C9_8 
REMARK    5  A    between atoms: N3_15  and  C10_9 
REMARK    6  A    between atoms: C12_10  and  C13_11 
REMARK    7  A    between atoms: N3_15  and  C12_10 
REMARK       I    between atoms: C14_12  and  N3_15 
REMARK    8  A    between atoms: O16_14  and  C15_16 
ROOT
ATOM      1  C14 MOL d          64.364  34.496  26.229  0.00  0.00     0.253 C 
ATOM      2  O15 MOL d          63.215  34.602  25.864  0.00  0.00    -0.267 OA
ATOM      3  N3  MOL d          64.778  33.531  27.103  0.00  0.00    -0.349 N 
ENDROOT
BRANCH   1   4
ATOM      4  C4  MOL d          65.379  35.485  25.766  0.00  0.00     0.035 A 
ATOM      5  C3  MOL d          65.985  36.325  26.689  0.00  0.00    -0.033 A 
ATOM      6  C2  MOL d          66.911  37.266  26.302  0.00  0.00     0.102 A 
ATOM      7  H1  MOL d          65.723  36.237  27.737  0.00  0.00     0.089 H 
ATOM      8  C1  MOL d          67.270  37.367  24.954  0.00  0.00     0.099 A 
ATOM      9  C6  MOL d          66.665  36.521  24.012  0.00  0.00    -0.047 A 
ATOM     10  C5  MOL d          65.729  35.587  24.415  0.00  0.00    -0.065 A 
ATOM     11  H3  MOL d          66.933  36.600  22.964  0.00  0.00     0.087 H 
ATOM     12  H2  MOL d          65.266  34.934  23.685  0.00  0.00     0.085 H 
BRANCH   6  13
ATOM     13  O16 MOL d          67.540  38.116  27.175  0.00  0.00    -0.353 OA
BRANCH  13  14
ATOM     14  C15 MOL d          66.701  38.886  28.076  0.00  0.00     0.010 C 
ATOM     15  H15 MOL d          66.177  39.669  27.510  0.00  0.00     0.066 H 
ATOM     16  H16 MOL d          67.328  39.352  28.851  0.00  0.00     0.066 H 
ATOM     17  H17 MOL d          65.965  38.221  28.551  0.00  0.00     0.066 H 
ENDBRANCH  13  14
ENDBRANCH   6  13
BRANCH   8  18
ATOM     18  O7  MOL d          68.209  38.280  24.576  0.00  0.00    -0.358 OA
ATOM     19  H4  MOL d          68.613  38.655  25.349  0.00  0.00     0.217 HD
ENDBRANCH   8  18
ENDBRANCH   1   4
BRANCH   3  20
ATOM     20  C10 MOL d          66.206  33.173  27.222  0.00  0.00    -0.005 C 
ATOM     21  H8  MOL d          66.813  34.046  26.941  0.00  0.00     0.063 H 
ATOM     22  H9  MOL d          66.415  32.902  28.268  0.00  0.00     0.063 H 
BRANCH  20  23
ATOM     23  C9  MOL d          66.586  32.010  26.333  0.00  0.00    -0.061 C 
ATOM     24  H5  MOL d          67.577  31.633  26.626  0.00  0.00     0.029 H 
ATOM     25  H6  MOL d          66.615  32.344  25.286  0.00  0.00     0.029 H 
ATOM     26  H7  MOL d          65.842  31.207  26.442  0.00  0.00     0.029 H 
ENDBRANCH  20  23
ENDBRANCH   3  20
BRANCH   3  27
ATOM     27  C12 MOL d          63.835  32.660  27.804  0.00  0.00    -0.005 C 
ATOM     28  H10 MOL d          62.872  33.183  27.899  0.00  0.00     0.063 H 
ATOM     29  H11 MOL d          63.697  31.740  27.217  0.00  0.00     0.063 H 
BRANCH  27  30
ATOM     30  C13 MOL d          64.334  32.291  29.189  0.00  0.00    -0.061 C 
ATOM     31  H12 MOL d          64.619  33.204  29.732  0.00  0.00     0.029 H 
ATOM     32  H13 MOL d          65.208  31.630  29.100  0.00  0.00     0.029 H 
ATOM     33  H14 MOL d          63.536  31.771  29.740  0.00  0.00     0.029 H 
ENDBRANCH  27  30
ENDBRANCH   3  27
TORSDOF 8
ENDMDL
MODEL 3
REMARK VINA RESULT:      -5.5      2.517      5.506
REMARK  8 active torsions:
REMARK  status: ('A' for Active; 'I' for Inactive)
REMARK    1  A    between atoms: C1_1  and  O7_7 
REMARK    2  A    between atoms: C2_2  and  O16_14 
REMARK    3  A    between atoms: C14_12  and  C4_4 
REMARK    4  A    between atoms: C10_9  and  C9_8 
REMARK    5  A    between atoms: N3_15  and  C10_9 
REMARK    6  A    between atoms: C12_10  and  C13_11 
REMARK    7  A    between atoms: N3_15  and  C12_10 
REMARK       I    between atoms: C14_12  and  N3_15 
REMARK    8  A    between atoms: O16_14  and  C15_16 
ROOT
ATOM      1  C14 MOL d          64.735  34.629  26.246  0.00  0.00     0.253 C 
ATOM      2  O15 MOL d          63.576  34.729  25.914  0.00  0.00    -0.267 OA
ATOM      3  N3  MOL d          65.204  33.591  27.000  0.00  0.00    -0.349 N 
ENDROOT
BRANCH   1   4
ATOM      4  C4  MOL d          65.703  35.702  25.877  0.00  0.00     0.035 A 
ATOM      5  C3  MOL d          66.044  35.884  24.545  0.00  0.00    -0.033 A 
ATOM      6  C2  MOL d          66.949  36.847  24.161  0.00  0.00     0.102 A 
ATOM      7  H1  MOL d          65.588  35.254  23.789  0.00  0.00     0.089 H 
ATOM      8  C1  MOL d          67.522  37.678  25.129  0.00  0.00     0.099 A 
ATOM      9  C6  MOL d          67.182  37.505  26.479  0.00  0.00    -0.047 A 
ATOM     10  C5  MOL d          66.279  36.526  26.850  0.00  0.00    -0.065 A 
ATOM     11  H3  MOL d          67.630  38.141  27.235  0.00  0.00     0.087 H 
ATOM     12  H2  MOL d          66.017  36.396  27.893  0.00  0.00     0.085 H 
BRANCH   6  13
ATOM     13  O16 MOL d          67.316  37.069  22.859  0.00  0.00    -0.353 OA
BRANCH  13  14
ATOM     14  C15 MOL d          66.393  37.820  22.026  0.00  0.00     0.010 C 
ATOM     15  H15 MOL d          65.634  37.140  21.614  0.00  0.00     0.066 H 
ATOM     16  H16 MOL d          66.946  38.294  21.202  0.00  0.00     0.066 H 
ATOM     17  H17 MOL d          65.901  38.596  22.631  0.00  0.00     0.066 H 
ENDBRANCH  13  14
ENDBRANCH   6  13
BRANCH   8  18
ATOM     18  O7  MOL d          68.396  38.652  24.746  0.00  0.00    -0.358 OA
ATOM     19  H4  MOL d          68.597  38.550  23.824  0.00  0.00     0.217 HD
ENDBRANCH   8  18
ENDBRANCH   1   4
BRANCH   3  20
ATOM     20  C10 MOL d          66.647  33.278  27.055  0.00  0.00    -0.005 C 
ATOM     21  H8  MOL d          67.206  34.116  26.611  0.00  0.00     0.063 H 
ATOM     22  H9  MOL d          66.941  33.157  28.107  0.00  0.00     0.063 H 
BRANCH  20  23
ATOM     23  C9  MOL d          66.991  32.012  26.304  0.00  0.00    -0.061 C 
ATOM     24  H5  MOL d          66.067  31.537  25.942  0.00  0.00     0.029 H 
ATOM     25  H6  MOL d          67.520  31.320  26.975  0.00  0.00     0.029 H 
ATOM     26  H7  MOL d          67.637  32.257  25.448  0.00  0.00     0.029 H 
ENDBRANCH  20  23
ENDBRANCH   3  20
BRANCH   3  27
ATOM     27  C12 MOL d          64.309  32.612  27.617  0.00  0.00    -0.005 C 
ATOM     28  H10 MOL d          63.274  32.975  27.536  0.00  0.00     0.063 H 
ATOM     29  H11 MOL d          64.405  31.655  27.082  0.00  0.00     0.063 H 
BRANCH  27  30
ATOM     30  C13 MOL d          64.640  32.392  29.082  0.00  0.00    -0.061 C 
ATOM     31  H12 MOL d          63.799  32.733  29.703  0.00  0.00     0.029 H 
ATOM     32  H13 MOL d          65.543  32.964  29.344  0.00  0.00     0.029 H 
ATOM     33  H14 MOL d          64.818  31.322  29.262  0.00  0.00     0.029 H 
ENDBRANCH  27  30
ENDBRANCH   3  27
TORSDOF 8
ENDMDL
MODEL 4
REMARK VINA RESULT:      -5.5      0.917      2.170
REMARK  8 active torsions:
REMARK  status: ('A' for Active; 'I' for Inactive)
REMARK    1  A    between atoms: C1_1  and  O7_7 
REMARK    2  A    between atoms: C2_2  and  O16_14 
REMARK    3  A    between atoms: C14_12  and  C4_4 
REMARK    4  A    between atoms: C10_9  and  C9_8 
REMARK    5  A    between atoms: N3_15  and  C10_9 
REMARK    6  A    between atoms: C12_10  and  C13_11 
REMARK    7  A    between atoms: N3_15  and  C12_10 
REMARK       I    between atoms: C14_12  and  N3_15 
REMARK    8  A    between atoms: O16_14  and  C15_16 
ROOT
ATOM      1  C14 MOL d          64.905  35.613  24.012  0.00  0.00     0.253 C 
ATOM      2  O15 MOL d          64.330  35.055  23.106  0.00  0.00    -0.267 OA
ATOM      3  N3  MOL d          65.129  36.960  24.030  0.00  0.00    -0.349 N 
ENDROOT
BRANCH   1   4
ATOM      4  C4  MOL d          65.455  34.810  25.142  0.00  0.00     0.035 A 
ATOM      5  C3  MOL d          64.629  33.918  25.810  0.00  0.00    -0.033 A 
ATOM      6  C2  MOL d          65.088  33.173  26.872  0.00  0.00     0.102 A 
ATOM      7  H1  MOL d          63.600  33.805  25.488  0.00  0.00     0.089 H 
ATOM      8  C1  MOL d          66.422  33.297  27.275  0.00  0.00     0.099 A 
ATOM      9  C6  MOL d          67.267  34.195  26.605  0.00  0.00    -0.047 A 
ATOM     10  C5  MOL d          66.788  34.944  25.546  0.00  0.00    -0.065 A 
ATOM     11  H3  MOL d          68.300  34.302  26.919  0.00  0.00     0.087 H 
ATOM     12  H2  MOL d          67.444  35.634  25.030  0.00  0.00     0.085 H 
BRANCH   6  13
ATOM     13  O16 MOL d          64.315  32.276  27.561  0.00  0.00    -0.353 OA
BRANCH  13  14
ATOM     14  C15 MOL d          63.363  32.813  28.517  0.00  0.00     0.010 C 
ATOM     15  H15 MOL d          63.274  32.127  29.371  0.00  0.00     0.066 H 
ATOM     16  H16 MOL d          62.381  32.925  28.033  0.00  0.00     0.066 H 
ATOM     17  H17 MOL d          63.712  33.795  28.870  0.00  0.00     0.066 H 
ENDBRANCH  13  14
ENDBRANCH   6  13
BRANCH   8  18
ATOM     18  O7  MOL d          66.885  32.537  28.308  0.00  0.00    -0.358 OA
ATOM     19  H4  MOL d          67.642  32.960  28.695  0.00  0.00     0.217 HD
ENDBRANCH   8  18
ENDBRANCH   1   4
BRANCH   3  20
ATOM     20  C10 MOL d          65.463  37.661  25.286  0.00  0.00    -0.005 C 
ATOM     21  H8  MOL d          64.901  37.196  26.109  0.00  0.00     0.063 H 
ATOM     22  H9  MOL d          66.542  37.556  25.473  0.00  0.00     0.063 H 
BRANCH  20  23
ATOM     23  C9  MOL d          65.120  39.134  25.234  0.00  0.00    -0.061 C 
ATOM     24  H5  MOL d          65.537  39.639  26.118  0.00  0.00     0.029 H 
ATOM     25  H6  MOL d          64.027  39.255  25.225  0.00  0.00     0.029 H 
ATOM     26  H7  MOL d          65.546  39.577  24.323  0.00  0.00     0.029 H 
ENDBRANCH  20  23
ENDBRANCH   3  20
BRANCH   3  27
ATOM     27  C12 MOL d          64.849  37.810  22.873  0.00  0.00    -0.005 C 
ATOM     28  H10 MOL d          63.966  37.418  22.349  0.00  0.00     0.063 H 
ATOM     29  H11 MOL d          64.644  38.833  23.224  0.00  0.00     0.063 H 
BRANCH  27  30
ATOM     30  C13 MOL d          66.019  37.848  21.906  0.00  0.00    -0.061 C 
ATOM     31  H12 MOL d          66.563  36.894  21.952  0.00  0.00     0.029 H 
ATOM     32  H13 MOL d          66.696  38.670  22.181  0.00  0.00     0.029 H 
ATOM     33  H14 MOL d          65.645  38.007  20.884  0.00  0.00     0.029 H 
ENDBRANCH  27  30
ENDBRANCH   3  27
TORSDOF 8
ENDMDL
MODEL 5
REMARK VINA RESULT:      -5.1      1.548      2.028
REMARK  8 active torsions:
REMARK  status: ('A' for Active; 'I' for Inactive)
REMARK    1  A    between atoms: C1_1  and  O7_7 
REMARK    2  A    between atoms: C2_2  and  O16_14 
REMARK    3  A    between atoms: C14_12  and  C4_4 
REMARK    4  A    between atoms: C10_9  and  C9_8 
REMARK    5  A    between atoms: N3_15  and  C10_9 
REMARK    6  A    between atoms: C12_10  and  C13_11 
REMARK    7  A    between atoms: N3_15  and  C12_10 
REMARK       I    between atoms: C14_12  and  N3_15 
REMARK    8  A    between atoms: O16_14  and  C15_16 
ROOT
ATOM      1  C14 MOL d          65.254  37.195  25.549  0.00  0.00     0.253 C 
ATOM      2  O15 MOL d          65.439  38.140  26.282  0.00  0.00    -0.267 OA
ATOM      3  N3  MOL d          65.104  37.324  24.198  0.00  0.00    -0.349 N 
ENDROOT
BRANCH   1   4
ATOM      4  C4  MOL d          65.125  35.827  26.128  0.00  0.00     0.035 A 
ATOM      5  C3  MOL d          66.260  35.159  26.561  0.00  0.00    -0.033 A 
ATOM      6  C2  MOL d          66.189  33.887  27.082  0.00  0.00     0.102 A 
ATOM      7  H1  MOL d          67.224  35.650  26.489  0.00  0.00     0.089 H 
ATOM      8  C1  MOL d          64.945  33.259  27.199  0.00  0.00     0.099 A 
ATOM      9  C6  MOL d          63.789  33.926  26.766  0.00  0.00    -0.047 A 
ATOM     10  C5  MOL d          63.878  35.200  26.236  0.00  0.00    -0.065 A 
ATOM     11  H3  MOL d          62.823  33.441  26.847  0.00  0.00     0.087 H 
ATOM     12  H2  MOL d          62.983  35.713  25.905  0.00  0.00     0.085 H 
BRANCH   6  13
ATOM     13  O16 MOL d          67.280  33.187  27.527  0.00  0.00    -0.353 OA
BRANCH  13  14
ATOM     14  C15 MOL d          68.097  32.519  26.529  0.00  0.00     0.010 C 
ATOM     15  H15 MOL d          67.484  31.784  25.987  0.00  0.00     0.066 H 
ATOM     16  H16 MOL d          68.933  32.003  27.025  0.00  0.00     0.066 H 
ATOM     17  H17 MOL d          68.492  33.261  25.821  0.00  0.00     0.066 H 
ENDBRANCH  13  14
ENDBRANCH   6  13
BRANCH   8  18
ATOM     18  O7  MOL d          64.872  32.011  27.742  0.00  0.00    -0.358 OA
ATOM     19  H4  MOL d          64.686  32.081  28.671  0.00  0.00     0.217 HD
ENDBRANCH   8  18
ENDBRANCH   1   4
BRANCH   3  20
ATOM     20  C10 MOL d          65.277  36.166  23.297  0.00  0.00    -0.005 C 
ATOM     21  H8  MOL d          65.860  36.485  22.421  0.00  0.00     0.063 H 
ATOM     22  H9  MOL d          65.825  35.379  23.836  0.00  0.00     0.063 H 
BRANCH  20  23
ATOM     23  C9  MOL d          63.957  35.601  22.823  0.00  0.00    -0.061 C 
ATOM     24  H5  MOL d          63.262  35.528  23.673  0.00  0.00     0.029 H 
ATOM     25  H6  MOL d          64.119  34.600  22.396  0.00  0.00     0.029 H 
ATOM     26  H7  MOL d          63.529  36.262  22.056  0.00  0.00     0.029 H 
ENDBRANCH  20  23
ENDBRANCH   3  20
BRANCH   3  27
ATOM     27  C12 MOL d          64.975  38.629  23.550  0.00  0.00    -0.005 C 
ATOM     28  H10 MOL d          63.910  38.826  23.355  0.00  0.00     0.063 H 
ATOM     29  H11 MOL d          65.373  39.402  24.225  0.00  0.00     0.063 H 
BRANCH  27  30
ATOM     30  C13 MOL d          65.734  38.683  22.237  0.00  0.00    -0.061 C 
ATOM     31  H12 MOL d          65.967  39.729  21.992  0.00  0.00     0.029 H 
ATOM     32  H13 MOL d          65.115  38.249  21.437  0.00  0.00     0.029 H 
ATOM     33  H14 MOL d          66.668  38.111  22.329  0.00  0.00     0.029 H 
ENDBRANCH  27  30
ENDBRANCH   3  27
TORSDOF 8
ENDMDL
MODEL 6
REMARK VINA RESULT:      -4.9      2.845      5.063
REMARK  8 active torsions:
REMARK  status: ('A' for Active; 'I' for Inactive)
REMARK    1  A    between atoms: C1_1  and  O7_7 
REMARK    2  A    between atoms: C2_2  and  O16_14 
REMARK    3  A    between atoms: C14_12  and  C4_4 
REMARK    4  A    between atoms: C10_9  and  C9_8 
REMARK    5  A    between atoms: N3_15  and  C10_9 
REMARK    6  A    between atoms: C12_10  and  C13_11 
REMARK    7  A    between atoms: N3_15  and  C12_10 
REMARK       I    between atoms: C14_12  and  N3_15 
REMARK    8  A    between atoms: O16_14  and  C15_16 
ROOT
ATOM      1  C14 MOL d          66.417  37.547  26.933  0.00  0.00     0.253 C 
ATOM      2  O15 MOL d          65.857  38.428  27.544  0.00  0.00    -0.267 OA
ATOM      3  N3  MOL d          67.703  37.167  27.192  0.00  0.00    -0.349 N 
ENDROOT
BRANCH   1   4
ATOM      4  C4  MOL d          65.714  36.869  25.806  0.00  0.00     0.035 A 
ATOM      5  C3  MOL d          65.795  37.406  24.530  0.00  0.00    -0.033 A 
ATOM      6  C2  MOL d          65.144  36.826  23.465  0.00  0.00     0.102 A 
ATOM      7  H1  MOL d          66.383  38.302  24.368  0.00  0.00     0.089 H 
ATOM      8  C1  MOL d          64.403  35.657  23.664  0.00  0.00     0.099 A 
ATOM      9  C6  MOL d          64.317  35.103  24.950  0.00  0.00    -0.047 A 
ATOM     10  C5  MOL d          64.968  35.703  26.012  0.00  0.00    -0.065 A 
ATOM     11  H3  MOL d          63.737  34.201  25.112  0.00  0.00     0.087 H 
ATOM     12  H2  MOL d          64.901  35.271  27.003  0.00  0.00     0.085 H 
BRANCH   6  13
ATOM     13  O16 MOL d          65.196  37.315  22.185  0.00  0.00    -0.353 OA
BRANCH  13  14
ATOM     14  C15 MOL d          66.414  37.996  21.781  0.00  0.00     0.010 C 
ATOM     15  H15 MOL d          66.423  39.012  22.204  0.00  0.00     0.066 H 
ATOM     16  H16 MOL d          66.453  38.056  20.684  0.00  0.00     0.066 H 
ATOM     17  H17 MOL d          67.286  37.438  22.150  0.00  0.00     0.066 H 
ENDBRANCH  13  14
ENDBRANCH   6  13
BRANCH   8  18
ATOM     18  O7  MOL d          63.784  35.065  22.603  0.00  0.00    -0.358 OA
ATOM     19  H4  MOL d          63.369  34.260  22.889  0.00  0.00     0.217 HD
ENDBRANCH   8  18
ENDBRANCH   1   4
BRANCH   3  20
ATOM     20  C10 MOL d          68.221  35.863  26.730  0.00  0.00    -0.005 C 
ATOM     21  H8  MOL d          67.372  35.237  26.416  0.00  0.00     0.063 H 
ATOM     22  H9  MOL d          68.888  36.033  25.872  0.00  0.00     0.063 H 
BRANCH  20  23
ATOM     23  C9  MOL d          68.991  35.133  27.808  0.00  0.00    -0.061 C 
ATOM     24  H5  MOL d          70.025  35.506  27.836  0.00  0.00     0.029 H 
ATOM     25  H6  MOL d          68.996  34.055  27.588  0.00  0.00     0.029 H 
ATOM     26  H7  MOL d          68.511  35.306  28.782  0.00  0.00     0.029 H 
ENDBRANCH  20  23
ENDBRANCH   3  20
BRANCH   3  27
ATOM     27  C12 MOL d          68.565  37.914  28.106  0.00  0.00    -0.005 C 
ATOM     28  H10 MOL d          67.952  38.316  28.926  0.00  0.00     0.063 H 
ATOM     29  H11 MOL d          69.325  37.233  28.517  0.00  0.00     0.063 H 
BRANCH  27  30
ATOM     30  C13 MOL d          69.265  39.066  27.406  0.00  0.00    -0.061 C 
ATOM     31  H12 MOL d          68.556  39.896  27.269  0.00  0.00     0.029 H 
ATOM     32  H13 MOL d          69.629  38.730  26.423  0.00  0.00     0.029 H 
ATOM     33  H14 MOL d          70.114  39.405  28.016  0.00  0.00     0.029 H 
ENDBRANCH  27  30
ENDBRANCH   3  27
TORSDOF 8
ENDMDL
MODEL 7
REMARK VINA RESULT:      -4.8      1.945      2.205
REMARK  8 active torsions:
REMARK  status: ('A' for Active; 'I' for Inactive)
REMARK    1  A    between atoms: C1_1  and  O7_7 
REMARK    2  A    between atoms: C2_2  and  O16_14 
REMARK    3  A    between atoms: C14_12  and  C4_4 
REMARK    4  A    between atoms: C10_9  and  C9_8 
REMARK    5  A    between atoms: N3_15  and  C10_9 
REMARK    6  A    between atoms: C12_10  and  C13_11 
REMARK    7  A    between atoms: N3_15  and  C12_10 
REMARK       I    between atoms: C14_12  and  N3_15 
REMARK    8  A    between atoms: O16_14  and  C15_16 
ROOT
ATOM      1  C14 MOL d          66.496  36.079  25.104  0.00  0.00     0.253 C 
ATOM      2  O15 MOL d          66.885  35.814  23.989  0.00  0.00    -0.267 OA
ATOM      3  N3  MOL d          66.986  37.125  25.832  0.00  0.00    -0.349 N 
ENDROOT
BRANCH   1   4
ATOM      4  C4  MOL d          65.478  35.205  25.756  0.00  0.00     0.035 A 
ATOM      5  C3  MOL d          65.894  34.106  26.493  0.00  0.00    -0.033 A 
ATOM      6  C2  MOL d          64.989  33.261  27.093  0.00  0.00     0.102 A 
ATOM      7  H1  MOL d          66.955  33.909  26.599  0.00  0.00     0.089 H 
ATOM      8  C1  MOL d          63.620  33.524  26.981  0.00  0.00     0.099 A 
ATOM      9  C6  MOL d          63.188  34.635  26.240  0.00  0.00    -0.047 A 
ATOM     10  C5  MOL d          64.109  35.469  25.634  0.00  0.00    -0.065 A 
ATOM     11  H3  MOL d          62.128  34.839  26.141  0.00  0.00     0.087 H 
ATOM     12  H2  MOL d          63.772  36.327  25.064  0.00  0.00     0.085 H 
BRANCH   6  13
ATOM     13  O16 MOL d          65.349  32.166  27.835  0.00  0.00    -0.353 OA
BRANCH  13  14
ATOM     14  C15 MOL d          66.646  32.201  28.490  0.00  0.00     0.010 C 
ATOM     15  H15 MOL d          66.507  32.163  29.580  0.00  0.00     0.066 H 
ATOM     16  H16 MOL d          67.167  33.131  28.219  0.00  0.00     0.066 H 
ATOM     17  H17 MOL d          67.244  31.337  28.165  0.00  0.00     0.066 H 
ENDBRANCH  13  14
ENDBRANCH   6  13
BRANCH   8  18
ATOM     18  O7  MOL d          62.725  32.704  27.600  0.00  0.00    -0.358 OA
ATOM     19  H4  MOL d          62.418  33.118  28.398  0.00  0.00     0.217 HD
ENDBRANCH   8  18
ENDBRANCH   1   4
BRANCH   3  20
ATOM     20  C10 MOL d          66.243  37.664  26.989  0.00  0.00    -0.005 C 
ATOM     21  H8  MOL d          65.417  38.289  26.619  0.00  0.00     0.063 H 
ATOM     22  H9  MOL d          65.834  36.823  27.568  0.00  0.00     0.063 H 
BRANCH  20  23
ATOM     23  C9  MOL d          67.116  38.500  27.897  0.00  0.00    -0.061 C 
ATOM     24  H5  MOL d          67.147  38.044  28.899  0.00  0.00     0.029 H 
ATOM     25  H6  MOL d          66.702  39.516  27.970  0.00  0.00     0.029 H 
ATOM     26  H7  MOL d          68.134  38.548  27.485  0.00  0.00     0.029 H 
ENDBRANCH  20  23
ENDBRANCH   3  20
BRANCH   3  27
ATOM     27  C12 MOL d          68.145  37.901  25.394  0.00  0.00    -0.005 C 
ATOM     28  H10 MOL d          68.573  38.423  26.263  0.00  0.00     0.063 H 
ATOM     29  H11 MOL d          68.895  37.215  24.973  0.00  0.00     0.063 H 
BRANCH  27  30
ATOM     30  C13 MOL d          67.771  38.928  24.340  0.00  0.00    -0.061 C 
ATOM     31  H12 MOL d          68.629  39.101  23.675  0.00  0.00     0.029 H 
ATOM     32  H13 MOL d          67.491  39.872  24.830  0.00  0.00     0.029 H 
ATOM     33  H14 MOL d          66.920  38.554  23.750  0.00  0.00     0.029 H 
ENDBRANCH  27  30
ENDBRANCH   3  27
TORSDOF 8
ENDMDL
MODEL 8
REMARK VINA RESULT:      -4.8      2.602      4.451
REMARK  8 active torsions:
REMARK  status: ('A' for Active; 'I' for Inactive)
REMARK    1  A    between atoms: C1_1  and  O7_7 
REMARK    2  A    between atoms: C2_2  and  O16_14 
REMARK    3  A    between atoms: C14_12  and  C4_4 
REMARK    4  A    between atoms: C10_9  and  C9_8 
REMARK    5  A    between atoms: N3_15  and  C10_9 
REMARK    6  A    between atoms: C12_10  and  C13_11 
REMARK    7  A    between atoms: N3_15  and  C12_10 
REMARK       I    between atoms: C14_12  and  N3_15 
REMARK    8  A    between atoms: O16_14  and  C15_16 
ROOT
ATOM      1  C14 MOL d          67.850  36.003  27.006  0.00  0.00     0.253 C 
ATOM      2  O15 MOL d          68.546  35.089  27.385  0.00  0.00    -0.267 OA
ATOM      3  N3  MOL d          68.012  37.288  27.439  0.00  0.00    -0.349 N 
ENDROOT
BRANCH   1   4
ATOM      4  C4  MOL d          66.722  35.731  26.069  0.00  0.00     0.035 A 
ATOM      5  C3  MOL d          65.585  35.089  26.538  0.00  0.00    -0.033 A 
ATOM      6  C2  MOL d          64.530  34.799  25.704  0.00  0.00     0.102 A 
ATOM      7  H1  MOL d          65.527  34.810  27.584  0.00  0.00     0.089 H 
ATOM      8  C1  MOL d          64.590  35.178  24.360  0.00  0.00     0.099 A 
ATOM      9  C6  MOL d          65.733  35.831  23.875  0.00  0.00    -0.047 A 
ATOM     10  C5  MOL d          66.790  36.106  24.723  0.00  0.00    -0.065 A 
ATOM     11  H3  MOL d          65.789  36.120  22.831  0.00  0.00     0.087 H 
ATOM     12  H2  MOL d          67.670  36.612  24.345  0.00  0.00     0.085 H 
BRANCH   6  13
ATOM     13  O16 MOL d          63.384  34.170  26.120  0.00  0.00    -0.353 OA
BRANCH  13  14
ATOM     14  C15 MOL d          63.478  33.325  27.296  0.00  0.00     0.010 C 
ATOM     15  H15 MOL d          63.324  32.275  27.007  0.00  0.00     0.066 H 
ATOM     16  H16 MOL d          62.706  33.621  28.022  0.00  0.00     0.066 H 
ATOM     17  H17 MOL d          64.472  33.438  27.752  0.00  0.00     0.066 H 
ENDBRANCH  13  14
ENDBRANCH   6  13
BRANCH   8  18
ATOM     18  O7  MOL d          63.532  34.917  23.540  0.00  0.00    -0.358 OA
ATOM     19  H4  MOL d          62.961  35.676  23.511  0.00  0.00     0.217 HD
ENDBRANCH   8  18
ENDBRANCH   1   4
BRANCH   3  20
ATOM     20  C10 MOL d          67.438  38.424  26.690  0.00  0.00    -0.005 C 
ATOM     21  H8  MOL d          68.090  39.300  26.823  0.00  0.00     0.063 H 
ATOM     22  H9  MOL d          67.395  38.157  25.624  0.00  0.00     0.063 H 
BRANCH  20  23
ATOM     23  C9  MOL d          66.045  38.780  27.159  0.00  0.00    -0.061 C 
ATOM     24  H5  MOL d          65.421  37.873  27.175  0.00  0.00     0.029 H 
ATOM     25  H6  MOL d          65.603  39.516  26.471  0.00  0.00     0.029 H 
ATOM     26  H7  MOL d          66.097  39.208  28.170  0.00  0.00     0.029 H 
ENDBRANCH  20  23
ENDBRANCH   3  20
BRANCH   3  27
ATOM     27  C12 MOL d          68.924  37.632  28.530  0.00  0.00    -0.005 C 
ATOM     28  H10 MOL d          68.537  37.202  29.466  0.00  0.00     0.063 H 
ATOM     29  H11 MOL d          69.915  37.206  28.313  0.00  0.00     0.063 H 
BRANCH  27  30
ATOM     30  C13 MOL d          69.059  39.134  28.699  0.00  0.00    -0.061 C 
ATOM     31  H12 MOL d          69.627  39.350  29.615  0.00  0.00     0.029 H 
ATOM     32  H13 MOL d          68.059  39.586  28.772  0.00  0.00     0.029 H 
ATOM     33  H14 MOL d          69.589  39.554  27.831  0.00  0.00     0.029 H 
ENDBRANCH  27  30
ENDBRANCH   3  27
TORSDOF 8
ENDMDL
MODEL 9
REMARK VINA RESULT:      -4.7      1.713      2.982
REMARK  8 active torsions:
REMARK  status: ('A' for Active; 'I' for Inactive)
REMARK    1  A    between atoms: C1_1  and  O7_7 
REMARK    2  A    between atoms: C2_2  and  O16_14 
REMARK    3  A    between atoms: C14_12  and  C4_4 
REMARK    4  A    between atoms: C10_9  and  C9_8 
REMARK    5  A    between atoms: N3_15  and  C10_9 
REMARK    6  A    between atoms: C12_10  and  C13_11 
REMARK    7  A    between atoms: N3_15  and  C12_10 
REMARK       I    between atoms: C14_12  and  N3_15 
REMARK    8  A    between atoms: O16_14  and  C15_16 
ROOT
ATOM      1  C14 MOL d          65.898  37.160  25.460  0.00  0.00     0.253 C 
ATOM      2  O15 MOL d          66.191  38.140  26.108  0.00  0.00    -0.267 OA
ATOM      3  N3  MOL d          65.320  37.234  24.225  0.00  0.00    -0.349 N 
ENDROOT
BRANCH   1   4
ATOM      4  C4  MOL d          66.116  35.803  26.038  0.00  0.00     0.035 A 
ATOM      5  C3  MOL d          65.027  34.970  26.251  0.00  0.00    -0.033 A 
ATOM      6  C2  MOL d          65.179  33.718  26.802  0.00  0.00     0.102 A 
ATOM      7  H1  MOL d          64.035  35.313  25.978  0.00  0.00     0.089 H 
ATOM      8  C1  MOL d          66.459  33.262  27.134  0.00  0.00     0.099 A 
ATOM      9  C6  MOL d          67.568  34.094  26.919  0.00  0.00    -0.047 A 
ATOM     10  C5  MOL d          67.397  35.354  26.375  0.00  0.00    -0.065 A 
ATOM     11  H3  MOL d          68.561  33.749  27.182  0.00  0.00     0.087 H 
ATOM     12  H2  MOL d          68.256  35.993  26.208  0.00  0.00     0.085 H 
BRANCH   6  13
ATOM     13  O16 MOL d          64.137  32.857  27.029  0.00  0.00    -0.353 OA
BRANCH  13  14
ATOM     14  C15 MOL d          63.389  33.026  28.262  0.00  0.00     0.010 C 
ATOM     15  H15 MOL d          64.088  33.183  29.096  0.00  0.00     0.066 H 
ATOM     16  H16 MOL d          62.787  32.125  28.452  0.00  0.00     0.066 H 
ATOM     17  H17 MOL d          62.725  33.899  28.171  0.00  0.00     0.066 H 
ENDBRANCH  13  14
ENDBRANCH   6  13
BRANCH   8  18
ATOM     18  O7  MOL d          66.612  32.010  27.651  0.00  0.00    -0.358 OA
ATOM     19  H4  MOL d          66.031  31.903  28.395  0.00  0.00     0.217 HD
ENDBRANCH   8  18
ENDBRANCH   1   4
BRANCH   3  20
ATOM     20  C10 MOL d          65.338  36.079  23.304  0.00  0.00    -0.005 C 
ATOM     21  H8  MOL d          65.884  36.363  22.393  0.00  0.00     0.063 H 
ATOM     22  H9  MOL d          65.857  35.243  23.797  0.00  0.00     0.063 H 
BRANCH  20  23
ATOM     23  C9  MOL d          63.948  35.627  22.918  0.00  0.00    -0.061 C 
ATOM     24  H5  MOL d          64.014  34.890  22.104  0.00  0.00     0.029 H 
ATOM     25  H6  MOL d          63.362  36.494  22.579  0.00  0.00     0.029 H 
ATOM     26  H7  MOL d          63.455  35.170  23.788  0.00  0.00     0.029 H 
ENDBRANCH  20  23
ENDBRANCH   3  20
BRANCH   3  27
ATOM     27  C12 MOL d          64.845  38.497  23.663  0.00  0.00    -0.005 C 
ATOM     28  H10 MOL d          63.759  38.430  23.504  0.00  0.00     0.063 H 
ATOM     29  H11 MOL d          65.063  39.308  24.374  0.00  0.00     0.063 H 
BRANCH  27  30
ATOM     30  C13 MOL d          65.516  38.812  22.338  0.00  0.00    -0.061 C 
ATOM     31  H12 MOL d          64.788  39.279  21.660  0.00  0.00     0.029 H 
ATOM     32  H13 MOL d          65.892  37.881  21.887  0.00  0.00     0.029 H 
ATOM     33  H14 MOL d          66.355  39.503  22.507  0.00  0.00     0.029 H 
ENDBRANCH  27  30
ENDBRANCH   3  27
TORSDOF 8
ENDMDL
MODEL 10
REMARK VINA RESULT:      -4.6      2.198      4.236
REMARK  8 active torsions:
REMARK  status: ('A' for Active; 'I' for Inactive)
REMARK    1  A    between atoms: C1_1  and  O7_7 
REMARK    2  A    between atoms: C2_2  and  O16_14 
REMARK    3  A    between atoms: C14_12  and  C4_4 
REMARK    4  A    between atoms: C10_9  and  C9_8 
REMARK    5  A    between atoms: N3_15  and  C10_9 
REMARK    6  A    between atoms: C12_10  and  C13_11 
REMARK    7  A    between atoms: N3_15  and  C12_10 
REMARK       I    between atoms: C14_12  and  N3_15 
REMARK    8  A    between atoms: O16_14  and  C15_16 
ROOT
ATOM      1  C14 MOL d          67.325  35.159  26.701  0.00  0.00     0.253 C 
ATOM      2  O15 MOL d          68.044  34.204  26.885  0.00  0.00    -0.267 OA
ATOM      3  N3  MOL d          67.695  36.436  27.012  0.00  0.00    -0.349 N 
ENDROOT
BRANCH   1   4
ATOM      4  C4  MOL d          65.948  34.953  26.167  0.00  0.00     0.035 A 
ATOM      5  C3  MOL d          65.672  35.283  24.848  0.00  0.00    -0.033 A 
ATOM      6  C2  MOL d          64.411  35.131  24.320  0.00  0.00     0.102 A 
ATOM      7  H1  MOL d          66.467  35.671  24.220  0.00  0.00     0.089 H 
ATOM      8  C1  MOL d          63.387  34.609  25.118  0.00  0.00     0.099 A 
ATOM      9  C6  MOL d          63.656  34.269  26.453  0.00  0.00    -0.047 A 
ATOM     10  C5  MOL d          64.926  34.438  26.972  0.00  0.00    -0.065 A 
ATOM     11  H3  MOL d          62.865  33.872  27.079  0.00  0.00     0.087 H 
ATOM     12  H2  MOL d          65.131  34.172  28.002  0.00  0.00     0.085 H 
BRANCH   6  13
ATOM     13  O16 MOL d          64.088  35.438  23.024  0.00  0.00    -0.353 OA
BRANCH  13  14
ATOM     14  C15 MOL d          64.543  36.718  22.509  0.00  0.00     0.010 C 
ATOM     15  H15 MOL d          65.232  37.179  23.232  0.00  0.00     0.066 H 
ATOM     16  H16 MOL d          63.678  37.379  22.355  0.00  0.00     0.066 H 
ATOM     17  H17 MOL d          65.063  36.565  21.552  0.00  0.00     0.066 H 
ENDBRANCH  13  14
ENDBRANCH   6  13
BRANCH   8  18
ATOM     18  O7  MOL d          62.146  34.429  24.586  0.00  0.00    -0.358 OA
ATOM     19  H4  MOL d          62.087  33.560  24.208  0.00  0.00     0.217 HD
ENDBRANCH   8  18
ENDBRANCH   1   4
BRANCH   3  20
ATOM     20  C10 MOL d          66.992  37.597  26.429  0.00  0.00    -0.005 C 
ATOM     21  H8  MOL d          65.975  37.288  26.146  0.00  0.00     0.063 H 
ATOM     22  H9  MOL d          66.937  38.393  27.186  0.00  0.00     0.063 H 
BRANCH  20  23
ATOM     23  C9  MOL d          67.693  38.140  25.203  0.00  0.00    -0.061 C 
ATOM     24  H5  MOL d          67.604  37.416  24.379  0.00  0.00     0.029 H 
ATOM     25  H6  MOL d          68.756  38.305  25.432  0.00  0.00     0.029 H 
ATOM     26  H7  MOL d          67.230  39.092  24.907  0.00  0.00     0.029 H 
ENDBRANCH  20  23
ENDBRANCH   3  20
BRANCH   3  27
ATOM     27  C12 MOL d          68.919  36.732  27.756  0.00  0.00    -0.005 C 
ATOM     28  H10 MOL d          69.096  35.927  28.484  0.00  0.00     0.063 H 
ATOM     29  H11 MOL d          69.762  36.782  27.051  0.00  0.00     0.063 H 
BRANCH  27  30
ATOM     30  C13 MOL d          68.820  38.053  28.499  0.00  0.00    -0.061 C 
ATOM     31  H12 MOL d          68.956  38.883  27.790  0.00  0.00     0.029 H 
ATOM     32  H13 MOL d          69.603  38.098  29.271  0.00  0.00     0.029 H 
ATOM     33  H14 MOL d          67.832  38.134  28.974  0.00  0.00     0.029 H 
ENDBRANCH  27  30
ENDBRANCH   3  27
TORSDOF 8
ENDMDL
