REMARK  11 active torsions:
REMARK  status: ('A' for Active; 'I' for Inactive)
REMARK    1  A    between atoms: C20_3  and  C36_4 
REMARK    2  A    between atoms: C16_8  and  C35_9 
REMARK    3  A    between atoms: C5_13  and  O36_14 
REMARK    4  A    between atoms: C8_19  and  C25_20 
REMARK    5  A    between atoms: C10_22  and  O26_23 
REMARK    6  A    between atoms: O26_23  and  C27_24 
REMARK    7  A    between atoms: C11_25  and  O28_26 
REMARK    8  A    between atoms: C12_27  and  C29_28 
REMARK    9  A    between atoms: C14_30  and  C30_31 
REMARK   10  A    between atoms: C15_32  and  O31_33 
REMARK   11  A    between atoms: O31_33  and  C32_34 
REMARK       I    between atoms: C32_34  and  N34_36 
ROOT
ATOM      1  O37 BC6 d          40.996  -5.279  41.757  0.00  0.00    -0.268 OA
ATOM      2  C21 BC6 d          41.002  -5.755  40.625  0.00  0.00     0.251 C 
ATOM      3  C20 BC6 d          41.418  -7.145  40.515  0.00  0.00     0.002 C 
ATOM      4  C19 BC6 d          40.564  -8.053  39.952  0.00  0.00    -0.092 C 
ATOM      5  C18 BC6 d          40.786  -9.519  39.760  0.00  0.00    -0.049 C 
ATOM      6  C17 BC6 d          40.028  -9.916  38.490  0.00  0.00    -0.057 C 
ATOM      7  C16 BC6 d          38.518 -10.061  38.660  0.00  0.00    -0.028 C 
ATOM      8  N22 BC6 d          40.643  -4.978  39.591  0.00  0.00    -0.323 N 
ATOM      9  C3  BC6 d          40.877  -5.232  38.261  0.00  0.00     0.038 A 
ATOM     10  C4  BC6 d          39.876  -4.922  37.356  0.00  0.00    -0.025 A 
ATOM     11  C5  BC6 d          40.043  -5.148  35.988  0.00  0.00     0.068 A 
ATOM     12  C6  BC6 d          41.224  -5.701  35.498  0.00  0.00    -0.045 A 
ATOM     13  C1  BC6 d          42.246  -6.033  36.413  0.00  0.00    -0.053 A 
ATOM     14  C2  BC6 d          42.069  -5.774  37.777  0.00  0.00    -0.051 A 
ATOM     15  C7  BC6 d          43.544  -6.674  35.966  0.00  0.00    -0.038 C 
ATOM     16  C8  BC6 d          43.459  -8.217  35.860  0.00  0.00    -0.051 C 
ATOM     17  C9  BC6 d          42.366  -8.663  34.846  0.00  0.00    -0.035 C 
ATOM     18  C10 BC6 d          42.131 -10.163  34.705  0.00  0.00     0.063 C 
ATOM     19  C11 BC6 d          41.099 -10.492  33.626  0.00  0.00     0.067 C 
ATOM     20  C12 BC6 d          39.742  -9.842  33.921  0.00  0.00    -0.014 C 
ATOM     21  C13 BC6 d          39.136 -10.387  35.210  0.00  0.00    -0.092 C 
ATOM     22  C14 BC6 d          38.398  -9.710  36.137  0.00  0.00    -0.058 C 
ATOM     23  C15 BC6 d          37.875 -10.497  37.318  0.00  0.00     0.074 C 
ATOM     24  H4  BC6 d          39.610  -7.662  39.602  0.00  0.00     0.077 H 
ATOM     25  H5  BC6 d          40.397 -10.078  40.624  0.00  0.00     0.038 H 
ATOM     26  H6  BC6 d          41.859  -9.728  39.642  0.00  0.00     0.038 H 
ATOM     27  H7  BC6 d          40.426 -10.880  38.142  0.00  0.00     0.034 H 
ATOM     28  H8  BC6 d          40.213  -9.146  37.727  0.00  0.00     0.034 H 
ATOM     29  H9  BC6 d          38.112  -9.076  38.934  0.00  0.00     0.043 H 
ATOM     30  H13 BC6 d          40.158  -4.131  39.810  0.00  0.00     0.169 HD
ATOM     31  H14 BC6 d          38.946  -4.496  37.716  0.00  0.00     0.091 H 
ATOM     32  H16 BC6 d          41.355  -5.873  34.436  0.00  0.00     0.088 H 
ATOM     33  H17 BC6 d          42.872  -5.998  38.470  0.00  0.00     0.087 H 
ATOM     34  H18 BC6 d          44.329  -6.416  36.692  0.00  0.00     0.040 H 
ATOM     35  H19 BC6 d          43.811  -6.270  34.978  0.00  0.00     0.040 H 
ATOM     36  H20 BC6 d          44.424  -8.553  35.454  0.00  0.00     0.040 H 
ATOM     37  H24 BC6 d          42.652  -8.276  33.857  0.00  0.00     0.037 H 
ATOM     38  H25 BC6 d          41.416  -8.205  35.158  0.00  0.00     0.037 H 
ATOM     39  H26 BC6 d          41.768 -10.547  35.670  0.00  0.00     0.087 H 
ATOM     40  H30 BC6 d          40.962 -11.582  33.564  0.00  0.00     0.087 H 
ATOM     41  H32 BC6 d          39.845  -8.748  33.971  0.00  0.00     0.049 H 
ATOM     42  H36 BC6 d          39.313 -11.442  35.415  0.00  0.00     0.078 H 
ATOM     43  H40 BC6 d          38.051 -11.570  37.152  0.00  0.00     0.092 H 
ENDROOT
BRANCH  23  44
ATOM     44  O31 BC6 d          36.486 -10.225  37.433  0.00  0.00    -0.294 OA
BRANCH  44  45
ATOM     45  C32 BC6 d          35.590 -11.043  36.665  0.00  0.00     0.358 C 
ATOM     46  O33 BC6 d          36.062 -11.894  35.929  0.00  0.00    -0.239 OA
ATOM     47  N34 BC6 d          34.308 -10.774  36.857  0.00  0.00    -0.346 N 
ATOM     48  H41 BC6 d          33.609 -11.293  36.365  0.00  0.00     0.161 HD
ATOM     49  H42 BC6 d          34.039 -10.052  37.494  0.00  0.00     0.161 HD
ENDBRANCH  44  45
ENDBRANCH  23  44
BRANCH   7  50
ATOM     50  C35 BC6 d          38.150 -11.051  39.778  0.00  0.00    -0.070 C 
ATOM     51  H10 BC6 d          37.055 -11.120  39.861  0.00  0.00     0.028 H 
ATOM     52  H11 BC6 d          38.568 -10.698  40.732  0.00  0.00     0.028 H 
ATOM     53  H12 BC6 d          38.563 -12.042  39.541  0.00  0.00     0.028 H 
ENDBRANCH   7  50
BRANCH  22  54
ATOM     54  C30 BC6 d          38.046  -8.249  36.016  0.00  0.00    -0.052 C 
ATOM     55  H37 BC6 d          38.505  -7.835  35.106  0.00  0.00     0.033 H 
ATOM     56  H38 BC6 d          38.423  -7.707  36.896  0.00  0.00     0.033 H 
ATOM     57  H39 BC6 d          36.953  -8.139  35.958  0.00  0.00     0.033 H 
ENDBRANCH  22  54
BRANCH  20  58
ATOM     58  C29 BC6 d          38.782 -10.265  32.814  0.00  0.00    -0.067 C 
ATOM     59  H33 BC6 d          37.794  -9.815  32.994  0.00  0.00     0.028 H 
ATOM     60  H34 BC6 d          38.690 -11.361  32.807  0.00  0.00     0.028 H 
ATOM     61  H35 BC6 d          39.169  -9.924  31.843  0.00  0.00     0.028 H 
ENDBRANCH  20  58
BRANCH  19  62
ATOM     62  O28 BC6 d          41.647  -9.995  32.385  0.00  0.00    -0.392 OA
ATOM     63  H31 BC6 d          42.475 -10.426  32.211  0.00  0.00     0.210 HD
ENDBRANCH  19  62
BRANCH   3  64
ATOM     64  C36 BC6 d          42.747  -7.508  41.109  0.00  0.00    -0.046 C 
ATOM     65  H1  BC6 d          42.936  -8.581  40.957  0.00  0.00     0.033 H 
ATOM     66  H2  BC6 d          42.740  -7.286  42.186  0.00  0.00     0.033 H 
ATOM     67  H3  BC6 d          43.539  -6.923  40.619  0.00  0.00     0.033 H 
ENDBRANCH   3  64
BRANCH  18  68
ATOM     68  O26 BC6 d          43.361 -10.836  34.361  0.00  0.00    -0.388 OA
BRANCH  68  69
ATOM     69  C27 BC6 d          43.382 -12.207  34.692  0.00  0.00     0.005 C 
ATOM     70  H27 BC6 d          44.349 -12.640  34.398  0.00  0.00     0.066 H 
ATOM     71  H28 BC6 d          42.571 -12.725  34.160  0.00  0.00     0.066 H 
ATOM     72  H29 BC6 d          43.242 -12.325  35.777  0.00  0.00     0.066 H 
ENDBRANCH  68  69
ENDBRANCH  18  68
BRANCH  16  73
ATOM     73  C25 BC6 d          43.291  -8.920  37.219  0.00  0.00    -0.073 C 
ATOM     74  H21 BC6 d          43.238 -10.008  37.065  0.00  0.00     0.028 H 
ATOM     75  H22 BC6 d          42.365  -8.572  37.700  0.00  0.00     0.028 H 
ATOM     76  H23 BC6 d          44.150  -8.682  37.864  0.00  0.00     0.028 H 
ENDBRANCH  16  73
BRANCH  11  77
ATOM     77  O36 BC6 d          38.992  -4.863  35.163  0.00  0.00    -0.361 OA
ATOM     78  H15 BC6 d          39.233  -5.059  34.265  0.00  0.00     0.217 HD
ENDBRANCH  11  77
TORSDOF 11
