MODEL 1
REMARK VINA RESULT:      -8.8      0.000      0.000
REMARK  11 active torsions:
REMARK  status: ('A' for Active; 'I' for Inactive)
REMARK    1  A    between atoms: C20_3  and  C36_4 
REMARK    2  A    between atoms: C16_8  and  C35_9 
REMARK    3  A    between atoms: C5_13  and  O36_14 
REMARK    4  A    between atoms: C8_19  and  C25_20 
REMARK    5  A    between atoms: C10_22  and  O26_23 
REMARK    6  A    between atoms: O26_23  and  C27_24 
REMARK    7  A    between atoms: C11_25  and  O28_26 
REMARK    8  A    between atoms: C12_27  and  C29_28 
REMARK    9  A    between atoms: C14_30  and  C30_31 
REMARK   10  A    between atoms: C15_32  and  O31_33 
REMARK   11  A    between atoms: O31_33  and  C32_34 
REMARK       I    between atoms: C32_34  and  N34_36 
ROOT
ATOM      1  O37 BC6 d          41.344  -5.557  41.890  0.00  0.00    -0.268 OA
ATOM      2  C21 BC6 d          41.295  -6.000  40.745  0.00  0.00     0.251 C 
ATOM      3  C20 BC6 d          41.763  -7.366  40.566  0.00  0.00     0.002 C 
ATOM      4  C19 BC6 d          40.914  -8.296  40.032  0.00  0.00    -0.092 C 
ATOM      5  C18 BC6 d          41.186  -9.745  39.781  0.00  0.00    -0.049 C 
ATOM      6  C17 BC6 d          40.363 -10.141  38.552  0.00  0.00    -0.057 C 
ATOM      7  C16 BC6 d          38.875 -10.359  38.816  0.00  0.00    -0.028 C 
ATOM      8  N22 BC6 d          40.834  -5.212  39.762  0.00  0.00    -0.323 N 
ATOM      9  C3  BC6 d          40.989  -5.418  38.412  0.00  0.00     0.038 A 
ATOM     10  C4  BC6 d          39.917  -5.129  37.585  0.00  0.00    -0.025 A 
ATOM     11  C5  BC6 d          40.002  -5.309  36.202  0.00  0.00     0.068 A 
ATOM     12  C6  BC6 d          41.170  -5.794  35.619  0.00  0.00    -0.045 A 
ATOM     13  C1  BC6 d          42.265  -6.104  36.454  0.00  0.00    -0.053 A 
ATOM     14  C2  BC6 d          42.168  -5.891  37.834  0.00  0.00    -0.051 A 
ATOM     15  C7  BC6 d          43.557  -6.672  35.904  0.00  0.00    -0.038 C 
ATOM     16  C8  BC6 d          43.532  -8.214  35.756  0.00  0.00    -0.051 C 
ATOM     17  C9  BC6 d          42.394  -8.681  34.803  0.00  0.00    -0.035 C 
ATOM     18  C10 BC6 d          42.216 -10.186  34.631  0.00  0.00     0.063 C 
ATOM     19  C11 BC6 d          41.130 -10.531  33.613  0.00  0.00     0.067 C 
ATOM     20  C12 BC6 d          39.769  -9.953  34.016  0.00  0.00    -0.014 C 
ATOM     21  C13 BC6 d          39.275 -10.560  35.325  0.00  0.00    -0.092 C 
ATOM     22  C14 BC6 d          38.571  -9.944  36.318  0.00  0.00    -0.058 C 
ATOM     23  C15 BC6 d          38.164 -10.787  37.506  0.00  0.00     0.074 C 
ATOM     24  H4  BC6 d          39.922  -7.940  39.758  0.00  0.00     0.077 H 
ATOM     25  H5  BC6 d          40.881 -10.345  40.651  0.00  0.00     0.038 H 
ATOM     26  H6  BC6 d          42.257  -9.901  39.586  0.00  0.00     0.038 H 
ATOM     27  H7  BC6 d          40.778 -11.075  38.149  0.00  0.00     0.034 H 
ATOM     28  H8  BC6 d          40.462  -9.342  37.802  0.00  0.00     0.034 H 
ATOM     29  H9  BC6 d          38.446  -9.402  39.146  0.00  0.00     0.043 H 
ATOM     30  H13 BC6 d          40.328  -4.395  40.038  0.00  0.00     0.169 HD
ATOM     31  H14 BC6 d          38.995  -4.756  38.018  0.00  0.00     0.091 H 
ATOM     32  H16 BC6 d          41.237  -5.930  34.546  0.00  0.00     0.088 H 
ATOM     33  H17 BC6 d          43.025  -6.098  38.466  0.00  0.00     0.087 H 
ATOM     34  H18 BC6 d          44.377  -6.399  36.584  0.00  0.00     0.040 H 
ATOM     35  H19 BC6 d          43.739  -6.229  34.913  0.00  0.00     0.040 H 
ATOM     36  H20 BC6 d          44.482  -8.494  35.277  0.00  0.00     0.040 H 
ATOM     37  H24 BC6 d          42.596  -8.254  33.809  0.00  0.00     0.037 H 
ATOM     38  H25 BC6 d          41.448  -8.276  35.190  0.00  0.00     0.037 H 
ATOM     39  H26 BC6 d          41.936 -10.613  35.606  0.00  0.00     0.087 H 
ATOM     40  H30 BC6 d          41.037 -11.624  33.526  0.00  0.00     0.087 H 
ATOM     41  H32 BC6 d          39.827  -8.857  34.093  0.00  0.00     0.049 H 
ATOM     42  H36 BC6 d          39.511 -11.611  35.485  0.00  0.00     0.078 H 
ATOM     43  H40 BC6 d          38.375 -11.845  37.296  0.00  0.00     0.092 H 
ENDROOT
BRANCH  23  44
ATOM     44  O31 BC6 d          36.775 -10.582  37.721  0.00  0.00    -0.294 OA
BRANCH  44  45
ATOM     45  C32 BC6 d          35.873 -11.113  36.738  0.00  0.00     0.358 C 
ATOM     46  O33 BC6 d          36.001 -12.277  36.397  0.00  0.00    -0.239 OA
ATOM     47  N34 BC6 d          34.968 -10.248  36.306  0.00  0.00    -0.346 N 
ATOM     48  H41 BC6 d          34.296 -10.528  35.621  0.00  0.00     0.161 HD
ATOM     49  H42 BC6 d          34.957  -9.315  36.666  0.00  0.00     0.161 HD
ENDBRANCH  44  45
ENDBRANCH  23  44
BRANCH   7  50
ATOM     50  C35 BC6 d          38.627 -11.396  39.925  0.00  0.00    -0.070 C 
ATOM     51  H10 BC6 d          39.581 -11.649  40.411  0.00  0.00     0.028 H 
ATOM     52  H11 BC6 d          38.187 -12.303  39.486  0.00  0.00     0.028 H 
ATOM     53  H12 BC6 d          37.935 -10.977  40.670  0.00  0.00     0.028 H 
ENDBRANCH   7  50
BRANCH  22  54
ATOM     54  C30 BC6 d          38.149  -8.498  36.266  0.00  0.00    -0.052 C 
ATOM     55  H37 BC6 d          38.196  -8.064  37.276  0.00  0.00     0.033 H 
ATOM     56  H38 BC6 d          37.118  -8.431  35.886  0.00  0.00     0.033 H 
ATOM     57  H39 BC6 d          38.823  -7.943  35.597  0.00  0.00     0.033 H 
ENDBRANCH  22  54
BRANCH  20  58
ATOM     58  C29 BC6 d          38.756 -10.388  32.962  0.00  0.00    -0.067 C 
ATOM     59  H33 BC6 d          38.918  -9.812  32.038  0.00  0.00     0.028 H 
ATOM     60  H34 BC6 d          37.737 -10.206  33.334  0.00  0.00     0.028 H 
ATOM     61  H35 BC6 d          38.883 -11.460  32.752  0.00  0.00     0.028 H 
ENDBRANCH  20  58
BRANCH  19  62
ATOM     62  O28 BC6 d          41.571  -9.976  32.354  0.00  0.00    -0.392 OA
ATOM     63  H31 BC6 d          41.385  -9.045  32.338  0.00  0.00     0.210 HD
ENDBRANCH  19  62
BRANCH   3  64
ATOM     64  C36 BC6 d          43.143  -7.685  41.060  0.00  0.00    -0.046 C 
ATOM     65  H1  BC6 d          43.702  -8.212  40.272  0.00  0.00     0.033 H 
ATOM     66  H2  BC6 d          43.075  -8.324  41.951  0.00  0.00     0.033 H 
ATOM     67  H3  BC6 d          43.664  -6.751  41.317  0.00  0.00     0.033 H 
ENDBRANCH   3  64
BRANCH  18  68
ATOM     68  O26 BC6 d          43.449 -10.792  34.187  0.00  0.00    -0.388 OA
BRANCH  68  69
ATOM     69  C27 BC6 d          43.569 -12.160  34.507  0.00  0.00     0.005 C 
ATOM     70  H27 BC6 d          42.712 -12.469  35.124  0.00  0.00     0.066 H 
ATOM     71  H28 BC6 d          44.501 -12.326  35.066  0.00  0.00     0.066 H 
ATOM     72  H29 BC6 d          43.587 -12.754  33.581  0.00  0.00     0.066 H 
ENDBRANCH  68  69
ENDBRANCH  18  68
BRANCH  16  73
ATOM     73  C25 BC6 d          43.487  -8.962  37.101  0.00  0.00    -0.073 C 
ATOM     74  H21 BC6 d          44.298  -9.703  37.136  0.00  0.00     0.028 H 
ATOM     75  H22 BC6 d          42.518  -9.473  37.204  0.00  0.00     0.028 H 
ATOM     76  H23 BC6 d          43.610  -8.243  37.924  0.00  0.00     0.028 H 
ENDBRANCH  16  73
BRANCH  11  77
ATOM     77  O36 BC6 d          38.886  -5.050  35.457  0.00  0.00    -0.361 OA
ATOM     78  H15 BC6 d          38.332  -5.821  35.439  0.00  0.00     0.217 HD
ENDBRANCH  11  77
TORSDOF 11
ENDMDL
