MODEL 1
REMARK VINA RESULT:      -6.6      0.000      0.000
REMARK  6 active torsions:
REMARK  status: ('A' for Active; 'I' for Inactive)
REMARK    1  A    between atoms: C1_1  and  O1_7 
REMARK    2  A    between atoms: C2_2  and  O2_8 
REMARK    3  A    between atoms: C3_3  and  O3_9 
REMARK    4  A    between atoms: C4_4  and  O4_10 
REMARK    5  A    between atoms: C5_5  and  C6_6 
REMARK    6  A    between atoms: O1_7  and  CM_12 
ROOT
ATOM      1  C1  MFU d         -40.053  20.472  11.010  0.00  0.00     0.158 C 
ATOM      2  C2  MFU d         -38.669  19.931  11.213  0.00  0.00     0.110 C 
ATOM      3  C3  MFU d         -38.156  20.305  12.618  0.00  0.00     0.092 C 
ATOM      4  C4  MFU d         -39.101  19.935  13.755  0.00  0.00     0.087 C 
ATOM      5  C5  MFU d         -40.455  20.550  13.441  0.00  0.00     0.065 C 
ATOM      6  O5  MFU d         -40.892  20.077  12.138  0.00  0.00    -0.351 OA
ATOM      7  H1  MFU d         -40.475  20.076  10.075  0.00  0.00     0.133 H 
ATOM      8  H2  MFU d         -38.726  18.835  11.145  0.00  0.00     0.094 H 
ATOM      9  H3  MFU d         -37.981  21.391  12.651  0.00  0.00     0.091 H 
ATOM     10  H4  MFU d         -38.731  20.349  14.704  0.00  0.00     0.091 H 
ATOM     11  H5  MFU d         -40.309  21.637  13.358  0.00  0.00     0.086 H 
ENDROOT
BRANCH   1  12
ATOM     12  O1  MFU d         -39.989  21.913  10.948  0.00  0.00    -0.363 OA
BRANCH  12  13
ATOM     13  CM  MFU d         -41.053  22.401  10.080  0.00  0.00     0.007 C 
ATOM     14  H12 MFU d         -41.371  21.596   9.401  0.00  0.00     0.066 H 
ATOM     15  H13 MFU d         -40.685  23.254   9.491  0.00  0.00     0.066 H 
ATOM     16  H14 MFU d         -41.909  22.722  10.694  0.00  0.00     0.066 H 
ENDBRANCH  12  13
ENDBRANCH   1  12
BRANCH   2  17
ATOM     17  O2  MFU d         -37.721  20.391  10.212  0.00  0.00    -0.388 OA
ATOM     18  H9  MFU d         -37.412  21.258  10.445  0.00  0.00     0.210 HD
ENDBRANCH   2  17
BRANCH   3  19
ATOM     19  O3  MFU d         -36.910  19.602  12.811  0.00  0.00    -0.390 OA
ATOM     20  H10 MFU d         -36.601  19.744  13.698  0.00  0.00     0.210 HD
ENDBRANCH   3  19
BRANCH   5  21
ATOM     21  C6  MFU d         -41.489  20.338  14.567  0.00  0.00    -0.050 C 
ATOM     22  H6  MFU d         -41.597  19.262  14.767  0.00  0.00     0.031 H 
ATOM     23  H7  MFU d         -42.459  20.754  14.258  0.00  0.00     0.031 H 
ATOM     24  H8  MFU d         -41.146  20.847  15.481  0.00  0.00     0.031 H 
ENDBRANCH   5  21
BRANCH   4  25
ATOM     25  O4  MFU d         -39.135  18.493  13.853  0.00  0.00    -0.390 OA
ATOM     26  H11 MFU d         -40.027  18.189  13.733  0.00  0.00     0.210 HD
ENDBRANCH   4  25
TORSDOF 6
ENDMDL
MODEL 2
REMARK VINA RESULT:      -5.1      1.714      3.422
REMARK  6 active torsions:
REMARK  status: ('A' for Active; 'I' for Inactive)
REMARK    1  A    between atoms: C1_1  and  O1_7 
REMARK    2  A    between atoms: C2_2  and  O2_8 
REMARK    3  A    between atoms: C3_3  and  O3_9 
REMARK    4  A    between atoms: C4_4  and  O4_10 
REMARK    5  A    between atoms: C5_5  and  C6_6 
REMARK    6  A    between atoms: O1_7  and  CM_12 
ROOT
ATOM      1  C1  MFU d         -39.914  21.920  13.688  0.00  0.00     0.158 C 
ATOM      2  C2  MFU d         -39.660  20.568  14.286  0.00  0.00     0.110 C 
ATOM      3  C3  MFU d         -39.480  19.521  13.170  0.00  0.00     0.092 C 
ATOM      4  C4  MFU d         -38.447  19.896  12.113  0.00  0.00     0.087 C 
ATOM      5  C5  MFU d         -38.820  21.268  11.577  0.00  0.00     0.065 C 
ATOM      6  O5  MFU d         -38.887  22.202  12.689  0.00  0.00    -0.351 OA
ATOM      7  H1  MFU d         -39.888  22.687  14.476  0.00  0.00     0.133 H 
ATOM      8  H2  MFU d         -38.725  20.628  14.861  0.00  0.00     0.094 H 
ATOM      9  H3  MFU d         -40.448  19.369  12.670  0.00  0.00     0.091 H 
ATOM     10  H4  MFU d         -38.471  19.170  11.287  0.00  0.00     0.091 H 
ATOM     11  H5  MFU d         -39.835  21.191  11.159  0.00  0.00     0.086 H 
ENDROOT
BRANCH   1  12
ATOM     12  O1  MFU d         -41.209  21.915  13.050  0.00  0.00    -0.363 OA
BRANCH  12  13
ATOM     13  CM  MFU d         -41.968  23.075  13.501  0.00  0.00     0.007 C 
ATOM     14  H12 MFU d         -41.556  23.433  14.457  0.00  0.00     0.066 H 
ATOM     15  H13 MFU d         -43.022  22.792  13.640  0.00  0.00     0.066 H 
ATOM     16  H14 MFU d         -41.898  23.874  12.749  0.00  0.00     0.066 H 
ENDBRANCH  12  13
ENDBRANCH   1  12
BRANCH   2  17
ATOM     17  O2  MFU d         -40.712  20.136  15.192  0.00  0.00    -0.388 OA
ATOM     18  H9  MFU d         -40.783  19.189  15.164  0.00  0.00     0.210 HD
ENDBRANCH   2  17
BRANCH   3  19
ATOM     19  O3  MFU d         -39.060  18.296  13.807  0.00  0.00    -0.390 OA
ATOM     20  H10 MFU d         -39.463  17.557  13.367  0.00  0.00     0.210 HD
ENDBRANCH   3  19
BRANCH   5  21
ATOM     21  C6  MFU d         -37.910  21.731  10.419  0.00  0.00    -0.050 C 
ATOM     22  H6  MFU d         -36.863  21.733  10.755  0.00  0.00     0.031 H 
ATOM     23  H7  MFU d         -38.199  22.746  10.109  0.00  0.00     0.031 H 
ATOM     24  H8  MFU d         -38.021  21.043   9.568  0.00  0.00     0.031 H 
ENDBRANCH   5  21
BRANCH   4  25
ATOM     25  O4  MFU d         -37.142  19.858  12.734  0.00  0.00    -0.390 OA
ATOM     26  H11 MFU d         -36.539  20.395  12.233  0.00  0.00     0.210 HD
ENDBRANCH   4  25
TORSDOF 6
ENDMDL
MODEL 3
REMARK VINA RESULT:      -5.1      1.221      3.452
REMARK  6 active torsions:
REMARK  status: ('A' for Active; 'I' for Inactive)
REMARK    1  A    between atoms: C1_1  and  O1_7 
REMARK    2  A    between atoms: C2_2  and  O2_8 
REMARK    3  A    between atoms: C3_3  and  O3_9 
REMARK    4  A    between atoms: C4_4  and  O4_10 
REMARK    5  A    between atoms: C5_5  and  C6_6 
REMARK    6  A    between atoms: O1_7  and  CM_12 
ROOT
ATOM      1  C1  MFU d         -39.219  21.106  13.207  0.00  0.00     0.158 C 
ATOM      2  C2  MFU d         -38.041  20.828  12.323  0.00  0.00     0.110 C 
ATOM      3  C3  MFU d         -38.504  20.645  10.865  0.00  0.00     0.092 C 
ATOM      4  C4  MFU d         -39.379  21.774  10.334  0.00  0.00     0.087 C 
ATOM      5  C5  MFU d         -40.539  21.947  11.301  0.00  0.00     0.065 C 
ATOM      6  O5  MFU d         -40.004  22.195  12.630  0.00  0.00    -0.351 OA
ATOM      7  H1  MFU d         -38.874  21.388  14.212  0.00  0.00     0.133 H 
ATOM      8  H2  MFU d         -37.375  21.703  12.369  0.00  0.00     0.094 H 
ATOM      9  H3  MFU d         -39.069  19.704  10.791  0.00  0.00     0.091 H 
ATOM     10  H4  MFU d         -39.777  21.511   9.343  0.00  0.00     0.091 H 
ATOM     11  H5  MFU d         -41.076  20.988  11.343  0.00  0.00     0.086 H 
ENDROOT
BRANCH   1  12
ATOM     12  O1  MFU d         -40.038  19.920  13.284  0.00  0.00    -0.363 OA
BRANCH  12  13
ATOM     13  CM  MFU d         -40.953  20.044  14.412  0.00  0.00     0.007 C 
ATOM     14  H12 MFU d         -41.763  19.306  14.310  0.00  0.00     0.066 H 
ATOM     15  H13 MFU d         -41.381  21.058  14.427  0.00  0.00     0.066 H 
ATOM     16  H14 MFU d         -40.407  19.862  15.350  0.00  0.00     0.066 H 
ENDBRANCH  12  13
ENDBRANCH   1  12
BRANCH   2  17
ATOM     17  O2  MFU d         -37.274  19.665  12.738  0.00  0.00    -0.388 OA
ATOM     18  H9  MFU d         -36.536  19.945  13.266  0.00  0.00     0.210 HD
ENDBRANCH   2  17
BRANCH   3  19
ATOM     19  O3  MFU d         -37.314  20.567  10.052  0.00  0.00    -0.390 OA
ATOM     20  H10 MFU d         -36.598  21.002  10.498  0.00  0.00     0.210 HD
ENDBRANCH   3  19
BRANCH   5  21
ATOM     21  C6  MFU d         -41.566  22.997  10.830  0.00  0.00    -0.050 C 
ATOM     22  H6  MFU d         -41.037  23.872  10.425  0.00  0.00     0.031 H 
ATOM     23  H7  MFU d         -42.191  23.307  11.681  0.00  0.00     0.031 H 
ATOM     24  H8  MFU d         -42.205  22.561  10.047  0.00  0.00     0.031 H 
ENDBRANCH   5  21
BRANCH   4  25
ATOM     25  O4  MFU d         -38.555  22.955  10.210  0.00  0.00    -0.390 OA
ATOM     26  H11 MFU d         -37.798  22.873  10.780  0.00  0.00     0.210 HD
ENDBRANCH   4  25
TORSDOF 6
ENDMDL
MODEL 4
REMARK VINA RESULT:      -4.9      1.255      3.415
REMARK  6 active torsions:
REMARK  status: ('A' for Active; 'I' for Inactive)
REMARK    1  A    between atoms: C1_1  and  O1_7 
REMARK    2  A    between atoms: C2_2  and  O2_8 
REMARK    3  A    between atoms: C3_3  and  O3_9 
REMARK    4  A    between atoms: C4_4  and  O4_10 
REMARK    5  A    between atoms: C5_5  and  C6_6 
REMARK    6  A    between atoms: O1_7  and  CM_12 
ROOT
ATOM      1  C1  MFU d         -39.921  21.789  13.509  0.00  0.00     0.158 C 
ATOM      2  C2  MFU d         -38.619  21.065  13.682  0.00  0.00     0.110 C 
ATOM      3  C3  MFU d         -38.425  20.045  12.544  0.00  0.00     0.092 C 
ATOM      4  C4  MFU d         -38.591  20.622  11.143  0.00  0.00     0.087 C 
ATOM      5  C5  MFU d         -39.945  21.310  11.090  0.00  0.00     0.065 C 
ATOM      6  O5  MFU d         -40.003  22.308  12.146  0.00  0.00    -0.351 OA
ATOM      7  H1  MFU d         -39.986  22.618  14.228  0.00  0.00     0.133 H 
ATOM      8  H2  MFU d         -37.813  21.811  13.622  0.00  0.00     0.094 H 
ATOM      9  H3  MFU d         -39.154  19.231  12.673  0.00  0.00     0.091 H 
ATOM     10  H4  MFU d         -38.571  19.814  10.396  0.00  0.00     0.091 H 
ATOM     11  H5  MFU d         -40.707  20.551  11.321  0.00  0.00     0.086 H 
ENDROOT
BRANCH   1  12
ATOM     12  O1  MFU d         -41.006  20.862  13.730  0.00  0.00    -0.363 OA
BRANCH  12  13
ATOM     13  CM  MFU d         -41.903  21.409  14.740  0.00  0.00     0.007 C 
ATOM     14  H12 MFU d         -42.918  21.016  14.580  0.00  0.00     0.066 H 
ATOM     15  H13 MFU d         -41.918  22.506  14.662  0.00  0.00     0.066 H 
ATOM     16  H14 MFU d         -41.550  21.117  15.740  0.00  0.00     0.066 H 
ENDBRANCH  12  13
ENDBRANCH   1  12
BRANCH   2  17
ATOM     17  O2  MFU d         -38.505  20.390  14.964  0.00  0.00    -0.388 OA
ATOM     18  H9  MFU d         -37.611  20.093  15.086  0.00  0.00     0.210 HD
ENDBRANCH   2  17
BRANCH   3  19
ATOM     19  O3  MFU d         -37.084  19.525  12.669  0.00  0.00    -0.390 OA
ATOM     20  H10 MFU d         -37.001  18.735  12.149  0.00  0.00     0.210 HD
ENDBRANCH   3  19
BRANCH   5  21
ATOM     21  C6  MFU d         -40.290  21.856   9.688  0.00  0.00    -0.050 C 
ATOM     22  H6  MFU d         -40.628  21.030   9.046  0.00  0.00     0.031 H 
ATOM     23  H7  MFU d         -39.397  22.323   9.247  0.00  0.00     0.031 H 
ATOM     24  H8  MFU d         -41.091  22.606   9.773  0.00  0.00     0.031 H 
ENDBRANCH   5  21
BRANCH   4  25
ATOM     25  O4  MFU d         -37.483  21.517  10.897  0.00  0.00    -0.390 OA
ATOM     26  H11 MFU d         -37.462  21.748   9.975  0.00  0.00     0.210 HD
ENDBRANCH   4  25
TORSDOF 6
ENDMDL
MODEL 5
REMARK VINA RESULT:      -4.6      1.464      1.653
REMARK  6 active torsions:
REMARK  status: ('A' for Active; 'I' for Inactive)
REMARK    1  A    between atoms: C1_1  and  O1_7 
REMARK    2  A    between atoms: C2_2  and  O2_8 
REMARK    3  A    between atoms: C3_3  and  O3_9 
REMARK    4  A    between atoms: C4_4  and  O4_10 
REMARK    5  A    between atoms: C5_5  and  C6_6 
REMARK    6  A    between atoms: O1_7  and  CM_12 
ROOT
ATOM      1  C1  MFU d         -40.305  21.327  11.560  0.00  0.00     0.158 C 
ATOM      2  C2  MFU d         -39.626  20.047  11.945  0.00  0.00     0.110 C 
ATOM      3  C3  MFU d         -39.143  20.124  13.406  0.00  0.00     0.092 C 
ATOM      4  C4  MFU d         -40.216  20.540  14.405  0.00  0.00     0.087 C 
ATOM      5  C5  MFU d         -40.814  21.848  13.915  0.00  0.00     0.065 C 
ATOM      6  O5  MFU d         -41.314  21.655  12.564  0.00  0.00    -0.351 OA
ATOM      7  H1  MFU d         -40.782  21.215  10.575  0.00  0.00     0.133 H 
ATOM      8  H2  MFU d         -40.368  19.239  11.866  0.00  0.00     0.094 H 
ATOM      9  H3  MFU d         -38.315  20.845  13.466  0.00  0.00     0.091 H 
ATOM     10  H4  MFU d         -39.768  20.700  15.397  0.00  0.00     0.091 H 
ATOM     11  H5  MFU d         -39.994  22.580  13.855  0.00  0.00     0.086 H 
ENDROOT
BRANCH   1  12
ATOM     12  O1  MFU d         -39.322  22.384  11.510  0.00  0.00    -0.363 OA
BRANCH  12  13
ATOM     13  CM  MFU d         -39.082  22.747  10.120  0.00  0.00     0.007 C 
ATOM     14  H12 MFU d         -39.202  23.834   9.999  0.00  0.00     0.066 H 
ATOM     15  H13 MFU d         -39.802  22.224   9.474  0.00  0.00     0.066 H 
ATOM     16  H14 MFU d         -38.058  22.458   9.837  0.00  0.00     0.066 H 
ENDBRANCH  12  13
ENDBRANCH   1  12
BRANCH   2  17
ATOM     17  O2  MFU d         -38.507  19.709  11.081  0.00  0.00    -0.388 OA
ATOM     18  H9  MFU d         -38.799  19.696  10.177  0.00  0.00     0.210 HD
ENDBRANCH   2  17
BRANCH   3  19
ATOM     19  O3  MFU d         -38.671  18.807  13.763  0.00  0.00    -0.390 OA
ATOM     20  H10 MFU d         -38.300  18.830  14.636  0.00  0.00     0.210 HD
ENDBRANCH   3  19
BRANCH   5  21
ATOM     21  C6  MFU d         -41.852  22.441  14.892  0.00  0.00    -0.050 C 
ATOM     22  H6  MFU d         -42.632  22.967  14.322  0.00  0.00     0.031 H 
ATOM     23  H7  MFU d         -41.353  23.148  15.572  0.00  0.00     0.031 H 
ATOM     24  H8  MFU d         -42.309  21.630  15.478  0.00  0.00     0.031 H 
ENDBRANCH   5  21
BRANCH   4  25
ATOM     25  O4  MFU d         -41.181  19.466  14.494  0.00  0.00    -0.390 OA
ATOM     26  H11 MFU d         -42.009  19.811  14.808  0.00  0.00     0.210 HD
ENDBRANCH   4  25
TORSDOF 6
ENDMDL
MODEL 6
REMARK VINA RESULT:      -4.4      1.387      1.873
REMARK  6 active torsions:
REMARK  status: ('A' for Active; 'I' for Inactive)
REMARK    1  A    between atoms: C1_1  and  O1_7 
REMARK    2  A    between atoms: C2_2  and  O2_8 
REMARK    3  A    between atoms: C3_3  and  O3_9 
REMARK    4  A    between atoms: C4_4  and  O4_10 
REMARK    5  A    between atoms: C5_5  and  C6_6 
REMARK    6  A    between atoms: O1_7  and  CM_12 
ROOT
ATOM      1  C1  MFU d         -40.945  21.227  11.708  0.00  0.00     0.158 C 
ATOM      2  C2  MFU d         -39.943  20.680  10.736  0.00  0.00     0.110 C 
ATOM      3  C3  MFU d         -38.516  21.053  11.181  0.00  0.00     0.092 C 
ATOM      4  C4  MFU d         -38.189  20.689  12.624  0.00  0.00     0.087 C 
ATOM      5  C5  MFU d         -39.261  21.311  13.505  0.00  0.00     0.065 C 
ATOM      6  O5  MFU d         -40.561  20.838  13.062  0.00  0.00    -0.351 OA
ATOM      7  H1  MFU d         -41.945  20.833  11.475  0.00  0.00     0.133 H 
ATOM      8  H2  MFU d         -40.035  19.584  10.744  0.00  0.00     0.094 H 
ATOM      9  H3  MFU d         -38.381  22.138  11.057  0.00  0.00     0.091 H 
ATOM     10  H4  MFU d         -37.210  21.103  12.906  0.00  0.00     0.091 H 
ATOM     11  H5  MFU d         -39.235  22.397  13.334  0.00  0.00     0.086 H 
ENDROOT
BRANCH   1  12
ATOM     12  O1  MFU d         -40.953  22.668  11.612  0.00  0.00    -0.363 OA
BRANCH  12  13
ATOM     13  CM  MFU d         -42.186  23.097  10.963  0.00  0.00     0.007 C 
ATOM     14  H12 MFU d         -42.971  23.235  11.721  0.00  0.00     0.066 H 
ATOM     15  H13 MFU d         -42.505  22.332  10.240  0.00  0.00     0.066 H 
ATOM     16  H14 MFU d         -42.012  24.048  10.437  0.00  0.00     0.066 H 
ENDBRANCH  12  13
ENDBRANCH   1  12
BRANCH   2  17
ATOM     17  O2  MFU d         -40.161  21.134   9.372  0.00  0.00    -0.388 OA
ATOM     18  H9  MFU d         -40.937  21.681   9.341  0.00  0.00     0.210 HD
ENDBRANCH   2  17
BRANCH   3  19
ATOM     19  O3  MFU d         -37.606  20.344  10.313  0.00  0.00    -0.390 OA
ATOM     20  H10 MFU d         -36.836  20.087  10.805  0.00  0.00     0.210 HD
ENDBRANCH   3  19
BRANCH   5  21
ATOM     21  C6  MFU d         -38.996  21.106  15.012  0.00  0.00    -0.050 C 
ATOM     22  H6  MFU d         -38.443  21.970  15.408  0.00  0.00     0.031 H 
ATOM     23  H7  MFU d         -38.403  20.191  15.159  0.00  0.00     0.031 H 
ATOM     24  H8  MFU d         -39.955  21.010  15.544  0.00  0.00     0.031 H 
ENDBRANCH   5  21
BRANCH   4  25
ATOM     25  O4  MFU d         -38.135  19.248  12.718  0.00  0.00    -0.390 OA
ATOM     26  H11 MFU d         -38.179  18.873  11.846  0.00  0.00     0.210 HD
ENDBRANCH   4  25
TORSDOF 6
ENDMDL
MODEL 7
REMARK VINA RESULT:      -4.3      1.746      3.477
REMARK  6 active torsions:
REMARK  status: ('A' for Active; 'I' for Inactive)
REMARK    1  A    between atoms: C1_1  and  O1_7 
REMARK    2  A    between atoms: C2_2  and  O2_8 
REMARK    3  A    between atoms: C3_3  and  O3_9 
REMARK    4  A    between atoms: C4_4  and  O4_10 
REMARK    5  A    between atoms: C5_5  and  C6_6 
REMARK    6  A    between atoms: O1_7  and  CM_12 
ROOT
ATOM      1  C1  MFU d         -39.047  22.132  13.548  0.00  0.00     0.158 C 
ATOM      2  C2  MFU d         -38.502  20.740  13.676  0.00  0.00     0.110 C 
ATOM      3  C3  MFU d         -39.363  19.758  12.859  0.00  0.00     0.092 C 
ATOM      4  C4  MFU d         -39.584  20.168  11.408  0.00  0.00     0.087 C 
ATOM      5  C5  MFU d         -40.149  21.579  11.413  0.00  0.00     0.065 C 
ATOM      6  O5  MFU d         -39.231  22.446  12.134  0.00  0.00    -0.351 OA
ATOM      7  H1  MFU d         -38.348  22.850  14.002  0.00  0.00     0.133 H 
ATOM      8  H2  MFU d         -37.484  20.741  13.259  0.00  0.00     0.094 H 
ATOM      9  H3  MFU d         -40.344  19.661  13.346  0.00  0.00     0.091 H 
ATOM     10  H4  MFU d         -40.310  19.494  10.931  0.00  0.00     0.091 H 
ATOM     11  H5  MFU d         -41.087  21.553  11.986  0.00  0.00     0.086 H 
ENDROOT
BRANCH   1  12
ATOM     12  O1  MFU d         -40.323  22.199  14.220  0.00  0.00    -0.363 OA
BRANCH  12  13
ATOM     13  CM  MFU d         -40.179  22.980  15.442  0.00  0.00     0.007 C 
ATOM     14  H12 MFU d         -39.483  23.813  15.264  0.00  0.00     0.066 H 
ATOM     15  H13 MFU d         -39.786  22.338  16.244  0.00  0.00     0.066 H 
ATOM     16  H14 MFU d         -41.161  23.379  15.740  0.00  0.00     0.066 H 
ENDBRANCH  12  13
ENDBRANCH   1  12
BRANCH   2  17
ATOM     17  O2  MFU d         -38.417  20.282  15.053  0.00  0.00    -0.388 OA
ATOM     18  H9  MFU d         -37.927  20.914  15.566  0.00  0.00     0.210 HD
ENDBRANCH   2  17
BRANCH   3  19
ATOM     19  O3  MFU d         -38.680  18.486  12.876  0.00  0.00    -0.390 OA
ATOM     20  H10 MFU d         -39.290  17.803  13.127  0.00  0.00     0.210 HD
ENDBRANCH   3  19
BRANCH   5  21
ATOM     21  C6  MFU d         -40.518  22.086  10.003  0.00  0.00    -0.050 C 
ATOM     22  H6  MFU d         -39.662  22.628   9.573  0.00  0.00     0.031 H 
ATOM     23  H7  MFU d         -41.383  22.762  10.071  0.00  0.00     0.031 H 
ATOM     24  H8  MFU d         -40.771  21.230   9.359  0.00  0.00     0.031 H 
ENDBRANCH   5  21
BRANCH   4  25
ATOM     25  O4  MFU d         -38.319  20.059  10.717  0.00  0.00    -0.390 OA
ATOM     26  H11 MFU d         -38.178  20.838  10.191  0.00  0.00     0.210 HD
ENDBRANCH   4  25
TORSDOF 6
ENDMDL
