MODEL 1
REMARK VINA RESULT:      -6.4      0.000      0.000
REMARK  9 active torsions:
REMARK  status: ('A' for Active; 'I' for Inactive)
REMARK       I    between atoms: N7_8  and  C9_9 
REMARK    1  A    between atoms: C9_9  and  C11_11 
REMARK    2  A    between atoms: C12_12  and  N19_20 
REMARK    3  A    between atoms: C13_13  and  O17_18 
REMARK    4  A    between atoms: O17_18  and  C18_19 
REMARK       I    between atoms: N19_20  and  C20_21 
REMARK    5  A    between atoms: C20_21  and  C22_23 
REMARK    6  A    between atoms: C25_26  and  C28_29 
REMARK    7  A    between atoms: C28_29  and  N29_30 
REMARK    8  A    between atoms: N29_30  and  C31_31 
REMARK    9  A    between atoms: N29_30  and  C32_32 
ROOT
ATOM      1  C11 XLD d           6.928   7.247  22.295  0.00  0.00     0.063 A 
ATOM      2  C12 XLD d           5.570   7.396  22.799  0.00  0.00     0.084 A 
ATOM      3  C13 XLD d           5.334   8.180  23.970  0.00  0.00     0.097 A 
ATOM      4  C14 XLD d           6.429   8.798  24.633  0.00  0.00    -0.028 A 
ATOM      5  C15 XLD d           7.744   8.641  24.140  0.00  0.00     0.037 A 
ATOM      6 CL2  XLD d           9.064   9.358  24.904  0.00  0.00    -0.084 Cl
ATOM      7  C16 XLD d           7.973   7.885  22.995  0.00  0.00    -0.044 A 
ATOM      8  H5  XLD d           6.254   9.395  25.521  0.00  0.00     0.090 H 
ATOM      9  H6  XLD d           8.988   7.784  22.629  0.00  0.00     0.087 H 
ENDROOT
BRANCH   2  10
ATOM     10  N19 XLD d           4.536   6.767  22.149  0.00  0.00    -0.319 N 
ATOM     11  C20 XLD d           4.102   5.485  22.344  0.00  0.00     0.264 C 
ATOM     12  O21 XLD d           4.716   4.789  23.197  0.00  0.00    -0.267 OA
ATOM     13  H10 XLD d           4.050   7.304  21.459  0.00  0.00     0.169 HD
BRANCH  11  14
ATOM     14  C22 XLD d           3.045   4.870  21.590  0.00  0.00     0.095 A 
ATOM     15  S23 XLD d           1.554   4.465  22.407  0.00  0.00    -0.094 SA
ATOM     16  C24 XLD d           0.932   3.806  20.952  0.00  0.00    -0.035 A 
ATOM     17  C25 XLD d           1.781   3.868  19.857  0.00  0.00    -0.011 A 
ATOM     18  H11 XLD d          -0.063   3.368  20.891  0.00  0.00     0.096 H 
ATOM     19  C26 XLD d           2.997   4.491  20.219  0.00  0.00     0.065 A 
ATOM     20 CL3  XLD d           4.244   4.711  19.076  0.00  0.00    -0.082 Cl
BRANCH  17  21
ATOM     21  C28 XLD d           1.472   3.352  18.485  0.00  0.00     0.024 C 
ATOM     22  H12 XLD d           1.878   4.093  17.780  0.00  0.00     0.071 H 
ATOM     23  H13 XLD d           0.376   3.333  18.405  0.00  0.00     0.071 H 
BRANCH  21  24
ATOM     24  N29 XLD d           1.954   2.004  18.002  0.00  0.00    -0.346 N 
BRANCH  24  25
ATOM     25  C31 XLD d           0.930   1.031  17.526  0.00  0.00    -0.015 C 
ATOM     26  H14 XLD d           0.563   1.341  16.537  0.00  0.00     0.056 H 
ATOM     27  H15 XLD d           0.091   1.005  18.238  0.00  0.00     0.056 H 
ATOM     28  H16 XLD d           1.381   0.030  17.453  0.00  0.00     0.056 H 
ENDBRANCH  24  25
BRANCH  24  29
ATOM     29  C32 XLD d           3.092   2.088  17.162  0.00  0.00     0.239 A 
ATOM     30  N33 XLD d           3.066   2.593  15.907  0.00  0.00    -0.249 NA
ATOM     31  C34 XLD d           4.349   2.571  15.312  0.00  0.00     0.039 A 
ATOM     32  C35 XLD d           5.245   1.947  16.407  0.00  0.00     0.046 A 
ATOM     33  H17 XLD d           4.683   3.588  15.063  0.00  0.00     0.070 H 
ATOM     34  H18 XLD d           4.350   1.951  14.403  0.00  0.00     0.070 H 
ATOM     35  O36 XLD d           4.344   1.699  17.487  0.00  0.00    -0.319 OA
ATOM     36  H19 XLD d           6.037   2.647  16.711  0.00  0.00     0.077 H 
ATOM     37  H20 XLD d           5.699   1.010  16.053  0.00  0.00     0.077 H 
ENDBRANCH  24  29
ENDBRANCH  21  24
ENDBRANCH  17  21
ENDBRANCH  11  14
ENDBRANCH   2  10
BRANCH   1  38
ATOM     38  C9  XLD d           7.302   6.484  21.126  0.00  0.00     0.259 C 
ATOM     39  N7  XLD d           7.361   5.113  21.210  0.00  0.00    -0.307 N 
ATOM     40  C1  XLD d           7.726   4.214  20.249  0.00  0.00     0.130 A 
ATOM     41  H4  XLD d           7.102   4.722  22.093  0.00  0.00     0.170 HD
ATOM     42  N2  XLD d           8.592   4.543  19.238  0.00  0.00    -0.242 NA
ATOM     43  C6  XLD d           7.233   2.887  20.320  0.00  0.00    -0.037 A 
ATOM     44  C3  XLD d           8.979   3.688  18.289  0.00  0.00     0.025 A 
ATOM     45  C4  XLD d           8.499   2.355  18.288  0.00  0.00     0.051 A 
ATOM     46  H1  XLD d           9.665   4.015  17.515  0.00  0.00     0.117 H 
ATOM     47 CL1  XLD d           8.903   1.251  16.976  0.00  0.00    -0.083 Cl
ATOM     48  C5  XLD d           7.625   1.960  19.336  0.00  0.00    -0.057 A 
ATOM     49  H2  XLD d           7.260   0.940  19.378  0.00  0.00     0.086 H 
ATOM     50  H3  XLD d           6.565   2.590  21.120  0.00  0.00     0.089 H 
ATOM     51  O10 XLD d           7.595   7.080  20.054  0.00  0.00    -0.267 OA
ENDBRANCH   1  38
BRANCH   3  52
ATOM     52  O17 XLD d           4.052   8.306  24.417  0.00  0.00    -0.354 OA
BRANCH  52  53
ATOM     53  C18 XLD d           3.519   9.180  25.408  0.00  0.00     0.010 C 
ATOM     54  H7  XLD d           4.101  10.113  25.425  0.00  0.00     0.066 H 
ATOM     55  H8  XLD d           3.577   8.694  26.393  0.00  0.00     0.066 H 
ATOM     56  H9  XLD d           2.470   9.406  25.172  0.00  0.00     0.066 H 
ENDBRANCH  52  53
ENDBRANCH   3  52
TORSDOF 9
ENDMDL
MODEL 2
REMARK VINA RESULT:      -5.4      3.181      5.450
REMARK  9 active torsions:
REMARK  status: ('A' for Active; 'I' for Inactive)
REMARK       I    between atoms: N7_8  and  C9_9 
REMARK    1  A    between atoms: C9_9  and  C11_11 
REMARK    2  A    between atoms: C12_12  and  N19_20 
REMARK    3  A    between atoms: C13_13  and  O17_18 
REMARK    4  A    between atoms: O17_18  and  C18_19 
REMARK       I    between atoms: N19_20  and  C20_21 
REMARK    5  A    between atoms: C20_21  and  C22_23 
REMARK    6  A    between atoms: C25_26  and  C28_29 
REMARK    7  A    between atoms: C28_29  and  N29_30 
REMARK    8  A    between atoms: N29_30  and  C31_31 
REMARK    9  A    between atoms: N29_30  and  C32_32 
ROOT
ATOM      1  C11 XLD d           3.678   7.872  22.519  0.00  0.00     0.063 A 
ATOM      2  C12 XLD d           5.033   7.469  22.868  0.00  0.00     0.084 A 
ATOM      3  C13 XLD d           5.641   7.986  24.053  0.00  0.00     0.097 A 
ATOM      4  C14 XLD d           4.917   8.893  24.874  0.00  0.00    -0.028 A 
ATOM      5  C15 XLD d           3.605   9.285  24.523  0.00  0.00     0.037 A 
ATOM      6 CL2  XLD d           2.721  10.360  25.472  0.00  0.00    -0.084 Cl
ATOM      7  C16 XLD d           3.011   8.774  23.374  0.00  0.00    -0.044 A 
ATOM      8  H5  XLD d           5.374   9.286  25.774  0.00  0.00     0.090 H 
ATOM      9  H6  XLD d           2.000   9.080  23.127  0.00  0.00     0.087 H 
ENDROOT
BRANCH   2  10
ATOM     10  N19 XLD d           5.714   6.608  22.041  0.00  0.00    -0.319 N 
ATOM     11  C20 XLD d           5.540   5.257  21.939  0.00  0.00     0.264 C 
ATOM     12  O21 XLD d           4.676   4.725  22.689  0.00  0.00    -0.267 OA
ATOM     13  H10 XLD d           6.413   7.015  21.452  0.00  0.00     0.169 HD
BRANCH  11  14
ATOM     14  C22 XLD d           6.326   4.405  21.089  0.00  0.00     0.095 A 
ATOM     15  S23 XLD d           6.167   2.673  21.256  0.00  0.00    -0.094 SA
ATOM     16  C24 XLD d           7.353   2.443  20.040  0.00  0.00    -0.035 A 
ATOM     17  C25 XLD d           7.879   3.604  19.492  0.00  0.00    -0.011 A 
ATOM     18  H11 XLD d           7.672   1.453  19.718  0.00  0.00     0.096 H 
ATOM     19  C26 XLD d           7.280   4.737  20.088  0.00  0.00     0.065 A 
ATOM     20 CL3  XLD d           7.727   6.315  19.616  0.00  0.00    -0.082 Cl
BRANCH  17  21
ATOM     21  C28 XLD d           8.930   3.666  18.427  0.00  0.00     0.024 C 
ATOM     22  H12 XLD d           9.855   3.992  18.927  0.00  0.00     0.071 H 
ATOM     23  H13 XLD d           8.604   4.441  17.719  0.00  0.00     0.071 H 
BRANCH  21  24
ATOM     24  N29 XLD d           9.305   2.464  17.591  0.00  0.00    -0.346 N 
BRANCH  24  25
ATOM     25  C31 XLD d           9.939   1.307  18.284  0.00  0.00    -0.015 C 
ATOM     26  H14 XLD d           9.709   1.353  19.358  0.00  0.00     0.056 H 
ATOM     27  H15 XLD d          11.029   1.346  18.139  0.00  0.00     0.056 H 
ATOM     28  H16 XLD d           9.546   0.369  17.865  0.00  0.00     0.056 H 
ENDBRANCH  24  25
BRANCH  24  29
ATOM     29  C32 XLD d           8.295   2.092  16.669  0.00  0.00     0.239 A 
ATOM     30  N33 XLD d           8.377   1.010  15.859  0.00  0.00    -0.249 NA
ATOM     31  C34 XLD d           7.218   0.873  15.060  0.00  0.00     0.039 A 
ATOM     32  C35 XLD d           6.343   2.075  15.481  0.00  0.00     0.046 A 
ATOM     33  H17 XLD d           6.707  -0.078  15.269  0.00  0.00     0.070 H 
ATOM     34  H18 XLD d           7.471   0.926  13.990  0.00  0.00     0.070 H 
ATOM     35  O36 XLD d           7.126   2.738  16.475  0.00  0.00    -0.319 OA
ATOM     36  H19 XLD d           5.385   1.734  15.901  0.00  0.00     0.077 H 
ATOM     37  H20 XLD d           6.152   2.739  14.625  0.00  0.00     0.077 H 
ENDBRANCH  24  29
ENDBRANCH  21  24
ENDBRANCH  17  21
ENDBRANCH  11  14
ENDBRANCH   2  10
BRANCH   1  38
ATOM     38  C9  XLD d           2.952   7.425  21.353  0.00  0.00     0.259 C 
ATOM     39  N7  XLD d           3.402   7.783  20.104  0.00  0.00    -0.307 N 
ATOM     40  C1  XLD d           2.850   7.505  18.886  0.00  0.00     0.130 A 
ATOM     41  H4  XLD d           4.245   8.319  20.085  0.00  0.00     0.170 HD
ATOM     42  N2  XLD d           1.504   7.296  18.729  0.00  0.00    -0.242 NA
ATOM     43  C6  XLD d           3.683   7.477  17.739  0.00  0.00    -0.037 A 
ATOM     44  C3  XLD d           0.929   7.033  17.553  0.00  0.00     0.025 A 
ATOM     45  C4  XLD d           1.712   6.963  16.375  0.00  0.00     0.051 A 
ATOM     46  H1  XLD d          -0.142   6.873  17.501  0.00  0.00     0.117 H 
ATOM     47 CL1  XLD d           0.988   6.497  14.837  0.00  0.00    -0.083 Cl
ATOM     48  C5  XLD d           3.107   7.207  16.484  0.00  0.00    -0.057 A 
ATOM     49  H2  XLD d           3.730   7.185  15.597  0.00  0.00     0.086 H 
ATOM     50  H3  XLD d           4.747   7.662  17.827  0.00  0.00     0.089 H 
ATOM     51  O10 XLD d           1.903   6.738  21.490  0.00  0.00    -0.267 OA
ENDBRANCH   1  38
BRANCH   3  52
ATOM     52  O17 XLD d           6.909   7.588  24.357  0.00  0.00    -0.354 OA
BRANCH  52  53
ATOM     53  C18 XLD d           8.051   8.373  24.686  0.00  0.00     0.010 C 
ATOM     54  H7  XLD d           7.803   9.051  25.516  0.00  0.00     0.066 H 
ATOM     55  H8  XLD d           8.355   8.962  23.809  0.00  0.00     0.066 H 
ATOM     56  H9  XLD d           8.876   7.711  24.988  0.00  0.00     0.066 H 
ENDBRANCH  52  53
ENDBRANCH   3  52
TORSDOF 9
ENDMDL
MODEL 3
REMARK VINA RESULT:      -5.3      3.773      5.637
REMARK  9 active torsions:
REMARK  status: ('A' for Active; 'I' for Inactive)
REMARK       I    between atoms: N7_8  and  C9_9 
REMARK    1  A    between atoms: C9_9  and  C11_11 
REMARK    2  A    between atoms: C12_12  and  N19_20 
REMARK    3  A    between atoms: C13_13  and  O17_18 
REMARK    4  A    between atoms: O17_18  and  C18_19 
REMARK       I    between atoms: N19_20  and  C20_21 
REMARK    5  A    between atoms: C20_21  and  C22_23 
REMARK    6  A    between atoms: C25_26  and  C28_29 
REMARK    7  A    between atoms: C28_29  and  N29_30 
REMARK    8  A    between atoms: N29_30  and  C31_31 
REMARK    9  A    between atoms: N29_30  and  C32_32 
ROOT
ATOM      1  C11 XLD d           3.437   3.522  21.334  0.00  0.00     0.063 A 
ATOM      2  C12 XLD d           3.258   4.907  21.746  0.00  0.00     0.084 A 
ATOM      3  C13 XLD d           2.514   5.202  22.930  0.00  0.00     0.097 A 
ATOM      4  C14 XLD d           1.950   4.139  23.686  0.00  0.00    -0.028 A 
ATOM      5  C15 XLD d           2.122   2.798  23.274  0.00  0.00     0.037 A 
ATOM      6 CL2  XLD d           1.464   1.516  24.147  0.00  0.00    -0.084 Cl
ATOM      7  C16 XLD d           2.854   2.511  22.127  0.00  0.00    -0.044 A 
ATOM      8  H5  XLD d           1.386   4.358  24.585  0.00  0.00     0.090 H 
ATOM      9  H6  XLD d           2.982   1.476  21.833  0.00  0.00     0.087 H 
ENDROOT
BRANCH   2  10
ATOM     10  N19 XLD d           3.796   5.913  20.980  0.00  0.00    -0.319 N 
ATOM     11  C20 XLD d           5.081   6.378  21.019  0.00  0.00     0.264 C 
ATOM     12  O21 XLD d           5.865   5.848  21.853  0.00  0.00    -0.267 OA
ATOM     13  H10 XLD d           3.182   6.351  20.324  0.00  0.00     0.169 HD
BRANCH  11  14
ATOM     14  C22 XLD d           5.566   7.473  20.225  0.00  0.00     0.095 A 
ATOM     15  S23 XLD d           7.242   7.944  20.376  0.00  0.00    -0.094 SA
ATOM     16  C24 XLD d           6.992   9.207  19.245  0.00  0.00    -0.035 A 
ATOM     17  C25 XLD d           5.705   9.310  18.738  0.00  0.00    -0.011 A 
ATOM     18  H11 XLD d           7.790   9.885  18.944  0.00  0.00     0.096 H 
ATOM     19  C26 XLD d           4.883   8.303  19.293  0.00  0.00     0.065 A 
ATOM     20 CL3  XLD d           3.238   8.176  18.858  0.00  0.00    -0.082 Cl
BRANCH  17  21
ATOM     21  C28 XLD d           5.237  10.333  17.750  0.00  0.00     0.024 C 
ATOM     22  H12 XLD d           5.687  11.288  18.060  0.00  0.00     0.071 H 
ATOM     23  H13 XLD d           4.145  10.389  17.862  0.00  0.00     0.071 H 
BRANCH  21  24
ATOM     24  N29 XLD d           5.502  10.205  16.267  0.00  0.00    -0.346 N 
BRANCH  24  25
ATOM     25  C31 XLD d           6.847  10.603  15.766  0.00  0.00    -0.015 C 
ATOM     26  H14 XLD d           6.732  11.285  14.910  0.00  0.00     0.056 H 
ATOM     27  H15 XLD d           7.401   9.706  15.450  0.00  0.00     0.056 H 
ATOM     28  H16 XLD d           7.402  11.112  16.568  0.00  0.00     0.056 H 
ENDBRANCH  24  25
BRANCH  24  29
ATOM     29  C32 XLD d           5.029   8.986  15.721  0.00  0.00     0.239 A 
ATOM     30  N33 XLD d           5.830   7.941  15.407  0.00  0.00    -0.249 NA
ATOM     31  C34 XLD d           5.085   6.851  14.899  0.00  0.00     0.039 A 
ATOM     32  C35 XLD d           3.627   7.365  14.926  0.00  0.00     0.046 A 
ATOM     33  H17 XLD d           5.200   5.964  15.540  0.00  0.00     0.070 H 
ATOM     34  H18 XLD d           5.396   6.606  13.873  0.00  0.00     0.070 H 
ATOM     35  O36 XLD d           3.739   8.689  15.452  0.00  0.00    -0.319 OA
ATOM     36  H19 XLD d           3.001   6.737  15.577  0.00  0.00     0.077 H 
ATOM     37  H20 XLD d           3.199   7.382  13.913  0.00  0.00     0.077 H 
ENDBRANCH  24  29
ENDBRANCH  21  24
ENDBRANCH  17  21
ENDBRANCH  11  14
ENDBRANCH   2  10
BRANCH   1  38
ATOM     38  C9  XLD d           4.164   3.090  20.163  0.00  0.00     0.259 C 
ATOM     39  N7  XLD d           5.537   3.025  20.212  0.00  0.00    -0.307 N 
ATOM     40  C1  XLD d           6.411   2.685  19.220  0.00  0.00     0.130 A 
ATOM     41  H4  XLD d           5.950   3.259  21.092  0.00  0.00     0.170 HD
ATOM     42  N2  XLD d           6.114   2.873  17.894  0.00  0.00    -0.242 NA
ATOM     43  C6  XLD d           7.683   2.165  19.566  0.00  0.00    -0.037 A 
ATOM     44  C3  XLD d           6.947   2.563  16.899  0.00  0.00     0.025 A 
ATOM     45  C4  XLD d           8.222   2.012  17.179  0.00  0.00     0.051 A 
ATOM     46  H1  XLD d           6.647   2.734  15.871  0.00  0.00     0.117 H 
ATOM     47 CL1  XLD d           9.284   1.485  15.876  0.00  0.00    -0.083 Cl
ATOM     48  C5  XLD d           8.587   1.831  18.539  0.00  0.00    -0.057 A 
ATOM     49  H2  XLD d           9.565   1.435  18.789  0.00  0.00     0.086 H 
ATOM     50  H3  XLD d           7.957   2.027  20.606  0.00  0.00     0.089 H 
ATOM     51  O10 XLD d           3.540   2.804  19.105  0.00  0.00    -0.267 OA
ENDBRANCH   1  38
BRANCH   3  52
ATOM     52  O17 XLD d           2.367   6.508  23.294  0.00  0.00    -0.354 OA
BRANCH  52  53
ATOM     53  C18 XLD d           3.130   7.284  24.212  0.00  0.00     0.010 C 
ATOM     54  H7  XLD d           4.074   7.590  23.738  0.00  0.00     0.066 H 
ATOM     55  H8  XLD d           3.348   6.683  25.107  0.00  0.00     0.066 H 
ATOM     56  H9  XLD d           2.558   8.178  24.500  0.00  0.00     0.066 H 
ENDBRANCH  52  53
ENDBRANCH   3  52
TORSDOF 9
ENDMDL
MODEL 4
REMARK VINA RESULT:      -5.3      3.879      7.423
REMARK  9 active torsions:
REMARK  status: ('A' for Active; 'I' for Inactive)
REMARK       I    between atoms: N7_8  and  C9_9 
REMARK    1  A    between atoms: C9_9  and  C11_11 
REMARK    2  A    between atoms: C12_12  and  N19_20 
REMARK    3  A    between atoms: C13_13  and  O17_18 
REMARK    4  A    between atoms: O17_18  and  C18_19 
REMARK       I    between atoms: N19_20  and  C20_21 
REMARK    5  A    between atoms: C20_21  and  C22_23 
REMARK    6  A    between atoms: C25_26  and  C28_29 
REMARK    7  A    between atoms: C28_29  and  N29_30 
REMARK    8  A    between atoms: N29_30  and  C31_31 
REMARK    9  A    between atoms: N29_30  and  C32_32 
ROOT
ATOM      1  C11 XLD d           8.171   3.008  18.119  0.00  0.00     0.063 A 
ATOM      2  C12 XLD d           7.546   2.790  16.823  0.00  0.00     0.084 A 
ATOM      3  C13 XLD d           8.059   1.780  15.951  0.00  0.00     0.097 A 
ATOM      4  C14 XLD d           9.179   1.005  16.359  0.00  0.00    -0.028 A 
ATOM      5  C15 XLD d           9.784   1.230  17.617  0.00  0.00     0.037 A 
ATOM      6 CL2  XLD d          11.113   0.330  18.129  0.00  0.00    -0.084 Cl
ATOM      7  C16 XLD d           9.279   2.207  18.468  0.00  0.00    -0.044 A 
ATOM      8  H5  XLD d           9.570   0.237  15.702  0.00  0.00     0.090 H 
ATOM      9  H6  XLD d           9.752   2.357  19.432  0.00  0.00     0.087 H 
ENDROOT
BRANCH   2  10
ATOM     10  N19 XLD d           6.480   3.572  16.448  0.00  0.00    -0.319 N 
ATOM     11  C20 XLD d           5.168   3.388  16.784  0.00  0.00     0.264 C 
ATOM     12  O21 XLD d           4.888   2.388  17.500  0.00  0.00    -0.267 OA
ATOM     13  H10 XLD d           6.686   4.360  15.868  0.00  0.00     0.169 HD
BRANCH  11  14
ATOM     14  C22 XLD d           4.092   4.215  16.313  0.00  0.00     0.095 A 
ATOM     15  S23 XLD d           2.467   3.573  16.332  0.00  0.00    -0.094 SA
ATOM     16  C24 XLD d           1.880   5.028  15.642  0.00  0.00    -0.035 A 
ATOM     17  C25 XLD d           2.838   5.999  15.391  0.00  0.00    -0.011 A 
ATOM     18  H11 XLD d           0.826   5.181  15.417  0.00  0.00     0.096 H 
ATOM     19  C26 XLD d           4.114   5.537  15.787  0.00  0.00     0.065 A 
ATOM     20 CL3  XLD d           5.498   6.516  15.599  0.00  0.00    -0.082 Cl
BRANCH  17  21
ATOM     21  C28 XLD d           2.578   7.344  14.785  0.00  0.00     0.024 C 
ATOM     22  H12 XLD d           1.602   7.270  14.282  0.00  0.00     0.071 H 
ATOM     23  H13 XLD d           3.366   7.498  14.033  0.00  0.00     0.071 H 
BRANCH  21  24
ATOM     24  N29 XLD d           2.531   8.607  15.612  0.00  0.00    -0.346 N 
BRANCH  24  25
ATOM     25  C31 XLD d           1.964   8.516  16.986  0.00  0.00    -0.015 C 
ATOM     26  H14 XLD d           1.984   7.469  17.322  0.00  0.00     0.056 H 
ATOM     27  H15 XLD d           0.925   8.879  16.979  0.00  0.00     0.056 H 
ATOM     28  H16 XLD d           2.563   9.133  17.672  0.00  0.00     0.056 H 
ENDBRANCH  24  25
BRANCH  24  29
ATOM     29  C32 XLD d           3.727   9.364  15.539  0.00  0.00     0.239 A 
ATOM     30  N33 XLD d           4.352   9.675  14.379  0.00  0.00    -0.249 NA
ATOM     31  C34 XLD d           5.510  10.453  14.606  0.00  0.00     0.039 A 
ATOM     32  C35 XLD d           5.551  10.602  16.144  0.00  0.00     0.046 A 
ATOM     33  H17 XLD d           5.425  11.435  14.118  0.00  0.00     0.070 H 
ATOM     34  H18 XLD d           6.409   9.937  14.238  0.00  0.00     0.070 H 
ATOM     35  O36 XLD d           4.398   9.885  16.589  0.00  0.00    -0.319 OA
ATOM     36  H19 XLD d           5.489  11.661  16.437  0.00  0.00     0.077 H 
ATOM     37  H20 XLD d           6.469  10.160  16.556  0.00  0.00     0.077 H 
ENDBRANCH  24  29
ENDBRANCH  21  24
ENDBRANCH  17  21
ENDBRANCH  11  14
ENDBRANCH   2  10
BRANCH   1  38
ATOM     38  C9  XLD d           7.752   3.993  19.090  0.00  0.00     0.259 C 
ATOM     39  N7  XLD d           6.596   3.782  19.803  0.00  0.00    -0.307 N 
ATOM     40  C1  XLD d           6.004   4.593  20.729  0.00  0.00     0.130 A 
ATOM     41  H4  XLD d           6.125   2.920  19.619  0.00  0.00     0.170 HD
ATOM     42  N2  XLD d           6.162   5.955  20.707  0.00  0.00    -0.242 NA
ATOM     43  C6  XLD d           5.164   4.019  21.715  0.00  0.00    -0.037 A 
ATOM     44  C3  XLD d           5.590   6.779  21.588  0.00  0.00     0.025 A 
ATOM     45  C4  XLD d           4.763   6.264  22.616  0.00  0.00     0.051 A 
ATOM     46  H1  XLD d           5.761   7.848  21.517  0.00  0.00     0.117 H 
ATOM     47 CL1  XLD d           4.101   7.324  23.858  0.00  0.00    -0.083 Cl
ATOM     48  C5  XLD d           4.543   4.862  22.657  0.00  0.00    -0.057 A 
ATOM     49  H2  XLD d           3.895   4.438  23.416  0.00  0.00     0.086 H 
ATOM     50  H3  XLD d           5.001   2.948  21.744  0.00  0.00     0.089 H 
ATOM     51  O10 XLD d           8.431   5.043  19.253  0.00  0.00    -0.267 OA
ENDBRANCH   1  38
BRANCH   3  52
ATOM     52  O17 XLD d           7.451   1.596  14.745  0.00  0.00    -0.354 OA
BRANCH  52  53
ATOM     53  C18 XLD d           6.419   0.684  14.381  0.00  0.00     0.010 C 
ATOM     54  H7  XLD d           6.868  -0.265  14.049  0.00  0.00     0.066 H 
ATOM     55  H8  XLD d           5.823   1.113  13.563  0.00  0.00     0.066 H 
ATOM     56  H9  XLD d           5.771   0.498  15.249  0.00  0.00     0.066 H 
ENDBRANCH  52  53
ENDBRANCH   3  52
TORSDOF 9
ENDMDL
MODEL 5
REMARK VINA RESULT:      -4.7      3.656      6.669
REMARK  9 active torsions:
REMARK  status: ('A' for Active; 'I' for Inactive)
REMARK       I    between atoms: N7_8  and  C9_9 
REMARK    1  A    between atoms: C9_9  and  C11_11 
REMARK    2  A    between atoms: C12_12  and  N19_20 
REMARK    3  A    between atoms: C13_13  and  O17_18 
REMARK    4  A    between atoms: O17_18  and  C18_19 
REMARK       I    between atoms: N19_20  and  C20_21 
REMARK    5  A    between atoms: C20_21  and  C22_23 
REMARK    6  A    between atoms: C25_26  and  C28_29 
REMARK    7  A    between atoms: C28_29  and  N29_30 
REMARK    8  A    between atoms: N29_30  and  C31_31 
REMARK    9  A    between atoms: N29_30  and  C32_32 
ROOT
ATOM      1  C11 XLD d           5.740   8.071  18.302  0.00  0.00     0.063 A 
ATOM      2  C12 XLD d           5.429   6.789  17.687  0.00  0.00     0.084 A 
ATOM      3  C13 XLD d           5.120   6.730  16.293  0.00  0.00     0.097 A 
ATOM      4  C14 XLD d           5.113   7.926  15.525  0.00  0.00    -0.028 A 
ATOM      5  C15 XLD d           5.408   9.168  16.133  0.00  0.00     0.037 A 
ATOM      6 CL2  XLD d           5.406  10.604  15.252  0.00  0.00    -0.084 Cl
ATOM      7  C16 XLD d           5.718   9.223  17.488  0.00  0.00    -0.044 A 
ATOM      8  H5  XLD d           4.881   7.886  14.468  0.00  0.00     0.090 H 
ATOM      9  H6  XLD d           5.950  10.184  17.933  0.00  0.00     0.087 H 
ENDROOT
BRANCH   2  10
ATOM     10  N19 XLD d           5.421   5.654  18.461  0.00  0.00    -0.319 N 
ATOM     11  C20 XLD d           4.342   5.089  19.080  0.00  0.00     0.264 C 
ATOM     12  O21 XLD d           3.229   5.668  18.949  0.00  0.00    -0.267 OA
ATOM     13  H10 XLD d           6.300   5.192  18.585  0.00  0.00     0.169 HD
BRANCH  11  14
ATOM     14  C22 XLD d           4.413   3.926  19.922  0.00  0.00     0.095 A 
ATOM     15  S23 XLD d           5.963   3.458  20.579  0.00  0.00    -0.094 SA
ATOM     16  C24 XLD d           5.235   2.104  21.338  0.00  0.00    -0.035 A 
ATOM     17  C25 XLD d           3.870   1.968  21.136  0.00  0.00    -0.011 A 
ATOM     18  H11 XLD d           5.806   1.397  21.939  0.00  0.00     0.096 H 
ATOM     19  C26 XLD d           3.391   3.024  20.328  0.00  0.00     0.065 A 
ATOM     20 CL3  XLD d           1.741   3.126  19.906  0.00  0.00    -0.082 Cl
BRANCH  17  21
ATOM     21  C28 XLD d           3.014   0.867  21.682  0.00  0.00     0.024 C 
ATOM     22  H12 XLD d           3.649  -0.031  21.708  0.00  0.00     0.071 H 
ATOM     23  H13 XLD d           2.202   0.721  20.955  0.00  0.00     0.071 H 
BRANCH  21  24
ATOM     24  N29 XLD d           2.353   0.955  23.039  0.00  0.00    -0.346 N 
BRANCH  24  25
ATOM     25  C31 XLD d           2.948   0.164  24.152  0.00  0.00    -0.015 C 
ATOM     26  H14 XLD d           3.279   0.845  24.950  0.00  0.00     0.056 H 
ATOM     27  H15 XLD d           3.809  -0.408  23.776  0.00  0.00     0.056 H 
ATOM     28  H16 XLD d           2.194  -0.530  24.553  0.00  0.00     0.056 H 
ENDBRANCH  24  25
BRANCH  24  29
ATOM     29  C32 XLD d           2.007   2.280  23.404  0.00  0.00     0.239 A 
ATOM     30  N33 XLD d           2.699   3.019  24.302  0.00  0.00    -0.249 NA
ATOM     31  C34 XLD d           2.138   4.308  24.454  0.00  0.00     0.039 A 
ATOM     32  C35 XLD d           0.929   4.294  23.490  0.00  0.00     0.046 A 
ATOM     33  H17 XLD d           2.860   5.087  24.167  0.00  0.00     0.070 H 
ATOM     34  H18 XLD d           1.811   4.474  25.492  0.00  0.00     0.070 H 
ATOM     35  O36 XLD d           0.967   2.988  22.912  0.00  0.00    -0.319 OA
ATOM     36  H19 XLD d           1.036   5.068  22.716  0.00  0.00     0.077 H 
ATOM     37  H20 XLD d          -0.011   4.451  24.039  0.00  0.00     0.077 H 
ENDBRANCH  24  29
ENDBRANCH  21  24
ENDBRANCH  17  21
ENDBRANCH  11  14
ENDBRANCH   2  10
BRANCH   1  38
ATOM     38  C9  XLD d           6.067   8.268  19.695  0.00  0.00     0.259 C 
ATOM     39  N7  XLD d           7.387   8.366  20.067  0.00  0.00    -0.307 N 
ATOM     40  C1  XLD d           7.913   8.512  21.319  0.00  0.00     0.130 A 
ATOM     41  H4  XLD d           8.051   8.326  19.321  0.00  0.00     0.170 HD
ATOM     42  N2  XLD d           7.266   8.050  22.436  0.00  0.00    -0.242 NA
ATOM     43  C6  XLD d           9.186   9.116  21.469  0.00  0.00    -0.037 A 
ATOM     44  C3  XLD d           7.754   8.165  23.674  0.00  0.00     0.025 A 
ATOM     45  C4  XLD d           9.009   8.785  23.892  0.00  0.00     0.051 A 
ATOM     46  H1  XLD d           7.188   7.781  24.515  0.00  0.00     0.117 H 
ATOM     47 CL1  XLD d           9.610   9.054  25.526  0.00  0.00    -0.083 Cl
ATOM     48  C5  XLD d           9.731   9.248  22.760  0.00  0.00    -0.057 A 
ATOM     49  H2  XLD d          10.705   9.706  22.891  0.00  0.00     0.086 H 
ATOM     50  H3  XLD d           9.733   9.470  20.603  0.00  0.00     0.089 H 
ATOM     51  O10 XLD d           5.147   8.318  20.557  0.00  0.00    -0.267 OA
ENDBRANCH   1  38
BRANCH   3  52
ATOM     52  O17 XLD d           4.838   5.515  15.743  0.00  0.00    -0.354 OA
BRANCH  52  53
ATOM     53  C18 XLD d           5.575   4.759  14.787  0.00  0.00     0.010 C 
ATOM     54  H7  XLD d           5.177   3.735  14.743  0.00  0.00     0.066 H 
ATOM     55  H8  XLD d           6.634   4.729  15.082  0.00  0.00     0.066 H 
ATOM     56  H9  XLD d           5.483   5.230  13.797  0.00  0.00     0.066 H 
ENDBRANCH  52  53
ENDBRANCH   3  52
TORSDOF 9
ENDMDL
MODEL 6
REMARK VINA RESULT:      -4.7      1.667      2.386
REMARK  9 active torsions:
REMARK  status: ('A' for Active; 'I' for Inactive)
REMARK       I    between atoms: N7_8  and  C9_9 
REMARK    1  A    between atoms: C9_9  and  C11_11 
REMARK    2  A    between atoms: C12_12  and  N19_20 
REMARK    3  A    between atoms: C13_13  and  O17_18 
REMARK    4  A    between atoms: O17_18  and  C18_19 
REMARK       I    between atoms: N19_20  and  C20_21 
REMARK    5  A    between atoms: C20_21  and  C22_23 
REMARK    6  A    between atoms: C25_26  and  C28_29 
REMARK    7  A    between atoms: C28_29  and  N29_30 
REMARK    8  A    between atoms: N29_30  and  C31_31 
REMARK    9  A    between atoms: N29_30  and  C32_32 
ROOT
ATOM      1  C11 XLD d           7.515   7.834  22.460  0.00  0.00     0.063 A 
ATOM      2  C12 XLD d           6.322   8.157  23.229  0.00  0.00     0.084 A 
ATOM      3  C13 XLD d           6.433   8.975  24.396  0.00  0.00     0.097 A 
ATOM      4  C14 XLD d           7.709   9.457  24.795  0.00  0.00    -0.028 A 
ATOM      5  C15 XLD d           8.863   9.131  24.047  0.00  0.00     0.037 A 
ATOM      6 CL2  XLD d          10.390   9.684  24.495  0.00  0.00    -0.084 Cl
ATOM      7  C16 XLD d           8.753   8.342  22.906  0.00  0.00    -0.044 A 
ATOM      8  H5  XLD d           7.798  10.078  25.678  0.00  0.00     0.090 H 
ATOM      9  H6  XLD d           9.649   8.111  22.341  0.00  0.00     0.087 H 
ENDROOT
BRANCH   2  10
ATOM     10  N19 XLD d           5.106   7.657  22.830  0.00  0.00    -0.319 N 
ATOM     11  C20 XLD d           4.512   6.503  23.258  0.00  0.00     0.264 C 
ATOM     12  O21 XLD d           5.142   5.803  24.098  0.00  0.00    -0.267 OA
ATOM     13  H10 XLD d           4.603   8.194  22.153  0.00  0.00     0.169 HD
BRANCH  11  14
ATOM     14  C22 XLD d           3.259   6.008  22.758  0.00  0.00     0.095 A 
ATOM     15  S23 XLD d           1.888   5.945  23.841  0.00  0.00    -0.094 SA
ATOM     16  C24 XLD d           0.929   5.267  22.592  0.00  0.00    -0.035 A 
ATOM     17  C25 XLD d           1.575   5.079  21.379  0.00  0.00    -0.011 A 
ATOM     18  H11 XLD d          -0.116   5.002  22.741  0.00  0.00     0.096 H 
ATOM     19  C26 XLD d           2.916   5.516  21.469  0.00  0.00     0.065 A 
ATOM     20 CL3  XLD d           3.964   5.409  20.127  0.00  0.00    -0.082 Cl
BRANCH  17  21
ATOM     21  C28 XLD d           0.957   4.496  20.145  0.00  0.00     0.024 C 
ATOM     22  H12 XLD d           1.256   5.152  19.313  0.00  0.00     0.071 H 
ATOM     23  H13 XLD d          -0.131   4.558  20.289  0.00  0.00     0.071 H 
BRANCH  21  24
ATOM     24  N29 XLD d           1.242   3.083  19.690  0.00  0.00    -0.346 N 
BRANCH  24  25
ATOM     25  C31 XLD d           1.638   2.879  18.268  0.00  0.00    -0.015 C 
ATOM     26  H14 XLD d           2.540   3.471  18.051  0.00  0.00     0.056 H 
ATOM     27  H15 XLD d           0.818   3.202  17.609  0.00  0.00     0.056 H 
ATOM     28  H16 XLD d           1.849   1.813  18.096  0.00  0.00     0.056 H 
ENDBRANCH  24  25
BRANCH  24  29
ATOM     29  C32 XLD d           2.031   2.350  20.612  0.00  0.00     0.239 A 
ATOM     30  N33 XLD d           1.678   2.137  21.901  0.00  0.00    -0.249 NA
ATOM     31  C34 XLD d           2.644   1.359  22.581  0.00  0.00     0.039 A 
ATOM     32  C35 XLD d           3.719   1.094  21.503  0.00  0.00     0.046 A 
ATOM     33  H17 XLD d           2.206   0.416  22.940  0.00  0.00     0.070 H 
ATOM     34  H18 XLD d           3.068   1.914  23.431  0.00  0.00     0.070 H 
ATOM     35  O36 XLD d           3.215   1.760  20.344  0.00  0.00    -0.319 OA
ATOM     36  H19 XLD d           3.830   0.015  21.317  0.00  0.00     0.077 H 
ATOM     37  H20 XLD d           4.689   1.515  21.805  0.00  0.00     0.077 H 
ENDBRANCH  24  29
ENDBRANCH  21  24
ENDBRANCH  17  21
ENDBRANCH  11  14
ENDBRANCH   2  10
BRANCH   1  38
ATOM     38  C9  XLD d           7.540   7.020  21.267  0.00  0.00     0.259 C 
ATOM     39  N7  XLD d           7.593   5.651  21.389  0.00  0.00    -0.307 N 
ATOM     40  C1  XLD d           7.664   4.708  20.404  0.00  0.00     0.130 A 
ATOM     41  H4  XLD d           7.579   5.299  22.325  0.00  0.00     0.170 HD
ATOM     42  N2  XLD d           8.228   4.976  19.182  0.00  0.00    -0.242 NA
ATOM     43  C6  XLD d           7.184   3.400  20.662  0.00  0.00    -0.037 A 
ATOM     44  C3  XLD d           8.324   4.077  18.200  0.00  0.00     0.025 A 
ATOM     45  C4  XLD d           7.836   2.760  18.386  0.00  0.00     0.051 A 
ATOM     46  H1  XLD d           8.778   4.356  17.256  0.00  0.00     0.117 H 
ATOM     47 CL1  XLD d           7.844   1.599  17.061  0.00  0.00    -0.083 Cl
ATOM     48  C5  XLD d           7.274   2.428  19.648  0.00  0.00    -0.057 A 
ATOM     49  H2  XLD d           6.914   1.422  19.831  0.00  0.00     0.086 H 
ATOM     50  H3  XLD d           6.755   3.152  21.625  0.00  0.00     0.089 H 
ATOM     51  O10 XLD d           7.542   7.569  20.131  0.00  0.00    -0.267 OA
ENDBRANCH   1  38
BRANCH   3  52
ATOM     52  O17 XLD d           5.298   9.265  25.094  0.00  0.00    -0.354 OA
BRANCH  52  53
ATOM     53  C18 XLD d           3.944   9.286  24.654  0.00  0.00     0.010 C 
ATOM     54  H7  XLD d           3.477   8.311  24.859  0.00  0.00     0.066 H 
ATOM     55  H8  XLD d           3.913   9.487  23.573  0.00  0.00     0.066 H 
ATOM     56  H9  XLD d           3.396  10.075  25.189  0.00  0.00     0.066 H 
ENDBRANCH  52  53
ENDBRANCH   3  52
TORSDOF 9
ENDMDL
MODEL 7
REMARK VINA RESULT:      -4.7      3.428      7.891
REMARK  9 active torsions:
REMARK  status: ('A' for Active; 'I' for Inactive)
REMARK       I    between atoms: N7_8  and  C9_9 
REMARK    1  A    between atoms: C9_9  and  C11_11 
REMARK    2  A    between atoms: C12_12  and  N19_20 
REMARK    3  A    between atoms: C13_13  and  O17_18 
REMARK    4  A    between atoms: O17_18  and  C18_19 
REMARK       I    between atoms: N19_20  and  C20_21 
REMARK    5  A    between atoms: C20_21  and  C22_23 
REMARK    6  A    between atoms: C25_26  and  C28_29 
REMARK    7  A    between atoms: C28_29  and  N29_30 
REMARK    8  A    between atoms: N29_30  and  C31_31 
REMARK    9  A    between atoms: N29_30  and  C32_32 
ROOT
ATOM      1  C11 XLD d           4.856   2.936  17.573  0.00  0.00     0.063 A 
ATOM      2  C12 XLD d           5.076   4.351  17.312  0.00  0.00     0.084 A 
ATOM      3  C13 XLD d           5.991   4.748  16.288  0.00  0.00     0.097 A 
ATOM      4  C14 XLD d           6.681   3.754  15.542  0.00  0.00    -0.028 A 
ATOM      5  C15 XLD d           6.467   2.382  15.808  0.00  0.00     0.037 A 
ATOM      6 CL2  XLD d           7.270   1.180  14.943  0.00  0.00    -0.084 Cl
ATOM      7  C16 XLD d           5.569   1.997  16.798  0.00  0.00    -0.044 A 
ATOM      8  H5  XLD d           7.375   4.049  14.764  0.00  0.00     0.090 H 
ATOM      9  H6  XLD d           5.412   0.940  16.981  0.00  0.00     0.087 H 
ENDROOT
BRANCH   2  10
ATOM     10  N19 XLD d           4.411   5.288  18.067  0.00  0.00    -0.319 N 
ATOM     11  C20 XLD d           4.756   5.735  19.311  0.00  0.00     0.264 C 
ATOM     12  O21 XLD d           5.783   5.232  19.844  0.00  0.00    -0.267 OA
ATOM     13  H10 XLD d           3.587   5.684  17.662  0.00  0.00     0.169 HD
BRANCH  11  14
ATOM     14  C22 XLD d           3.984   6.680  20.070  0.00  0.00     0.095 A 
ATOM     15  S23 XLD d           4.440   8.367  20.025  0.00  0.00    -0.094 SA
ATOM     16  C24 XLD d           3.171   8.743  21.114  0.00  0.00    -0.035 A 
ATOM     17  C25 XLD d           2.398   7.666  21.525  0.00  0.00    -0.011 A 
ATOM     18  H11 XLD d           2.984   9.757  21.461  0.00  0.00     0.096 H 
ATOM     19  C26 XLD d           2.858   6.477  20.915  0.00  0.00     0.065 A 
ATOM     20 CL3  XLD d           2.101   4.981  21.230  0.00  0.00    -0.082 Cl
BRANCH  17  21
ATOM     21  C28 XLD d           1.244   7.736  22.477  0.00  0.00     0.024 C 
ATOM     22  H12 XLD d           0.560   6.924  22.189  0.00  0.00     0.071 H 
ATOM     23  H13 XLD d           0.758   8.706  22.299  0.00  0.00     0.071 H 
BRANCH  21  24
ATOM     24  N29 XLD d           1.424   7.624  23.973  0.00  0.00    -0.346 N 
BRANCH  24  25
ATOM     25  C31 XLD d           1.603   6.262  24.551  0.00  0.00    -0.015 C 
ATOM     26  H14 XLD d           2.340   5.706  23.953  0.00  0.00     0.056 H 
ATOM     27  H15 XLD d           0.641   5.729  24.537  0.00  0.00     0.056 H 
ATOM     28  H16 XLD d           1.961   6.348  25.588  0.00  0.00     0.056 H 
ENDBRANCH  24  25
BRANCH  24  29
ATOM     29  C32 XLD d           2.320   8.588  24.499  0.00  0.00     0.239 A 
ATOM     30  N33 XLD d           1.933   9.795  24.975  0.00  0.00    -0.249 NA
ATOM     31  C34 XLD d           3.034  10.541  25.453  0.00  0.00     0.039 A 
ATOM     32  C35 XLD d           4.241   9.607  25.202  0.00  0.00     0.046 A 
ATOM     33  H17 XLD d           2.924  10.761  26.525  0.00  0.00     0.070 H 
ATOM     34  H18 XLD d           3.143  11.483  24.895  0.00  0.00     0.070 H 
ATOM     35  O36 XLD d           3.657   8.444  24.612  0.00  0.00    -0.319 OA
ATOM     36  H19 XLD d           4.745   9.356  26.146  0.00  0.00     0.077 H 
ATOM     37  H20 XLD d           4.961  10.075  24.515  0.00  0.00     0.077 H 
ENDBRANCH  24  29
ENDBRANCH  21  24
ENDBRANCH  17  21
ENDBRANCH  11  14
ENDBRANCH   2  10
BRANCH   1  38
ATOM     38  C9  XLD d           3.962   2.405  18.576  0.00  0.00     0.259 C 
ATOM     39  N7  XLD d           4.405   2.280  19.872  0.00  0.00    -0.307 N 
ATOM     40  C1  XLD d           3.746   1.771  20.954  0.00  0.00     0.130 A 
ATOM     41  H4  XLD d           5.335   2.605  20.044  0.00  0.00     0.170 HD
ATOM     42  N2  XLD d           2.761   0.825  20.825  0.00  0.00    -0.242 NA
ATOM     43  C6  XLD d           4.119   2.195  22.254  0.00  0.00    -0.037 A 
ATOM     44  C3  XLD d           2.104   0.298  21.861  0.00  0.00     0.025 A 
ATOM     45  C4  XLD d           2.410   0.702  23.183  0.00  0.00     0.051 A 
ATOM     46  H1  XLD d           1.332  -0.444  21.688  0.00  0.00     0.117 H 
ATOM     47 CL1  XLD d           1.470   0.108  24.549  0.00  0.00    -0.083 Cl
ATOM     48  C5  XLD d           3.447   1.655  23.367  0.00  0.00    -0.057 A 
ATOM     49  H2  XLD d           3.723   1.967  24.368  0.00  0.00     0.086 H 
ATOM     50  H3  XLD d           4.910   2.924  22.389  0.00  0.00     0.089 H 
ATOM     51  O10 XLD d           2.800   2.036  18.251  0.00  0.00    -0.267 OA
ENDBRANCH   1  38
BRANCH   3  52
ATOM     52  O17 XLD d           6.174   6.080  16.063  0.00  0.00    -0.354 OA
BRANCH  52  53
ATOM     53  C18 XLD d           5.510   6.943  15.145  0.00  0.00     0.010 C 
ATOM     54  H7  XLD d           6.177   7.775  14.875  0.00  0.00     0.066 H 
ATOM     55  H8  XLD d           4.597   7.341  15.611  0.00  0.00     0.066 H 
ATOM     56  H9  XLD d           5.243   6.379  14.239  0.00  0.00     0.066 H 
ENDBRANCH  52  53
ENDBRANCH   3  52
TORSDOF 9
ENDMDL
MODEL 8
REMARK VINA RESULT:      -4.7      3.322      8.761
REMARK  9 active torsions:
REMARK  status: ('A' for Active; 'I' for Inactive)
REMARK       I    between atoms: N7_8  and  C9_9 
REMARK    1  A    between atoms: C9_9  and  C11_11 
REMARK    2  A    between atoms: C12_12  and  N19_20 
REMARK    3  A    between atoms: C13_13  and  O17_18 
REMARK    4  A    between atoms: O17_18  and  C18_19 
REMARK       I    between atoms: N19_20  and  C20_21 
REMARK    5  A    between atoms: C20_21  and  C22_23 
REMARK    6  A    between atoms: C25_26  and  C28_29 
REMARK    7  A    between atoms: C28_29  and  N29_30 
REMARK    8  A    between atoms: N29_30  and  C31_31 
REMARK    9  A    between atoms: N29_30  and  C32_32 
ROOT
ATOM      1  C11 XLD d           3.746   2.525  17.583  0.00  0.00     0.063 A 
ATOM      2  C12 XLD d           4.679   3.585  17.231  0.00  0.00     0.084 A 
ATOM      3  C13 XLD d           5.340   3.555  15.965  0.00  0.00     0.097 A 
ATOM      4  C14 XLD d           5.082   2.484  15.066  0.00  0.00    -0.028 A 
ATOM      5  C15 XLD d           4.181   1.454  15.419  0.00  0.00     0.037 A 
ATOM      6 CL2  XLD d           3.856   0.170  14.378  0.00  0.00    -0.084 Cl
ATOM      7  C16 XLD d           3.532   1.490  16.649  0.00  0.00    -0.044 A 
ATOM      8  H5  XLD d           5.580   2.457  14.104  0.00  0.00     0.090 H 
ATOM      9  H6  XLD d           2.837   0.695  16.897  0.00  0.00     0.087 H 
ENDROOT
BRANCH   2  10
ATOM     10  N19 XLD d           4.923   4.594  18.132  0.00  0.00    -0.319 N 
ATOM     11  C20 XLD d           5.907   4.629  19.080  0.00  0.00     0.264 C 
ATOM     12  O21 XLD d           6.670   3.628  19.160  0.00  0.00    -0.267 OA
ATOM     13  H10 XLD d           4.316   5.388  18.088  0.00  0.00     0.169 HD
BRANCH  11  14
ATOM     14  C22 XLD d           6.074   5.695  20.028  0.00  0.00     0.095 A 
ATOM     15  S23 XLD d           6.968   7.117  19.546  0.00  0.00    -0.094 SA
ATOM     16  C24 XLD d           6.753   7.787  21.109  0.00  0.00    -0.035 A 
ATOM     17  C25 XLD d           6.034   7.005  22.000  0.00  0.00    -0.011 A 
ATOM     18  H11 XLD d           7.153   8.762  21.384  0.00  0.00     0.096 H 
ATOM     19  C26 XLD d           5.632   5.802  21.376  0.00  0.00     0.065 A 
ATOM     20 CL3  XLD d           4.727   4.633  22.227  0.00  0.00    -0.082 Cl
BRANCH  17  21
ATOM     21  C28 XLD d           5.723   7.364  23.420  0.00  0.00     0.024 C 
ATOM     22  H12 XLD d           6.206   6.596  24.044  0.00  0.00     0.071 H 
ATOM     23  H13 XLD d           4.631   7.287  23.524  0.00  0.00     0.071 H 
BRANCH  21  24
ATOM     24  N29 XLD d           6.109   8.697  24.020  0.00  0.00    -0.346 N 
BRANCH  24  25
ATOM     25  C31 XLD d           5.159   9.329  24.976  0.00  0.00    -0.015 C 
ATOM     26  H14 XLD d           4.351   9.824  24.417  0.00  0.00     0.056 H 
ATOM     27  H15 XLD d           5.693  10.073  25.586  0.00  0.00     0.056 H 
ATOM     28  H16 XLD d           4.730   8.557  25.632  0.00  0.00     0.056 H 
ENDBRANCH  24  25
BRANCH  24  29
ATOM     29  C32 XLD d           7.461   8.744  24.445  0.00  0.00     0.239 A 
ATOM     30  N33 XLD d           8.363   9.643  23.987  0.00  0.00    -0.249 NA
ATOM     31  C34 XLD d           9.626   9.467  24.598  0.00  0.00     0.039 A 
ATOM     32  C35 XLD d           9.404   8.271  25.552  0.00  0.00     0.046 A 
ATOM     33  H17 XLD d           9.919  10.367  25.158  0.00  0.00     0.070 H 
ATOM     34  H18 XLD d          10.397   9.234  23.848  0.00  0.00     0.070 H 
ATOM     35  O36 XLD d           8.031   7.927  25.356  0.00  0.00    -0.319 OA
ATOM     36  H19 XLD d           9.588   8.564  26.597  0.00  0.00     0.077 H 
ATOM     37  H20 XLD d          10.060   7.431  25.285  0.00  0.00     0.077 H 
ENDBRANCH  24  29
ENDBRANCH  21  24
ENDBRANCH  17  21
ENDBRANCH  11  14
ENDBRANCH   2  10
BRANCH   1  38
ATOM     38  C9  XLD d           3.016   2.438  18.826  0.00  0.00     0.259 C 
ATOM     39  N7  XLD d           3.420   1.532  19.780  0.00  0.00    -0.307 N 
ATOM     40  C1  XLD d           2.855   1.261  20.993  0.00  0.00     0.130 A 
ATOM     41  H4  XLD d           4.236   1.001  19.554  0.00  0.00     0.170 HD
ATOM     42  N2  XLD d           1.517   1.449  21.229  0.00  0.00    -0.242 NA
ATOM     43  C6  XLD d           3.662   0.726  22.028  0.00  0.00    -0.037 A 
ATOM     44  C3  XLD d           0.929   1.185  22.399  0.00  0.00     0.025 A 
ATOM     45  C4  XLD d           1.688   0.676  23.481  0.00  0.00     0.051 A 
ATOM     46  H1  XLD d          -0.134   1.361  22.519  0.00  0.00     0.117 H 
ATOM     47 CL1  XLD d           0.953   0.438  25.065  0.00  0.00    -0.083 Cl
ATOM     48  C5  XLD d           3.071   0.433  23.272  0.00  0.00    -0.057 A 
ATOM     49  H2  XLD d           3.675   0.021  24.072  0.00  0.00     0.086 H 
ATOM     50  H3  XLD d           4.718   0.544  21.864  0.00  0.00     0.089 H 
ATOM     51  O10 XLD d           2.005   3.168  19.015  0.00  0.00    -0.267 OA
ENDBRANCH   1  38
BRANCH   3  52
ATOM     52  O17 XLD d           6.204   4.564  15.660  0.00  0.00    -0.354 OA
BRANCH  52  53
ATOM     53  C18 XLD d           5.959   5.796  14.990  0.00  0.00     0.010 C 
ATOM     54  H7  XLD d           5.057   6.267  15.407  0.00  0.00     0.066 H 
ATOM     55  H8  XLD d           5.812   5.607  13.917  0.00  0.00     0.066 H 
ATOM     56  H9  XLD d           6.820   6.467  15.130  0.00  0.00     0.066 H 
ENDBRANCH  52  53
ENDBRANCH   3  52
TORSDOF 9
ENDMDL
MODEL 9
REMARK VINA RESULT:      -4.2      3.255      8.988
REMARK  9 active torsions:
REMARK  status: ('A' for Active; 'I' for Inactive)
REMARK       I    between atoms: N7_8  and  C9_9 
REMARK    1  A    between atoms: C9_9  and  C11_11 
REMARK    2  A    between atoms: C12_12  and  N19_20 
REMARK    3  A    between atoms: C13_13  and  O17_18 
REMARK    4  A    between atoms: O17_18  and  C18_19 
REMARK       I    between atoms: N19_20  and  C20_21 
REMARK    5  A    between atoms: C20_21  and  C22_23 
REMARK    6  A    between atoms: C25_26  and  C28_29 
REMARK    7  A    between atoms: C28_29  and  N29_30 
REMARK    8  A    between atoms: N29_30  and  C31_31 
REMARK    9  A    between atoms: N29_30  and  C32_32 
ROOT
ATOM      1  C11 XLD d           3.242   3.098  17.215  0.00  0.00     0.063 A 
ATOM      2  C12 XLD d           4.339   3.825  16.594  0.00  0.00     0.084 A 
ATOM      3  C13 XLD d           4.879   3.365  15.354  0.00  0.00     0.097 A 
ATOM      4  C14 XLD d           4.343   2.198  14.746  0.00  0.00    -0.028 A 
ATOM      5  C15 XLD d           3.283   1.494  15.361  0.00  0.00     0.037 A 
ATOM      6 CL2  XLD d           2.626   0.106  14.667  0.00  0.00    -0.084 Cl
ATOM      7  C16 XLD d           2.751   1.948  16.563  0.00  0.00    -0.044 A 
ATOM      8  H5  XLD d           4.749   1.846  13.805  0.00  0.00     0.090 H 
ATOM      9  H6  XLD d           1.932   1.399  17.014  0.00  0.00     0.087 H 
ENDROOT
BRANCH   2  10
ATOM     10  N19 XLD d           4.851   4.937  17.219  0.00  0.00    -0.319 N 
ATOM     11  C20 XLD d           5.867   4.971  18.133  0.00  0.00     0.264 C 
ATOM     12  O21 XLD d           6.390   3.871  18.459  0.00  0.00    -0.267 OA
ATOM     13  H10 XLD d           4.435   5.815  16.979  0.00  0.00     0.169 HD
BRANCH  11  14
ATOM     14  C22 XLD d           6.319   6.166  18.790  0.00  0.00     0.095 A 
ATOM     15  S23 XLD d           5.809   7.716  18.162  0.00  0.00    -0.094 SA
ATOM     16  C24 XLD d           6.732   8.512  19.368  0.00  0.00    -0.035 A 
ATOM     17  C25 XLD d           7.417   7.680  20.241  0.00  0.00    -0.011 A 
ATOM     18  H11 XLD d           6.778   9.597  19.443  0.00  0.00     0.096 H 
ATOM     19  C26 XLD d           7.172   6.326  19.917  0.00  0.00     0.065 A 
ATOM     20 CL3  XLD d           7.883   5.066  20.820  0.00  0.00    -0.082 Cl
BRANCH  17  21
ATOM     21  C28 XLD d           8.296   8.133  21.366  0.00  0.00     0.024 C 
ATOM     22  H12 XLD d           8.798   9.047  21.015  0.00  0.00     0.071 H 
ATOM     23  H13 XLD d           9.042   7.339  21.511  0.00  0.00     0.071 H 
BRANCH  21  24
ATOM     24  N29 XLD d           7.750   8.454  22.739  0.00  0.00    -0.346 N 
BRANCH  24  25
ATOM     25  C31 XLD d           6.599   7.649  23.233  0.00  0.00    -0.015 C 
ATOM     26  H14 XLD d           6.636   6.644  22.786  0.00  0.00     0.056 H 
ATOM     27  H15 XLD d           5.658   8.143  22.950  0.00  0.00     0.056 H 
ATOM     28  H16 XLD d           6.654   7.564  24.329  0.00  0.00     0.056 H 
ENDBRANCH  24  25
BRANCH  24  29
ATOM     29  C32 XLD d           8.766   8.651  23.708  0.00  0.00     0.239 A 
ATOM     30  N33 XLD d           8.833   7.970  24.876  0.00  0.00    -0.249 NA
ATOM     31  C34 XLD d           9.960   8.358  25.638  0.00  0.00     0.039 A 
ATOM     32  C35 XLD d          10.636   9.437  24.761  0.00  0.00     0.046 A 
ATOM     33  H17 XLD d          10.635   7.506  25.802  0.00  0.00     0.070 H 
ATOM     34  H18 XLD d           9.653   8.776  26.608  0.00  0.00     0.070 H 
ATOM     35  O36 XLD d           9.797   9.516  23.607  0.00  0.00    -0.319 OA
ATOM     36  H19 XLD d          11.656   9.134  24.482  0.00  0.00     0.077 H 
ATOM     37  H20 XLD d          10.671  10.403  25.286  0.00  0.00     0.077 H 
ENDBRANCH  24  29
ENDBRANCH  21  24
ENDBRANCH  17  21
ENDBRANCH  11  14
ENDBRANCH   2  10
BRANCH   1  38
ATOM     38  C9  XLD d           2.608   3.456  18.463  0.00  0.00     0.259 C 
ATOM     39  N7  XLD d           3.363   4.029  19.460  0.00  0.00    -0.307 N 
ATOM     40  C1  XLD d           2.978   4.403  20.715  0.00  0.00     0.130 A 
ATOM     41  H4  XLD d           4.323   4.193  19.235  0.00  0.00     0.170 HD
ATOM     42  N2  XLD d           1.939   3.791  21.368  0.00  0.00    -0.242 NA
ATOM     43  C6  XLD d           3.699   5.422  21.386  0.00  0.00    -0.037 A 
ATOM     44  C3  XLD d           1.542   4.122  22.599  0.00  0.00     0.025 A 
ATOM     45  C4  XLD d           2.204   5.153  23.310  0.00  0.00     0.051 A 
ATOM     46  H1  XLD d           0.708   3.600  23.056  0.00  0.00     0.117 H 
ATOM     47 CL1  XLD d           1.616   5.685  24.884  0.00  0.00    -0.083 Cl
ATOM     48  C5  XLD d           3.308   5.792  22.687  0.00  0.00    -0.057 A 
ATOM     49  H2  XLD d           3.852   6.568  23.214  0.00  0.00     0.086 H 
ATOM     50  H3  XLD d           4.540   5.908  20.905  0.00  0.00     0.089 H 
ATOM     51  O10 XLD d           1.382   3.217  18.638  0.00  0.00    -0.267 OA
ENDBRANCH   1  38
BRANCH   3  52
ATOM     52  O17 XLD d           5.904   4.069  14.793  0.00  0.00    -0.354 OA
BRANCH  52  53
ATOM     53  C18 XLD d           5.947   5.431  14.378  0.00  0.00     0.010 C 
ATOM     54  H7  XLD d           6.984   5.708  14.138  0.00  0.00     0.066 H 
ATOM     55  H8  XLD d           5.574   6.073  15.189  0.00  0.00     0.066 H 
ATOM     56  H9  XLD d           5.318   5.563  13.486  0.00  0.00     0.066 H 
ENDBRANCH  52  53
ENDBRANCH   3  52
TORSDOF 9
ENDMDL
MODEL 10
REMARK VINA RESULT:      -4.1      3.472      5.504
REMARK  9 active torsions:
REMARK  status: ('A' for Active; 'I' for Inactive)
REMARK       I    between atoms: N7_8  and  C9_9 
REMARK    1  A    between atoms: C9_9  and  C11_11 
REMARK    2  A    between atoms: C12_12  and  N19_20 
REMARK    3  A    between atoms: C13_13  and  O17_18 
REMARK    4  A    between atoms: O17_18  and  C18_19 
REMARK       I    between atoms: N19_20  and  C20_21 
REMARK    5  A    between atoms: C20_21  and  C22_23 
REMARK    6  A    between atoms: C25_26  and  C28_29 
REMARK    7  A    between atoms: C28_29  and  N29_30 
REMARK    8  A    between atoms: N29_30  and  C31_31 
REMARK    9  A    between atoms: N29_30  and  C32_32 
ROOT
ATOM      1  C11 XLD d           4.008   8.375  22.385  0.00  0.00     0.063 A 
ATOM      2  C12 XLD d           5.319   7.779  22.602  0.00  0.00     0.084 A 
ATOM      3  C13 XLD d           5.974   7.952  23.860  0.00  0.00     0.097 A 
ATOM      4  C14 XLD d           5.339   8.710  24.882  0.00  0.00    -0.028 A 
ATOM      5  C15 XLD d           4.070   9.291  24.659  0.00  0.00     0.037 A 
ATOM      6 CL2  XLD d           3.293  10.196  25.848  0.00  0.00    -0.084 Cl
ATOM      7  C16 XLD d           3.430   9.114  23.437  0.00  0.00    -0.044 A 
ATOM      8  H5  XLD d           5.832   8.842  25.839  0.00  0.00     0.090 H 
ATOM      9  H6  XLD d           2.453   9.560  23.289  0.00  0.00     0.087 H 
ENDROOT
BRANCH   2  10
ATOM     10  N19 XLD d           5.915   7.072  21.586  0.00  0.00    -0.319 N 
ATOM     11  C20 XLD d           5.710   5.759  21.268  0.00  0.00     0.264 C 
ATOM     12  O21 XLD d           4.901   5.108  21.985  0.00  0.00    -0.267 OA
ATOM     13  H10 XLD d           6.570   7.573  21.018  0.00  0.00     0.169 HD
BRANCH  11  14
ATOM     14  C22 XLD d           6.409   5.064  20.222  0.00  0.00     0.095 A 
ATOM     15  S23 XLD d           7.720   3.992  20.654  0.00  0.00    -0.094 SA
ATOM     16  C24 XLD d           7.995   3.655  18.997  0.00  0.00    -0.035 A 
ATOM     17  C25 XLD d           7.149   4.302  18.107  0.00  0.00    -0.011 A 
ATOM     18  H11 XLD d           8.780   2.978  18.663  0.00  0.00     0.096 H 
ATOM     19  C26 XLD d           6.226   5.107  18.812  0.00  0.00     0.065 A 
ATOM     20 CL3  XLD d           5.054   6.028  17.983  0.00  0.00    -0.082 Cl
BRANCH  17  21
ATOM     21  C28 XLD d           7.196   4.179  16.615  0.00  0.00     0.024 C 
ATOM     22  H12 XLD d           8.236   4.390  16.323  0.00  0.00     0.071 H 
ATOM     23  H13 XLD d           6.538   4.968  16.222  0.00  0.00     0.071 H 
BRANCH  21  24
ATOM     24  N29 XLD d           6.806   2.908  15.896  0.00  0.00    -0.346 N 
BRANCH  24  25
ATOM     25  C31 XLD d           7.676   1.713  16.078  0.00  0.00    -0.015 C 
ATOM     26  H14 XLD d           7.048   0.818  16.201  0.00  0.00     0.056 H 
ATOM     27  H15 XLD d           8.303   1.849  16.973  0.00  0.00     0.056 H 
ATOM     28  H16 XLD d           8.320   1.590  15.194  0.00  0.00     0.056 H 
ENDBRANCH  24  25
BRANCH  24  29
ATOM     29  C32 XLD d           5.421   2.623  15.985  0.00  0.00     0.239 A 
ATOM     30  N33 XLD d           4.456   3.402  15.442  0.00  0.00    -0.249 NA
ATOM     31  C34 XLD d           3.167   2.865  15.669  0.00  0.00     0.039 A 
ATOM     32  C35 XLD d           3.449   1.576  16.476  0.00  0.00     0.046 A 
ATOM     33  H17 XLD d           2.666   2.632  14.719  0.00  0.00     0.070 H 
ATOM     34  H18 XLD d           2.547   3.563  16.250  0.00  0.00     0.070 H 
ATOM     35  O36 XLD d           4.873   1.552  16.597  0.00  0.00    -0.319 OA
ATOM     36  H19 XLD d           3.088   0.689  15.935  0.00  0.00     0.077 H 
ATOM     37  H20 XLD d           2.973   1.622  17.466  0.00  0.00     0.077 H 
ENDBRANCH  24  29
ENDBRANCH  21  24
ENDBRANCH  17  21
ENDBRANCH  11  14
ENDBRANCH   2  10
BRANCH   1  38
ATOM     38  C9  XLD d           3.242   8.276  21.164  0.00  0.00     0.259 C 
ATOM     39  N7  XLD d           3.582   9.068  20.092  0.00  0.00    -0.307 N 
ATOM     40  C1  XLD d           2.975   9.161  18.873  0.00  0.00     0.130 A 
ATOM     41  H4  XLD d           4.381   9.654  20.224  0.00  0.00     0.170 HD
ATOM     42  N2  XLD d           1.640   8.895  18.704  0.00  0.00    -0.242 NA
ATOM     43  C6  XLD d           3.731   9.591  17.754  0.00  0.00    -0.037 A 
ATOM     44  C3  XLD d           1.010   8.986  17.531  0.00  0.00     0.025 A 
ATOM     45  C4  XLD d           1.718   9.382  16.369  0.00  0.00     0.051 A 
ATOM     46  H1  XLD d          -0.047   8.756  17.467  0.00  0.00     0.117 H 
ATOM     47 CL1  XLD d           0.932   9.389  14.792  0.00  0.00    -0.083 Cl
ATOM     48  C5  XLD d           3.095   9.701  16.502  0.00  0.00    -0.057 A 
ATOM     49  H2  XLD d           3.660  10.032  15.638  0.00  0.00     0.086 H 
ATOM     50  H3  XLD d           4.782   9.832  17.860  0.00  0.00     0.089 H 
ATOM     51  O10 XLD d           2.257   7.490  21.101  0.00  0.00    -0.267 OA
ENDBRANCH   1  38
BRANCH   3  52
ATOM     52  O17 XLD d           7.198   7.380  24.037  0.00  0.00    -0.354 OA
BRANCH  52  53
ATOM     53  C18 XLD d           8.463   7.996  24.257  0.00  0.00     0.010 C 
ATOM     54  H7  XLD d           8.360   8.784  25.018  0.00  0.00     0.066 H 
ATOM     55  H8  XLD d           8.824   8.438  23.317  0.00  0.00     0.066 H 
ATOM     56  H9  XLD d           9.183   7.241  24.607  0.00  0.00     0.066 H 
ENDBRANCH  52  53
ENDBRANCH   3  52
TORSDOF 9
ENDMDL
