MODEL 1
REMARK VINA RESULT:      -7.4      0.000      0.000
REMARK  2 active torsions:
REMARK  status: ('A' for Active; 'I' for Inactive)
REMARK    1  A    between atoms: C6_1  and  N4_2 
REMARK    2  A    between atoms: C8_7  and  N2_8 
ROOT
ATOM      1  C6  DQU d          18.264  16.763  19.164  0.00  0.00     0.026 C 
ATOM      2  C1  DQU d          16.954  16.465  18.775  0.00  0.00    -0.056 C 
ATOM      3  C2  DQU d          15.972  16.260  19.720  0.00  0.00    -0.051 C 
ATOM      4  C3  DQU d          16.267  16.489  21.083  0.00  0.00     0.091 A 
ATOM      5  N3  DQU d          15.278  16.406  22.041  0.00  0.00    -0.064 NA
ATOM      6  C8  DQU d          15.522  16.579  23.312  0.00  0.00     0.701 A 
ATOM      7  N1  DQU d          16.796  16.958  23.794  0.00  0.00    -0.154 N 
ATOM      8  C7  DQU d          17.838  17.138  22.861  0.00  0.00     0.272 A 
ATOM      9  O1  DQU d          18.999  17.359  23.238  0.00  0.00    -0.267 OA
ATOM     10  C4  DQU d          17.564  16.904  21.450  0.00  0.00     0.064 A 
ATOM     11  C5  DQU d          18.535  17.087  20.472  0.00  0.00    -0.040 C 
ATOM     12  H3  DQU d          16.709  16.393  17.722  0.00  0.00     0.087 H 
ATOM     13  H4  DQU d          14.984  15.929  19.422  0.00  0.00     0.087 H 
ATOM     14  H7  DQU d          16.954  17.096  24.772  0.00  0.00     0.187 HD
ATOM     15  H8  DQU d          19.506  17.486  20.742  0.00  0.00     0.088 H 
ENDROOT
BRANCH   1  16
ATOM     16  N4  DQU d          19.282  17.051  18.105  0.00  0.00    -0.399 N 
ATOM     17  H1  DQU d          19.613  18.014  17.957  0.00  0.00     0.156 HD
ATOM     18  H2  DQU d          19.650  16.285  17.523  0.00  0.00     0.156 HD
ENDBRANCH   1  16
BRANCH   6  19
ATOM     19  N2  DQU d          14.535  16.465  24.287  0.00  0.00    -0.233 N 
ATOM     20  H5  DQU d          13.621  16.054  24.049  0.00  0.00     0.174 HD
ATOM     21  H6  DQU d          14.718  16.794  25.246  0.00  0.00     0.174 HD
ENDBRANCH   6  19
TORSDOF 2
ENDMDL
MODEL 2
REMARK VINA RESULT:      -6.8      1.933      4.972
REMARK  2 active torsions:
REMARK  status: ('A' for Active; 'I' for Inactive)
REMARK    1  A    between atoms: C6_1  and  N4_2 
REMARK    2  A    between atoms: C8_7  and  N2_8 
ROOT
ATOM      1  C6  DQU d          16.135  16.494  22.985  0.00  0.00     0.026 C 
ATOM      2  C1  DQU d          17.451  16.891  23.244  0.00  0.00    -0.056 C 
ATOM      3  C2  DQU d          18.363  17.011  22.217  0.00  0.00    -0.051 C 
ATOM      4  C3  DQU d          17.923  16.861  20.882  0.00  0.00     0.091 A 
ATOM      5  N3  DQU d          18.782  17.089  19.828  0.00  0.00    -0.064 NA
ATOM      6  C8  DQU d          18.418  16.928  18.584  0.00  0.00     0.701 A 
ATOM      7  N1  DQU d          17.091  16.604  18.219  0.00  0.00    -0.154 N 
ATOM      8  C7  DQU d          16.138  16.434  19.245  0.00  0.00     0.272 A 
ATOM      9  O1  DQU d          14.990  16.038  18.987  0.00  0.00    -0.267 OA
ATOM     10  C4  DQU d          16.565  16.576  20.630  0.00  0.00     0.064 A 
ATOM     11  C5  DQU d          15.675  16.448  21.690  0.00  0.00    -0.040 C 
ATOM     12  H3  DQU d          17.757  17.106  24.261  0.00  0.00     0.087 H 
ATOM     13  H4  DQU d          19.405  17.218  22.430  0.00  0.00     0.087 H 
ATOM     14  H7  DQU d          16.835  16.497  17.258  0.00  0.00     0.187 HD
ATOM     15  H8  DQU d          14.617  16.313  21.496  0.00  0.00     0.088 H 
ENDROOT
BRANCH   1  16
ATOM     16  N4  DQU d          15.160  16.450  24.118  0.00  0.00    -0.399 N 
ATOM     17  H1  DQU d          14.806  15.545  24.458  0.00  0.00     0.156 HD
ATOM     18  H2  DQU d          14.843  17.325  24.560  0.00  0.00     0.156 HD
ENDBRANCH   1  16
BRANCH   6  19
ATOM     19  N2  DQU d          19.290  17.125  17.517  0.00  0.00    -0.233 N 
ATOM     20  H5  DQU d          19.007  17.716  16.723  0.00  0.00     0.174 HD
ATOM     21  H6  DQU d          20.219  16.678  17.522  0.00  0.00     0.174 HD
ENDBRANCH   6  19
TORSDOF 2
ENDMDL
MODEL 3
REMARK VINA RESULT:      -5.3      1.861      2.660
REMARK  2 active torsions:
REMARK  status: ('A' for Active; 'I' for Inactive)
REMARK    1  A    between atoms: C6_1  and  N4_2 
REMARK    2  A    between atoms: C8_7  and  N2_8 
ROOT
ATOM      1  C6  DQU d          18.783  17.110  18.601  0.00  0.00     0.026 C 
ATOM      2  C1  DQU d          19.632  17.295  19.696  0.00  0.00    -0.056 C 
ATOM      3  C2  DQU d          19.133  17.280  20.981  0.00  0.00    -0.051 C 
ATOM      4  C3  DQU d          17.778  16.941  21.191  0.00  0.00     0.091 A 
ATOM      5  N3  DQU d          17.276  16.803  22.468  0.00  0.00    -0.064 NA
ATOM      6  C8  DQU d          16.022  16.523  22.700  0.00  0.00     0.701 A 
ATOM      7  N1  DQU d          15.104  16.245  21.660  0.00  0.00    -0.154 N 
ATOM      8  C7  DQU d          15.568  16.290  20.329  0.00  0.00     0.272 A 
ATOM      9  O1  DQU d          14.782  16.166  19.377  0.00  0.00    -0.267 OA
ATOM     10  C4  DQU d          16.960  16.642  20.083  0.00  0.00     0.064 A 
ATOM     11  C5  DQU d          17.491  16.680  18.799  0.00  0.00    -0.040 C 
ATOM     12  H3  DQU d          20.692  17.451  19.534  0.00  0.00     0.087 H 
ATOM     13  H4  DQU d          19.774  17.524  21.821  0.00  0.00     0.087 H 
ATOM     14  H7  DQU d          14.151  16.022  21.864  0.00  0.00     0.187 HD
ATOM     15  H8  DQU d          16.888  16.370  17.953  0.00  0.00     0.088 H 
ENDROOT
BRANCH   1  16
ATOM     16  N4  DQU d          19.377  17.059  17.229  0.00  0.00    -0.399 N 
ATOM     17  H1  DQU d          20.399  17.075  17.109  0.00  0.00     0.156 HD
ATOM     18  H2  DQU d          18.763  17.008  16.403  0.00  0.00     0.156 HD
ENDBRANCH   1  16
BRANCH   6  19
ATOM     19  N2  DQU d          15.503  16.415  23.987  0.00  0.00    -0.233 N 
ATOM     20  H5  DQU d          15.130  15.514  24.317  0.00  0.00     0.174 HD
ATOM     21  H6  DQU d          15.493  17.237  24.609  0.00  0.00     0.174 HD
ENDBRANCH   6  19
TORSDOF 2
ENDMDL
