REMARK  5 active torsions:
REMARK  status: ('A' for Active; 'I' for Inactive)
REMARK    1  A    between atoms: C11_2  and  O1_3 
REMARK    2  A    between atoms: C11_2  and  C13_14 
REMARK    3  A    between atoms: O1_3  and  C2_4 
REMARK    4  A    between atoms: C7_5  and  C1_6 
REMARK    5  A    between atoms: C3_10  and  C8_11 
ROOT
ATOM      1  C2  M3S d          35.726  40.714  -3.269  0.00  0.00     0.102 A 
ATOM      2  C7  M3S d          35.810  39.546  -2.489  0.00  0.00    -0.027 A 
ATOM      3  C6  M3S d          35.866  38.306  -3.130  0.00  0.00    -0.074 A 
ATOM      4  C5  M3S d          35.845  38.230  -4.527  0.00  0.00    -0.081 A 
ATOM      5  C4  M3S d          35.762  39.399  -5.305  0.00  0.00    -0.064 A 
ATOM      6  C3  M3S d          35.702  40.637  -4.657  0.00  0.00     0.075 A 
ATOM      7  H4  M3S d          35.926  37.398  -2.542  0.00  0.00     0.084 H 
ATOM      8  H5  M3S d          35.893  37.263  -5.014  0.00  0.00     0.083 H 
ATOM      9  H6  M3S d          35.745  39.341  -6.387  0.00  0.00     0.085 H 
ENDROOT
BRANCH   1  10
ATOM     10  O1  M3S d          35.671  41.904  -2.574  0.00  0.00    -0.278 OA
BRANCH  10  11
ATOM     11  C11 M3S d          36.750  42.709  -2.595  0.00  0.00     0.260 C 
ATOM     12  O12 M3S d          37.651  42.406  -3.372  0.00  0.00    -0.265 OA
BRANCH  11  13
ATOM     13  C13 M3S d          36.708  43.922  -1.715  0.00  0.00     0.004 C 
ATOM     14  H7  M3S d          37.644  44.489  -1.827  0.00  0.00     0.041 H 
ATOM     15  H8  M3S d          36.591  43.611  -0.667  0.00  0.00     0.041 H 
ATOM     16  H9  M3S d          35.858  44.557  -2.006  0.00  0.00     0.041 H 
ENDBRANCH  11  13
ENDBRANCH  10  11
ENDBRANCH   1  10
BRANCH   2  17
ATOM     17  C1  M3S d          35.836  39.672  -0.966  0.00  0.00    -0.049 C 
ATOM     18  H1  M3S d          35.903  38.670  -0.516  0.00  0.00     0.033 H 
ATOM     19  H2  M3S d          34.915  40.167  -0.623  0.00  0.00     0.033 H 
ATOM     20  H3  M3S d          36.708  40.270  -0.662  0.00  0.00     0.033 H 
ENDBRANCH   2  17
BRANCH   6  21
ATOM     21  C8  M3S d          35.612  41.930  -5.563  0.00  0.00     0.212 C 
ATOM     22  O10 M3S d          34.835  42.884  -5.113  0.00  0.00    -0.644 OA
ATOM     23  O9  M3S d          36.363  41.894  -6.615  0.00  0.00    -0.644 OA
ENDBRANCH   6  21
TORSDOF 5
