MODEL 1
REMARK VINA RESULT:      -4.8      0.000      0.000
REMARK  5 active torsions:
REMARK  status: ('A' for Active; 'I' for Inactive)
REMARK    1  A    between atoms: C11_2  and  O1_3 
REMARK    2  A    between atoms: C11_2  and  C13_14 
REMARK    3  A    between atoms: O1_3  and  C2_4 
REMARK    4  A    between atoms: C7_5  and  C1_6 
REMARK    5  A    between atoms: C3_10  and  C8_11 
ROOT
ATOM      1  C2  M3S d          35.734  40.244  -2.849  0.00  0.00     0.102 A 
ATOM      2  C7  M3S d          35.926  40.624  -1.508  0.00  0.00    -0.027 A 
ATOM      3  C6  M3S d          36.383  39.672  -0.593  0.00  0.00    -0.074 A 
ATOM      4  C5  M3S d          36.650  38.363  -1.009  0.00  0.00    -0.081 A 
ATOM      5  C4  M3S d          36.458  37.986  -2.350  0.00  0.00    -0.064 A 
ATOM      6  C3  M3S d          35.996  38.942  -3.260  0.00  0.00     0.075 A 
ATOM      7  H4  M3S d          36.531  39.949   0.443  0.00  0.00     0.084 H 
ATOM      8  H5  M3S d          37.008  37.633  -0.292  0.00  0.00     0.083 H 
ATOM      9  H6  M3S d          36.664  36.972  -2.673  0.00  0.00     0.085 H 
ENDROOT
BRANCH   1  10
ATOM     10  O1  M3S d          35.278  41.231  -3.699  0.00  0.00    -0.278 OA
BRANCH  10  11
ATOM     11  C11 M3S d          36.132  41.737  -4.609  0.00  0.00     0.260 C 
ATOM     12  O12 M3S d          35.681  41.953  -5.730  0.00  0.00    -0.265 OA
BRANCH  11  13
ATOM     13  C13 M3S d          37.522  42.041  -4.138  0.00  0.00     0.004 C 
ATOM     14  H7  M3S d          37.925  41.172  -3.598  0.00  0.00     0.041 H 
ATOM     15  H8  M3S d          37.501  42.912  -3.468  0.00  0.00     0.041 H 
ATOM     16  H9  M3S d          38.163  42.262  -5.005  0.00  0.00     0.041 H 
ENDBRANCH  11  13
ENDBRANCH  10  11
ENDBRANCH   1  10
BRANCH   2  17
ATOM     17  C1  M3S d          35.628  42.065  -1.096  0.00  0.00    -0.049 C 
ATOM     18  H1  M3S d          35.717  42.160  -0.003  0.00  0.00     0.033 H 
ATOM     19  H2  M3S d          34.606  42.331  -1.405  0.00  0.00     0.033 H 
ATOM     20  H3  M3S d          36.346  42.742  -1.583  0.00  0.00     0.033 H 
ENDBRANCH   2  17
BRANCH   6  21
ATOM     21  C8  M3S d          35.794  38.484  -4.760  0.00  0.00     0.212 C 
ATOM     22  O10 M3S d          36.891  38.204  -5.419  0.00  0.00    -0.644 OA
ATOM     23  O9  M3S d          34.557  38.397  -5.126  0.00  0.00    -0.644 OA
ENDBRANCH   6  21
TORSDOF 5
ENDMDL
MODEL 2
REMARK VINA RESULT:      -4.6      1.871      3.349
REMARK  5 active torsions:
REMARK  status: ('A' for Active; 'I' for Inactive)
REMARK    1  A    between atoms: C11_2  and  O1_3 
REMARK    2  A    between atoms: C11_2  and  C13_14 
REMARK    3  A    between atoms: O1_3  and  C2_4 
REMARK    4  A    between atoms: C7_5  and  C1_6 
REMARK    5  A    between atoms: C3_10  and  C8_11 
ROOT
ATOM      1  C2  M3S d          36.531  40.120  -2.920  0.00  0.00     0.102 A 
ATOM      2  C7  M3S d          36.445  38.776  -2.514  0.00  0.00    -0.027 A 
ATOM      3  C6  M3S d          36.131  37.800  -3.463  0.00  0.00    -0.074 A 
ATOM      4  C5  M3S d          35.912  38.157  -4.798  0.00  0.00    -0.081 A 
ATOM      5  C4  M3S d          35.999  39.501  -5.202  0.00  0.00    -0.064 A 
ATOM      6  C3  M3S d          36.310  40.474  -4.246  0.00  0.00     0.075 A 
ATOM      7  H4  M3S d          36.057  36.762  -3.163  0.00  0.00     0.084 H 
ATOM      8  H5  M3S d          35.673  37.391  -5.527  0.00  0.00     0.083 H 
ATOM      9  H6  M3S d          35.828  39.779  -6.236  0.00  0.00     0.085 H 
ENDROOT
BRANCH   1  10
ATOM     10  O1  M3S d          36.842  41.033  -1.933  0.00  0.00    -0.278 OA
BRANCH  10  11
ATOM     11  C11 M3S d          35.884  41.886  -1.524  0.00  0.00     0.260 C 
ATOM     12  O12 M3S d          34.772  41.409  -1.314  0.00  0.00    -0.265 OA
BRANCH  11  13
ATOM     13  C13 M3S d          36.293  43.312  -1.308  0.00  0.00     0.004 C 
ATOM     14  H7  M3S d          35.715  43.736  -0.474  0.00  0.00     0.041 H 
ATOM     15  H8  M3S d          36.099  43.892  -2.221  0.00  0.00     0.041 H 
ATOM     16  H9  M3S d          37.366  43.353  -1.068  0.00  0.00     0.041 H 
ENDBRANCH  11  13
ENDBRANCH  10  11
ENDBRANCH   1  10
BRANCH   2  17
ATOM     17  C1  M3S d          36.698  38.427  -1.047  0.00  0.00    -0.049 C 
ATOM     18  H1  M3S d          37.294  37.504  -0.987  0.00  0.00     0.033 H 
ATOM     19  H2  M3S d          35.735  38.276  -0.535  0.00  0.00     0.033 H 
ATOM     20  H3  M3S d          37.244  39.250  -0.563  0.00  0.00     0.033 H 
ENDBRANCH   2  17
BRANCH   6  21
ATOM     21  C8  M3S d          36.402  41.974  -4.736  0.00  0.00     0.212 C 
ATOM     22  O10 M3S d          37.550  42.569  -4.527  0.00  0.00    -0.644 OA
ATOM     23  O9  M3S d          35.337  42.405  -5.329  0.00  0.00    -0.644 OA
ENDBRANCH   6  21
TORSDOF 5
ENDMDL
MODEL 3
REMARK VINA RESULT:      -4.5      1.344      3.414
REMARK  5 active torsions:
REMARK  status: ('A' for Active; 'I' for Inactive)
REMARK    1  A    between atoms: C11_2  and  O1_3 
REMARK    2  A    between atoms: C11_2  and  C13_14 
REMARK    3  A    between atoms: O1_3  and  C2_4 
REMARK    4  A    between atoms: C7_5  and  C1_6 
REMARK    5  A    between atoms: C3_10  and  C8_11 
ROOT
ATOM      1  C2  M3S d          35.868  40.532  -2.714  0.00  0.00     0.102 A 
ATOM      2  C7  M3S d          36.049  40.377  -1.328  0.00  0.00    -0.027 A 
ATOM      3  C6  M3S d          36.416  41.487  -0.564  0.00  0.00    -0.074 A 
ATOM      4  C5  M3S d          36.594  42.736  -1.170  0.00  0.00    -0.081 A 
ATOM      5  C4  M3S d          36.412  42.889  -2.557  0.00  0.00    -0.064 A 
ATOM      6  C3  M3S d          36.048  41.772  -3.316  0.00  0.00     0.075 A 
ATOM      7  H4  M3S d          36.563  41.381   0.504  0.00  0.00     0.084 H 
ATOM      8  H5  M3S d          36.875  43.591  -0.568  0.00  0.00     0.083 H 
ATOM      9  H6  M3S d          36.550  43.855  -3.027  0.00  0.00     0.085 H 
ENDROOT
BRANCH   1  10
ATOM     10  O1  M3S d          35.509  39.396  -3.409  0.00  0.00    -0.278 OA
BRANCH  10  11
ATOM     11  C11 M3S d          36.388  38.878  -4.288  0.00  0.00     0.260 C 
ATOM     12  O12 M3S d          37.557  38.801  -3.920  0.00  0.00    -0.265 OA
BRANCH  11  13
ATOM     13  C13 M3S d          35.835  38.392  -5.594  0.00  0.00     0.004 C 
ATOM     14  H7  M3S d          35.844  37.292  -5.609  0.00  0.00     0.041 H 
ATOM     15  H8  M3S d          36.452  38.775  -6.419  0.00  0.00     0.041 H 
ATOM     16  H9  M3S d          34.802  38.752  -5.711  0.00  0.00     0.041 H 
ENDBRANCH  11  13
ENDBRANCH  10  11
ENDBRANCH   1  10
BRANCH   2  17
ATOM     17  C1  M3S d          35.839  38.998  -0.703  0.00  0.00    -0.049 C 
ATOM     18  H1  M3S d          35.218  39.095   0.201  0.00  0.00     0.033 H 
ATOM     19  H2  M3S d          36.814  38.565  -0.432  0.00  0.00     0.033 H 
ATOM     20  H3  M3S d          35.335  38.340  -1.426  0.00  0.00     0.033 H 
ENDBRANCH   2  17
BRANCH   6  21
ATOM     21  C8  M3S d          35.849  41.982  -4.871  0.00  0.00     0.212 C 
ATOM     22  O10 M3S d          34.609  41.964  -5.291  0.00  0.00    -0.644 OA
ATOM     23  O9  M3S d          36.946  42.194  -5.522  0.00  0.00    -0.644 OA
ENDBRANCH   6  21
TORSDOF 5
ENDMDL
MODEL 4
REMARK VINA RESULT:      -4.5      1.433      2.117
REMARK  5 active torsions:
REMARK  status: ('A' for Active; 'I' for Inactive)
REMARK    1  A    between atoms: C11_2  and  O1_3 
REMARK    2  A    between atoms: C11_2  and  C13_14 
REMARK    3  A    between atoms: O1_3  and  C2_4 
REMARK    4  A    between atoms: C7_5  and  C1_6 
REMARK    5  A    between atoms: C3_10  and  C8_11 
ROOT
ATOM      1  C2  M3S d          35.846  40.841  -2.483  0.00  0.00     0.102 A 
ATOM      2  C7  M3S d          36.124  40.337  -1.199  0.00  0.00    -0.027 A 
ATOM      3  C6  M3S d          36.411  38.978  -1.053  0.00  0.00    -0.074 A 
ATOM      4  C5  M3S d          36.427  38.134  -2.169  0.00  0.00    -0.081 A 
ATOM      5  C4  M3S d          36.150  38.640  -3.452  0.00  0.00    -0.064 A 
ATOM      6  C3  M3S d          35.859  40.001  -3.591  0.00  0.00     0.075 A 
ATOM      7  H4  M3S d          36.622  38.575  -0.070  0.00  0.00     0.084 H 
ATOM      8  H5  M3S d          36.655  37.081  -2.045  0.00  0.00     0.083 H 
ATOM      9  H6  M3S d          36.161  37.987  -4.316  0.00  0.00     0.085 H 
ENDROOT
BRANCH   1  10
ATOM     10  O1  M3S d          35.569  42.190  -2.557  0.00  0.00    -0.278 OA
BRANCH  10  11
ATOM     11  C11 M3S d          36.590  43.061  -2.457  0.00  0.00     0.260 C 
ATOM     12  O12 M3S d          37.557  42.867  -3.189  0.00  0.00    -0.265 OA
BRANCH  11  13
ATOM     13  C13 M3S d          36.412  44.210  -1.510  0.00  0.00     0.004 C 
ATOM     14  H7  M3S d          35.428  44.134  -1.024  0.00  0.00     0.041 H 
ATOM     15  H8  M3S d          36.474  45.156  -2.066  0.00  0.00     0.041 H 
ATOM     16  H9  M3S d          37.202  44.181  -0.745  0.00  0.00     0.041 H 
ENDBRANCH  11  13
ENDBRANCH  10  11
ENDBRANCH   1  10
BRANCH   2  17
ATOM     17  C1  M3S d          36.103  41.293  -0.007  0.00  0.00    -0.049 C 
ATOM     18  H1  M3S d          35.302  42.035  -0.146  0.00  0.00     0.033 H 
ATOM     19  H2  M3S d          37.072  41.809   0.068  0.00  0.00     0.033 H 
ATOM     20  H3  M3S d          35.919  40.723   0.917  0.00  0.00     0.033 H 
ENDBRANCH   2  17
BRANCH   6  21
ATOM     21  C8  M3S d          35.555  40.536  -5.048  0.00  0.00     0.212 C 
ATOM     22  O10 M3S d          35.532  41.839  -5.179  0.00  0.00    -0.644 OA
ATOM     23  O9  M3S d          35.416  39.607  -5.936  0.00  0.00    -0.644 OA
ENDBRANCH   6  21
TORSDOF 5
ENDMDL
MODEL 5
REMARK VINA RESULT:      -4.5      1.249      3.532
REMARK  5 active torsions:
REMARK  status: ('A' for Active; 'I' for Inactive)
REMARK    1  A    between atoms: C11_2  and  O1_3 
REMARK    2  A    between atoms: C11_2  and  C13_14 
REMARK    3  A    between atoms: O1_3  and  C2_4 
REMARK    4  A    between atoms: C7_5  and  C1_6 
REMARK    5  A    between atoms: C3_10  and  C8_11 
ROOT
ATOM      1  C2  M3S d          36.895  39.589  -2.981  0.00  0.00     0.102 A 
ATOM      2  C7  M3S d          36.810  38.798  -1.821  0.00  0.00    -0.027 A 
ATOM      3  C6  M3S d          36.164  39.315  -0.695  0.00  0.00    -0.074 A 
ATOM      4  C5  M3S d          35.606  40.597  -0.726  0.00  0.00    -0.081 A 
ATOM      5  C4  M3S d          35.692  41.386  -1.887  0.00  0.00    -0.064 A 
ATOM      6  C3  M3S d          36.343  40.865  -3.009  0.00  0.00     0.075 A 
ATOM      7  H4  M3S d          36.095  38.718   0.207  0.00  0.00     0.084 H 
ATOM      8  H5  M3S d          35.103  40.986   0.152  0.00  0.00     0.083 H 
ATOM      9  H6  M3S d          35.260  42.380  -1.911  0.00  0.00     0.085 H 
ENDROOT
BRANCH   1  10
ATOM     10  O1  M3S d          37.548  39.021  -4.055  0.00  0.00    -0.278 OA
BRANCH  10  11
ATOM     11  C11 M3S d          36.868  38.161  -4.837  0.00  0.00     0.260 C 
ATOM     12  O12 M3S d          37.522  37.283  -5.392  0.00  0.00    -0.265 OA
BRANCH  11  13
ATOM     13  C13 M3S d          35.380  38.330  -4.895  0.00  0.00     0.004 C 
ATOM     14  H7  M3S d          35.079  39.162  -4.241  0.00  0.00     0.041 H 
ATOM     15  H8  M3S d          34.892  37.404  -4.557  0.00  0.00     0.041 H 
ATOM     16  H9  M3S d          35.075  38.548  -5.929  0.00  0.00     0.041 H 
ENDBRANCH  11  13
ENDBRANCH  10  11
ENDBRANCH   1  10
BRANCH   2  17
ATOM     17  C1  M3S d          37.427  37.400  -1.830  0.00  0.00    -0.049 C 
ATOM     18  H1  M3S d          36.754  36.698  -1.314  0.00  0.00     0.033 H 
ATOM     19  H2  M3S d          38.398  37.424  -1.312  0.00  0.00     0.033 H 
ATOM     20  H3  M3S d          37.575  37.071  -2.869  0.00  0.00     0.033 H 
ENDBRANCH   2  17
BRANCH   6  21
ATOM     21  C8  M3S d          36.419  41.779  -4.298  0.00  0.00     0.212 C 
ATOM     22  O10 M3S d          35.315  41.861  -4.999  0.00  0.00    -0.644 OA
ATOM     23  O9  M3S d          37.557  42.369  -4.464  0.00  0.00    -0.644 OA
ENDBRANCH   6  21
TORSDOF 5
ENDMDL
MODEL 6
REMARK VINA RESULT:      -4.4      1.897      3.493
REMARK  5 active torsions:
REMARK  status: ('A' for Active; 'I' for Inactive)
REMARK    1  A    between atoms: C11_2  and  O1_3 
REMARK    2  A    between atoms: C11_2  and  C13_14 
REMARK    3  A    between atoms: O1_3  and  C2_4 
REMARK    4  A    between atoms: C7_5  and  C1_6 
REMARK    5  A    between atoms: C3_10  and  C8_11 
ROOT
ATOM      1  C2  M3S d          35.612  40.479  -4.134  0.00  0.00     0.102 A 
ATOM      2  C7  M3S d          35.263  40.623  -5.489  0.00  0.00    -0.027 A 
ATOM      3  C6  M3S d          35.288  39.499  -6.318  0.00  0.00    -0.074 A 
ATOM      4  C5  M3S d          35.650  38.248  -5.804  0.00  0.00    -0.081 A 
ATOM      5  C4  M3S d          35.999  38.107  -4.449  0.00  0.00    -0.064 A 
ATOM      6  C3  M3S d          35.975  39.237  -3.625  0.00  0.00     0.075 A 
ATOM      7  H4  M3S d          35.026  39.595  -7.365  0.00  0.00     0.084 H 
ATOM      8  H5  M3S d          35.663  37.382  -6.456  0.00  0.00     0.083 H 
ATOM      9  H6  M3S d          36.280  37.139  -4.050  0.00  0.00     0.085 H 
ENDROOT
BRANCH   1  10
ATOM     10  O1  M3S d          35.569  41.628  -3.372  0.00  0.00    -0.278 OA
BRANCH  10  11
ATOM     11  C11 M3S d          36.731  42.226  -3.049  0.00  0.00     0.260 C 
ATOM     12  O12 M3S d          37.557  42.353  -3.948  0.00  0.00    -0.265 OA
BRANCH  11  13
ATOM     13  C13 M3S d          36.866  42.730  -1.643  0.00  0.00     0.004 C 
ATOM     14  H7  M3S d          36.039  42.339  -1.032  0.00  0.00     0.041 H 
ATOM     15  H8  M3S d          36.833  43.829  -1.643  0.00  0.00     0.041 H 
ATOM     16  H9  M3S d          37.825  42.392  -1.223  0.00  0.00     0.041 H 
ENDBRANCH  11  13
ENDBRANCH  10  11
ENDBRANCH   1  10
BRANCH   2  17
ATOM     17  C1  M3S d          34.867  42.004  -6.010  0.00  0.00    -0.049 C 
ATOM     18  H1  M3S d          35.597  42.750  -5.661  0.00  0.00     0.033 H 
ATOM     19  H2  M3S d          33.867  42.266  -5.634  0.00  0.00     0.033 H 
ATOM     20  H3  M3S d          34.854  41.991  -7.110  0.00  0.00     0.033 H 
ENDBRANCH   2  17
BRANCH   6  21
ATOM     21  C8  M3S d          36.370  39.040  -2.107  0.00  0.00     0.212 C 
ATOM     22  O10 M3S d          35.439  39.341  -1.236  0.00  0.00    -0.644 OA
ATOM     23  O9  M3S d          37.556  38.557  -1.925  0.00  0.00    -0.644 OA
ENDBRANCH   6  21
TORSDOF 5
ENDMDL
MODEL 7
REMARK VINA RESULT:      -4.3      1.330      3.221
REMARK  5 active torsions:
REMARK  status: ('A' for Active; 'I' for Inactive)
REMARK    1  A    between atoms: C11_2  and  O1_3 
REMARK    2  A    between atoms: C11_2  and  C13_14 
REMARK    3  A    between atoms: O1_3  and  C2_4 
REMARK    4  A    between atoms: C7_5  and  C1_6 
REMARK    5  A    between atoms: C3_10  and  C8_11 
ROOT
ATOM      1  C2  M3S d          35.984  39.868  -3.192  0.00  0.00     0.102 A 
ATOM      2  C7  M3S d          36.344  38.657  -3.811  0.00  0.00    -0.027 A 
ATOM      3  C6  M3S d          36.951  37.659  -3.045  0.00  0.00    -0.074 A 
ATOM      4  C5  M3S d          37.192  37.861  -1.681  0.00  0.00    -0.081 A 
ATOM      5  C4  M3S d          36.830  39.072  -1.064  0.00  0.00    -0.064 A 
ATOM      6  C3  M3S d          36.226  40.069  -1.837  0.00  0.00     0.075 A 
ATOM      7  H4  M3S d          37.238  36.723  -3.509  0.00  0.00     0.084 H 
ATOM      8  H5  M3S d          37.660  37.079  -1.095  0.00  0.00     0.083 H 
ATOM      9  H6  M3S d          37.017  39.230  -0.008  0.00  0.00     0.085 H 
ENDROOT
BRANCH   1  10
ATOM     10  O1  M3S d          35.392  40.811  -4.005  0.00  0.00    -0.278 OA
BRANCH  10  11
ATOM     11  C11 M3S d          36.185  41.616  -4.737  0.00  0.00     0.260 C 
ATOM     12  O12 M3S d          35.736  42.007  -5.810  0.00  0.00    -0.265 OA
BRANCH  11  13
ATOM     13  C13 M3S d          37.504  41.998  -4.135  0.00  0.00     0.004 C 
ATOM     14  H7  M3S d          37.359  42.271  -3.079  0.00  0.00     0.041 H 
ATOM     15  H8  M3S d          37.922  42.855  -4.681  0.00  0.00     0.041 H 
ATOM     16  H9  M3S d          38.197  41.147  -4.201  0.00  0.00     0.041 H 
ENDBRANCH  11  13
ENDBRANCH  10  11
ENDBRANCH   1  10
BRANCH   2  17
ATOM     17  C1  M3S d          36.059  38.473  -5.301  0.00  0.00    -0.049 C 
ATOM     18  H1  M3S d          36.404  39.360  -5.853  0.00  0.00     0.033 H 
ATOM     19  H2  M3S d          34.977  38.343  -5.455  0.00  0.00     0.033 H 
ATOM     20  H3  M3S d          36.590  37.582  -5.669  0.00  0.00     0.033 H 
ENDBRANCH   2  17
BRANCH   6  21
ATOM     21  C8  M3S d          35.831  41.416  -1.110  0.00  0.00     0.212 C 
ATOM     22  O10 M3S d          36.832  42.188  -0.764  0.00  0.00    -0.644 OA
ATOM     23  O9  M3S d          34.557  41.604  -0.996  0.00  0.00    -0.644 OA
ENDBRANCH   6  21
TORSDOF 5
ENDMDL
MODEL 8
REMARK VINA RESULT:      -4.3      1.709      3.682
REMARK  5 active torsions:
REMARK  status: ('A' for Active; 'I' for Inactive)
REMARK    1  A    between atoms: C11_2  and  O1_3 
REMARK    2  A    between atoms: C11_2  and  C13_14 
REMARK    3  A    between atoms: O1_3  and  C2_4 
REMARK    4  A    between atoms: C7_5  and  C1_6 
REMARK    5  A    between atoms: C3_10  and  C8_11 
ROOT
ATOM      1  C2  M3S d          36.251  40.181  -4.296  0.00  0.00     0.102 A 
ATOM      2  C7  M3S d          36.063  41.574  -4.253  0.00  0.00    -0.027 A 
ATOM      3  C6  M3S d          35.307  42.187  -5.256  0.00  0.00    -0.074 A 
ATOM      4  C5  M3S d          34.742  41.423  -6.283  0.00  0.00    -0.081 A 
ATOM      5  C4  M3S d          34.931  40.029  -6.323  0.00  0.00    -0.064 A 
ATOM      6  C3  M3S d          35.692  39.423  -5.318  0.00  0.00     0.075 A 
ATOM      7  H4  M3S d          35.158  43.260  -5.239  0.00  0.00     0.084 H 
ATOM      8  H5  M3S d          34.155  41.908  -7.054  0.00  0.00     0.083 H 
ATOM      9  H6  M3S d          34.494  39.437  -7.118  0.00  0.00     0.085 H 
ENDROOT
BRANCH   1  10
ATOM     10  O1  M3S d          37.009  39.640  -3.278  0.00  0.00    -0.278 OA
BRANCH  10  11
ATOM     11  C11 M3S d          36.373  39.035  -2.257  0.00  0.00     0.260 C 
ATOM     12  O12 M3S d          35.256  39.458  -1.973  0.00  0.00    -0.265 OA
BRANCH  11  13
ATOM     13  C13 M3S d          37.069  37.870  -1.620  0.00  0.00     0.004 C 
ATOM     14  H7  M3S d          36.377  37.018  -1.559  0.00  0.00     0.041 H 
ATOM     15  H8  M3S d          37.398  38.148  -0.608  0.00  0.00     0.041 H 
ATOM     16  H9  M3S d          37.944  37.590  -2.226  0.00  0.00     0.041 H 
ENDBRANCH  11  13
ENDBRANCH  10  11
ENDBRANCH   1  10
BRANCH   2  17
ATOM     17  C1  M3S d          36.692  42.373  -3.112  0.00  0.00    -0.049 C 
ATOM     18  H1  M3S d          37.764  42.134  -3.044  0.00  0.00     0.033 H 
ATOM     19  H2  M3S d          36.197  42.111  -2.164  0.00  0.00     0.033 H 
ATOM     20  H3  M3S d          36.567  43.449  -3.304  0.00  0.00     0.033 H 
ENDBRANCH   2  17
BRANCH   6  21
ATOM     21  C8  M3S d          35.881  37.855  -5.394  0.00  0.00     0.212 C 
ATOM     22  O10 M3S d          34.785  37.160  -5.573  0.00  0.00    -0.644 OA
ATOM     23  O9  M3S d          37.111  37.464  -5.317  0.00  0.00    -0.644 OA
ENDBRANCH   6  21
TORSDOF 5
ENDMDL
MODEL 9
REMARK VINA RESULT:      -3.3      1.652      3.345
REMARK  5 active torsions:
REMARK  status: ('A' for Active; 'I' for Inactive)
REMARK    1  A    between atoms: C11_2  and  O1_3 
REMARK    2  A    between atoms: C11_2  and  C13_14 
REMARK    3  A    between atoms: O1_3  and  C2_4 
REMARK    4  A    between atoms: C7_5  and  C1_6 
REMARK    5  A    between atoms: C3_10  and  C8_11 
ROOT
ATOM      1  C2  M3S d          35.841  40.240  -2.780  0.00  0.00     0.102 A 
ATOM      2  C7  M3S d          36.050  41.500  -2.189  0.00  0.00    -0.027 A 
ATOM      3  C6  M3S d          36.492  42.558  -2.988  0.00  0.00    -0.074 A 
ATOM      4  C5  M3S d          36.716  42.366  -4.356  0.00  0.00    -0.081 A 
ATOM      5  C4  M3S d          36.506  41.105  -4.944  0.00  0.00    -0.064 A 
ATOM      6  C3  M3S d          36.067  40.050  -4.138  0.00  0.00     0.075 A 
ATOM      7  H4  M3S d          36.662  43.532  -2.546  0.00  0.00     0.084 H 
ATOM      8  H5  M3S d          37.055  43.194  -4.967  0.00  0.00     0.083 H 
ATOM      9  H6  M3S d          36.680  40.956  -6.003  0.00  0.00     0.085 H 
ENDROOT
BRANCH   1  10
ATOM     10  O1  M3S d          35.408  39.240  -1.935  0.00  0.00    -0.278 OA
BRANCH  10  11
ATOM     11  C11 M3S d          36.317  38.615  -1.162  0.00  0.00     0.260 C 
ATOM     12  O12 M3S d          36.062  38.534   0.036  0.00  0.00    -0.265 OA
BRANCH  11  13
ATOM     13  C13 M3S d          37.510  38.031  -1.857  0.00  0.00     0.004 C 
ATOM     14  H7  M3S d          38.354  38.733  -1.791  0.00  0.00     0.041 H 
ATOM     15  H8  M3S d          37.267  37.849  -2.914  0.00  0.00     0.041 H 
ATOM     16  H9  M3S d          37.786  37.081  -1.376  0.00  0.00     0.041 H 
ENDBRANCH  11  13
ENDBRANCH  10  11
ENDBRANCH   1  10
BRANCH   2  17
ATOM     17  C1  M3S d          35.789  41.670  -0.693  0.00  0.00    -0.049 C 
ATOM     18  H1  M3S d          35.178  40.830  -0.329  0.00  0.00     0.033 H 
ATOM     19  H2  M3S d          35.252  42.615  -0.519  0.00  0.00     0.033 H 
ATOM     20  H3  M3S d          36.747  41.688  -0.152  0.00  0.00     0.033 H 
ENDBRANCH   2  17
BRANCH   6  21
ATOM     21  C8  M3S d          35.838  38.648  -4.834  0.00  0.00     0.212 C 
ATOM     22  O10 M3S d          36.919  38.049  -5.269  0.00  0.00    -0.644 OA
ATOM     23  O9  M3S d          34.607  38.253  -4.838  0.00  0.00    -0.644 OA
ENDBRANCH   6  21
TORSDOF 5
ENDMDL
