MODEL 1
REMARK VINA RESULT:      -8.2      0.000      0.000
REMARK  5 active torsions:
REMARK  status: ('A' for Active; 'I' for Inactive)
REMARK    1  A    between atoms: S1_2  and  N1_4 
REMARK    2  A    between atoms: S1_2  and  C13_10 
REMARK    3  A    between atoms: N1_4  and  C12_5 
REMARK    4  A    between atoms: C12_5  and  C14_6 
REMARK       I    between atoms: C14_6  and  N2_8 
REMARK    5  A    between atoms: C2_15  and  C1_16 
ROOT
ATOM      1  C13 HS4 d           2.473  -5.377   6.073  0.00  0.00     0.079 A 
ATOM      2  C10 HS4 d           3.720  -5.704   5.530  0.00  0.00    -0.059 A 
ATOM      3  C5  HS4 d           4.728  -6.261   6.311  0.00  0.00    -0.071 A 
ATOM      4  C11 HS4 d           2.260  -5.599   7.437  0.00  0.00    -0.059 A 
ATOM      5  C8  HS4 d           3.272  -6.157   8.222  0.00  0.00    -0.071 A 
ATOM      6  C2  HS4 d           4.520  -6.472   7.672  0.00  0.00    -0.026 A 
ATOM      7  H4  HS4 d           3.905  -5.520   4.478  0.00  0.00     0.085 H 
ATOM      8  H5  HS4 d           5.676  -6.532   5.859  0.00  0.00     0.084 H 
ATOM      9  H6  HS4 d           1.308  -5.339   7.886  0.00  0.00     0.085 H 
ATOM     10  H7  HS4 d           3.089  -6.348   9.273  0.00  0.00     0.084 H 
ENDROOT
BRANCH   1  11
ATOM     11  S1  HS4 d           1.435  -4.768   5.019  0.00  0.00     0.259 S 
ATOM     12  O4  HS4 d           1.754  -3.381   5.276  0.00  0.00    -0.201 OA
ATOM     13  O3  HS4 d           0.115  -5.187   5.193  0.00  0.00    -0.201 OA
BRANCH  11  14
ATOM     14  N1  HS4 d           1.782  -4.817   3.458  0.00  0.00    -0.306 N 
ATOM     15  H1  HS4 d           2.583  -4.296   3.162  0.00  0.00     0.172 HD
BRANCH  14  16
ATOM     16  C12 HS4 d           1.065  -5.528   2.438  0.00  0.00     0.080 C 
ATOM     17  H2  HS4 d           1.567  -5.374   1.472  0.00  0.00     0.079 H 
ATOM     18  H3  HS4 d           0.037  -5.140   2.384  0.00  0.00     0.079 H 
BRANCH  16  19
ATOM     19  C14 HS4 d           1.018  -7.002   2.738  0.00  0.00     0.287 C 
ATOM     20  O1  HS4 d           0.005  -7.686   2.617  0.00  0.00    -0.267 OA
ATOM     21  N2  HS4 d           2.164  -7.513   3.124  0.00  0.00    -0.057 NA
ATOM     22  O2  HS4 d           2.225  -8.861   3.379  0.00  0.00    -0.058 OA
ENDBRANCH  16  19
ENDBRANCH  14  16
ENDBRANCH  11  14
ENDBRANCH   1  11
BRANCH   6  23
ATOM     23  C1  HS4 d           5.588  -7.121   8.483  0.00  0.00    -0.026 A 
ATOM     24  C4  HS4 d           5.473  -7.382   9.844  0.00  0.00    -0.072 A 
ATOM     25  C7  HS4 d           6.537  -7.954  10.544  0.00  0.00    -0.082 A 
ATOM     26  H8  HS4 d           4.553  -7.139  10.364  0.00  0.00     0.084 H 
ATOM     27  C9  HS4 d           7.732  -8.239   9.895  0.00  0.00    -0.083 A 
ATOM     28  H9  HS4 d           6.431  -8.176  11.600  0.00  0.00     0.083 H 
ATOM     29  C6  HS4 d           7.862  -7.951   8.542  0.00  0.00    -0.082 A 
ATOM     30  H10 HS4 d           8.557  -8.683  10.441  0.00  0.00     0.083 H 
ATOM     31  C3  HS4 d           6.804  -7.384   7.847  0.00  0.00    -0.072 A 
ATOM     32  H11 HS4 d           8.792  -8.170   8.030  0.00  0.00     0.083 H 
ATOM     33  H12 HS4 d           6.922  -7.142   6.797  0.00  0.00     0.084 H 
ENDBRANCH   6  23
TORSDOF 5
ENDMDL
MODEL 2
REMARK VINA RESULT:      -8.1      1.422      2.879
REMARK  5 active torsions:
REMARK  status: ('A' for Active; 'I' for Inactive)
REMARK    1  A    between atoms: S1_2  and  N1_4 
REMARK    2  A    between atoms: S1_2  and  C13_10 
REMARK    3  A    between atoms: N1_4  and  C12_5 
REMARK    4  A    between atoms: C12_5  and  C14_6 
REMARK       I    between atoms: C14_6  and  N2_8 
REMARK    5  A    between atoms: C2_15  and  C1_16 
ROOT
ATOM      1  C13 HS4 d           1.600  -6.561   5.050  0.00  0.00     0.079 A 
ATOM      2  C10 HS4 d           2.791  -7.219   4.728  0.00  0.00    -0.059 A 
ATOM      3  C5  HS4 d           3.826  -7.341   5.651  0.00  0.00    -0.071 A 
ATOM      4  C11 HS4 d           1.472  -5.998   6.324  0.00  0.00    -0.059 A 
ATOM      5  C8  HS4 d           2.511  -6.119   7.251  0.00  0.00    -0.071 A 
ATOM      6  C2  HS4 d           3.702  -6.771   6.917  0.00  0.00    -0.026 A 
ATOM      7  H4  HS4 d           2.912  -7.643   3.738  0.00  0.00     0.085 H 
ATOM      8  H5  HS4 d           4.728  -7.881   5.385  0.00  0.00     0.084 H 
ATOM      9  H6  HS4 d           0.565  -5.468   6.593  0.00  0.00     0.085 H 
ATOM     10  H7  HS4 d           2.392  -5.701   8.244  0.00  0.00     0.084 H 
ENDROOT
BRANCH   1  11
ATOM     11  S1  HS4 d           0.519  -6.539   3.870  0.00  0.00     0.259 S 
ATOM     12  O4  HS4 d          -0.399  -5.633   4.523  0.00  0.00    -0.201 OA
ATOM     13  O3  HS4 d           0.050  -7.797   3.488  0.00  0.00    -0.201 OA
BRANCH  11  14
ATOM     14  N1  HS4 d           0.816  -5.684   2.551  0.00  0.00    -0.306 N 
ATOM     15  H1  HS4 d           0.252  -5.888   1.750  0.00  0.00     0.172 HD
BRANCH  14  16
ATOM     16  C12 HS4 d           1.806  -4.656   2.396  0.00  0.00     0.080 C 
ATOM     17  H2  HS4 d           1.770  -4.276   1.364  0.00  0.00     0.079 H 
ATOM     18  H3  HS4 d           2.800  -5.081   2.597  0.00  0.00     0.079 H 
BRANCH  16  19
ATOM     19  C14 HS4 d           1.557  -3.518   3.348  0.00  0.00     0.287 C 
ATOM     20  O1  HS4 d           0.645  -2.706   3.208  0.00  0.00    -0.267 OA
ATOM     21  N2  HS4 d           2.387  -3.470   4.364  0.00  0.00    -0.057 NA
ATOM     22  O2  HS4 d           2.207  -2.487   5.307  0.00  0.00    -0.058 OA
ENDBRANCH  16  19
ENDBRANCH  14  16
ENDBRANCH  11  14
ENDBRANCH   1  11
BRANCH   6  23
ATOM     23  C1  HS4 d           4.795  -6.959   7.912  0.00  0.00    -0.026 A 
ATOM     24  C4  HS4 d           6.143  -7.019   7.577  0.00  0.00    -0.072 A 
ATOM     25  C7  HS4 d           7.105  -7.241   8.564  0.00  0.00    -0.082 A 
ATOM     26  H8  HS4 d           6.448  -6.893   6.544  0.00  0.00     0.084 H 
ATOM     27  C9  HS4 d           6.723  -7.435   9.885  0.00  0.00    -0.083 A 
ATOM     28  H9  HS4 d           8.156  -7.263   8.298  0.00  0.00     0.083 H 
ATOM     29  C6  HS4 d           5.376  -7.407  10.220  0.00  0.00    -0.082 A 
ATOM     30  H10 HS4 d           7.473  -7.607  10.650  0.00  0.00     0.083 H 
ATOM     31  C3  HS4 d           4.420  -7.185   9.239  0.00  0.00    -0.072 A 
ATOM     32  H11 HS4 d           5.070  -7.559  11.249  0.00  0.00     0.083 H 
ATOM     33  H12 HS4 d           3.369  -7.188   9.505  0.00  0.00     0.084 H 
ENDBRANCH   6  23
TORSDOF 5
ENDMDL
