MODEL 1
REMARK VINA RESULT:     -11.5      0.000      0.000
REMARK  11 active torsions:
REMARK  status: ('A' for Active; 'I' for Inactive)
REMARK       I    between atoms: N1_3  and  C20_36 
REMARK    1  A    between atoms: C28_44  and  N1_3 
REMARK    2  A    between atoms: O1_4  and  C9_24 
REMARK    3  A    between atoms: C20_36  and  O1_4 
REMARK    4  A    between atoms: N3_10  and  S1_5 
REMARK    5  A    between atoms: S1_5  and  C23_39 
REMARK    6  A    between atoms: C2_6  and  C4_12 
REMARK       I    between atoms: C4_12  and  N3_10 
REMARK       I    between atoms: C35_51  and  N4_13 
REMARK    7  A    between atoms: C9_24  and  C6_18 
REMARK    8  A    between atoms: C9_24  and  C7_20 
REMARK    9  A    between atoms: C9_24  and  C8_22 
REMARK   10  A    between atoms: C30_46  and  O8_23 
REMARK   11  A    between atoms: O8_23  and  C35_51 
ROOT
ATOM      1  C1  TSV d         -12.652  -6.238  17.126  0.00  0.00    -0.023 A 
ATOM      2  C2  TSV d         -12.236  -6.604  15.703  0.00  0.00     0.122 A 
ATOM      3  N2  TSV d         -12.535  -7.953  15.291  0.00  0.00    -0.341 N 
ATOM      4  C3  TSV d         -13.511  -5.773  15.965  0.00  0.00    -0.002 A 
ATOM      5  O3  TSV d         -15.656  -8.232  15.031  0.00  0.00    -0.271 OA
ATOM      6  C5  TSV d         -13.528  -4.300  15.670  0.00  0.00    -0.100 C 
ATOM      7  N5  TSV d         -14.981  -9.549  13.374  0.00  0.00    -0.334 N 
ATOM      8  O7  TSV d         -13.178  -7.332  13.222  0.00  0.00    -0.271 OA
ATOM      9  C10 TSV d         -14.413  -3.736  14.830  0.00  0.00    -0.106 C 
ATOM     10  C11 TSV d         -13.056  -8.198  14.096  0.00  0.00     0.241 C 
ATOM     11  C13 TSV d         -15.495  -4.496  14.090  0.00  0.00    -0.050 C 
ATOM     12  C15 TSV d         -13.597  -9.579  13.880  0.00  0.00     0.094 C 
ATOM     13  C18 TSV d         -15.327  -4.413  12.582  0.00  0.00    -0.062 C 
ATOM     14  C19 TSV d         -16.461  -5.139  11.834  0.00  0.00    -0.065 C 
ATOM     15  C22 TSV d         -16.412  -6.662  11.983  0.00  0.00    -0.063 C 
ATOM     16  C25 TSV d         -17.464  -7.170  12.972  0.00  0.00    -0.038 C 
ATOM     17  C27 TSV d         -12.859 -10.306  12.773  0.00  0.00    -0.011 C 
ATOM     18  C28 TSV d         -17.254  -8.632  13.337  0.00  0.00     0.091 C 
ATOM     19  C30 TSV d         -13.886 -11.222  12.175  0.00  0.00     0.067 C 
ATOM     20  C33 TSV d         -15.897  -8.800  13.982  0.00  0.00     0.243 C 
ATOM     21  C34 TSV d         -15.154 -10.413  12.185  0.00  0.00     0.023 C 
ATOM     22  H1  TSV d         -12.063  -5.507  17.697  0.00  0.00     0.038 H 
ATOM     23  H2  TSV d         -13.026  -7.019  17.805  0.00  0.00     0.038 H 
ATOM     24  H4  TSV d         -12.349  -8.713  15.914  0.00  0.00     0.163 HD
ATOM     25  H5  TSV d         -14.503  -6.210  15.781  0.00  0.00     0.050 H 
ATOM     26  H7  TSV d         -12.792  -3.662  16.157  0.00  0.00     0.077 H 
ATOM     27  H17 TSV d         -14.348  -2.661  14.671  0.00  0.00     0.076 H 
ATOM     28  H19 TSV d         -16.474  -4.073  14.361  0.00  0.00     0.038 H 
ATOM     29  H20 TSV d         -15.457  -5.553  14.392  0.00  0.00     0.038 H 
ATOM     30  H22 TSV d         -13.537 -10.140  14.824  0.00  0.00     0.088 H 
ATOM     31  H25 TSV d         -14.367  -4.873  12.306  0.00  0.00     0.033 H 
ATOM     32  H26 TSV d         -15.325  -3.354  12.283  0.00  0.00     0.033 H 
ATOM     33  H27 TSV d         -16.387  -4.890  10.765  0.00  0.00     0.033 H 
ATOM     34  H28 TSV d         -17.423  -4.781  12.228  0.00  0.00     0.033 H 
ATOM     35  H29 TSV d         -15.414  -6.953  12.344  0.00  0.00     0.033 H 
ATOM     36  H30 TSV d         -16.595  -7.122  11.001  0.00  0.00     0.033 H 
ATOM     37  H32 TSV d         -18.459  -7.058  12.518  0.00  0.00     0.036 H 
ATOM     38  H33 TSV d         -17.408  -6.564  13.889  0.00  0.00     0.036 H 
ATOM     39  H34 TSV d         -12.016 -10.882  13.182  0.00  0.00     0.040 H 
ATOM     40  H35 TSV d         -12.488  -9.595  12.021  0.00  0.00     0.040 H 
ATOM     41  H36 TSV d         -17.308  -9.249  12.427  0.00  0.00     0.087 H 
ATOM     42  H39 TSV d         -13.603 -11.555  11.165  0.00  0.00     0.086 H 
ATOM     43  H43 TSV d         -15.247  -9.812  11.269  0.00  0.00     0.068 H 
ATOM     44  H44 TSV d         -16.036 -11.061  12.291  0.00  0.00     0.068 H 
ENDROOT
BRANCH  18  45
ATOM     45  N1  TSV d         -18.278  -9.047  14.258  0.00  0.00    -0.324 N 
ATOM     46  C20 TSV d         -19.135 -10.018  13.975  0.00  0.00     0.362 C 
ATOM     47  O2  TSV d         -19.189 -10.636  12.909  0.00  0.00    -0.238 OA
ATOM     48  H3  TSV d         -18.345  -8.587  15.144  0.00  0.00     0.165 HD
BRANCH  46  49
ATOM     49  O1  TSV d         -20.034 -10.326  15.056  0.00  0.00    -0.294 OA
BRANCH  49  50
ATOM     50  C9  TSV d         -19.887 -11.435  15.948  0.00  0.00     0.061 C 
BRANCH  50  51
ATOM     51  C6  TSV d         -18.566 -12.148  15.688  0.00  0.00    -0.048 C 
ATOM     52  H8  TSV d         -17.822 -11.825  16.432  0.00  0.00     0.031 H 
ATOM     53  H9  TSV d         -18.206 -11.898  14.679  0.00  0.00     0.031 H 
ATOM     54  H10 TSV d         -18.715 -13.235  15.766  0.00  0.00     0.031 H 
ENDBRANCH  50  51
BRANCH  50  55
ATOM     55  C7  TSV d         -19.923 -10.852  17.358  0.00  0.00    -0.048 C 
ATOM     56  H11 TSV d         -19.927 -11.671  18.093  0.00  0.00     0.031 H 
ATOM     57  H12 TSV d         -20.832 -10.245  17.480  0.00  0.00     0.031 H 
ATOM     58  H13 TSV d         -19.036 -10.221  17.518  0.00  0.00     0.031 H 
ENDBRANCH  50  55
BRANCH  50  59
ATOM     59  C8  TSV d         -21.052 -12.396  15.735  0.00  0.00    -0.048 C 
ATOM     60  H14 TSV d         -21.961 -11.823  15.502  0.00  0.00     0.031 H 
ATOM     61  H15 TSV d         -21.214 -12.984  16.650  0.00  0.00     0.031 H 
ATOM     62  H16 TSV d         -20.822 -13.073  14.900  0.00  0.00     0.031 H 
ENDBRANCH  50  59
ENDBRANCH  49  50
ENDBRANCH  46  49
ENDBRANCH  18  45
BRANCH  19  63
ATOM     63  O8  TSV d         -14.108 -12.322  13.042  0.00  0.00    -0.296 OA
BRANCH  63  64
ATOM     64  C35 TSV d         -13.228 -13.439  12.871  0.00  0.00     0.371 C 
ATOM     65  N4  TSV d         -13.200 -14.240  13.888  0.00  0.00    -0.278 N 
ATOM     66  C12 TSV d         -12.500 -15.533  13.857  0.00  0.00     0.000 A 
ATOM     67  C31 TSV d         -13.885 -13.974  15.153  0.00  0.00     0.003 A 
ATOM     68  C24 TSV d         -12.841 -16.088  15.188  0.00  0.00    -0.005 A 
ATOM     69  H18 TSV d         -11.892 -15.968  13.066  0.00  0.00     0.113 H 
ATOM     70  C16 TSV d         -12.462 -17.330  15.691  0.00  0.00    -0.071 A 
ATOM     71  C26 TSV d         -13.612 -15.240  15.914  0.00  0.00     0.030 A 
ATOM     72  C14 TSV d         -12.891 -17.667  16.958  0.00  0.00    -0.079 A 
ATOM     73  H23 TSV d         -11.851 -18.008  15.108  0.00  0.00     0.084 H 
ATOM     74  C17 TSV d         -13.686 -16.794  17.706  0.00  0.00    -0.045 A 
ATOM     75  H21 TSV d         -12.607 -18.623  17.381  0.00  0.00     0.083 H 
ATOM     76  C21 TSV d         -14.048 -15.550  17.172  0.00  0.00     0.128 A 
ATOM     77  H24 TSV d         -14.021 -17.078  18.698  0.00  0.00     0.088 H 
ATOM     78  F1  TSV d         -14.804 -14.678  17.871  0.00  0.00    -0.205 F 
ATOM     79  H40 TSV d         -14.445 -13.092  15.460  0.00  0.00     0.114 H 
ATOM     80  O5  TSV d         -12.575 -13.591  11.844  0.00  0.00    -0.238 OA
ENDBRANCH  63  64
ENDBRANCH  19  63
BRANCH   2  81
ATOM     81  C4  TSV d         -10.979  -5.955  15.218  0.00  0.00     0.260 C 
ATOM     82  N3  TSV d         -10.304  -6.595  14.267  0.00  0.00    -0.252 N 
ATOM     83  H6  TSV d         -10.609  -7.488  13.934  0.00  0.00     0.181 HD
ATOM     84  O9  TSV d         -10.620  -4.896  15.677  0.00  0.00    -0.270 OA
BRANCH  82  85
ATOM     85  S1  TSV d          -9.009  -5.911  13.678  0.00  0.00     0.237 S 
ATOM     86  O4  TSV d          -8.127  -5.469  14.719  0.00  0.00    -0.205 OA
ATOM     87  O6  TSV d          -9.388  -4.845  12.771  0.00  0.00    -0.205 OA
BRANCH  85  88
ATOM     88  C23 TSV d          -8.286  -7.091  12.747  0.00  0.00     0.063 A 
ATOM     89  C29 TSV d          -6.901  -6.764  12.198  0.00  0.00    -0.046 A 
ATOM     90  C32 TSV d          -7.040  -7.778  13.313  0.00  0.00    -0.046 A 
ATOM     91  H37 TSV d          -6.448  -5.783  12.402  0.00  0.00     0.035 H 
ATOM     92  H38 TSV d          -6.619  -7.095  11.187  0.00  0.00     0.035 H 
ATOM     93  H41 TSV d          -6.860  -8.844  13.112  0.00  0.00     0.035 H 
ATOM     94  H42 TSV d          -6.689  -7.531  14.326  0.00  0.00     0.035 H 
ATOM     95  H31 TSV d          -9.029  -7.647  12.156  0.00  0.00     0.066 H 
ENDBRANCH  85  88
ENDBRANCH  82  85
ENDBRANCH   2  81
TORSDOF 11
ENDMDL
