REMARK  8 active torsions:
REMARK  status: ('A' for Active; 'I' for Inactive)
REMARK    1  A    between atoms: C5'_1  and  C4'_2 
REMARK    2  A    between atoms: C4'_2  and  O2'_3 
REMARK    3  A    between atoms: O2'_3  and  C3'_4 
REMARK    4  A    between atoms: C3'_4  and  C2'_6 
REMARK    5  A    between atoms: C2'_6  and  C1'_7 
REMARK    6  A    between atoms: C1'_7  and  C1_8 
REMARK    7  A    between atoms: C4_12  and  O4_13 
REMARK    8  A    between atoms: C3_14  and  O3_15 
ROOT
ATOM      1  C1' MOL d           7.101 -17.252 116.940  0.00  0.00    -0.067 C 
ATOM      2  H7  MOL d           6.952 -16.448 117.659  0.00  0.00     0.085 H 
ENDROOT
BRANCH   1   3
ATOM      3  C2' MOL d           7.787 -18.577 117.269  0.00  0.00    -0.010 C 
ATOM      4  H6  MOL d           7.990 -19.367 116.547  0.00  0.00     0.092 H 
BRANCH   3   5
ATOM      5  C3' MOL d           8.149 -18.640 118.754  0.00  0.00     0.282 C 
ATOM      6  O1' MOL d           7.692 -17.823 119.553  0.00  0.00    -0.260 OA
BRANCH   5   7
ATOM      7  O2' MOL d           8.977 -19.633 119.175  0.00  0.00    -0.319 OA
BRANCH   7   8
ATOM      8  C4' MOL d           9.189 -19.574 120.590  0.00  0.00     0.026 C 
ATOM      9  H4  MOL d           9.829 -18.714 120.836  0.00  0.00     0.074 H 
ATOM     10  H5  MOL d           8.224 -19.473 121.108  0.00  0.00     0.074 H 
BRANCH   8  11
ATOM     11  C5' MOL d           9.877 -20.874 121.019  0.00  0.00    -0.056 C 
ATOM     12  H1  MOL d          10.052 -20.855 122.105  0.00  0.00     0.030 H 
ATOM     13  H2  MOL d          10.839 -20.970 120.494  0.00  0.00     0.030 H 
ATOM     14  H3  MOL d           9.234 -21.730 120.766  0.00  0.00     0.030 H 
ENDBRANCH   8  11
ENDBRANCH   7   8
ENDBRANCH   5   7
ENDBRANCH   3   5
ENDBRANCH   1   3
BRANCH   1  15
ATOM     15  C1  MOL d           6.650 -17.190 115.482  0.00  0.00    -0.033 A 
ATOM     16  C2  MOL d           6.878 -18.244 114.604  0.00  0.00    -0.038 A 
ATOM     17  C3  MOL d           6.380 -18.187 113.305  0.00  0.00     0.099 A 
ATOM     18  H8  MOL d           7.443 -19.110 114.931  0.00  0.00     0.089 H 
ATOM     19  C4  MOL d           5.661 -17.074 112.884  0.00  0.00     0.098 A 
ATOM     20  C5  MOL d           5.439 -16.016 113.759  0.00  0.00    -0.047 A 
ATOM     21  C6  MOL d           5.935 -16.076 115.058  0.00  0.00    -0.070 A 
ATOM     22  H10 MOL d           4.881 -15.147 113.430  0.00  0.00     0.087 H 
ATOM     23  H9  MOL d           5.763 -15.252 115.741  0.00  0.00     0.084 H 
BRANCH  17  24
ATOM     24  O3  MOL d           6.570 -19.219 112.440  0.00  0.00    -0.358 OA
ATOM     25  H12 MOL d           7.075 -19.901 112.868  0.00  0.00     0.217 HD
ENDBRANCH  17  24
BRANCH  19  26
ATOM     26  O4  MOL d           5.178 -17.018 111.615  0.00  0.00    -0.358 OA
ATOM     27  H11 MOL d           5.415 -17.813 111.152  0.00  0.00     0.217 HD
ENDBRANCH  19  26
ENDBRANCH   1  15
TORSDOF 8
