MODEL 1
REMARK VINA RESULT:      -9.6      0.000      0.000
REMARK  6 active torsions:
REMARK  status: ('A' for Active; 'I' for Inactive)
REMARK    1  A    between atoms: C1_1  and  N1_2 
REMARK    2  A    between atoms: C14_5  and  C8_8 
REMARK    3  A    between atoms: C13_6  and  O3_28 
REMARK    4  A    between atoms: C2_11  and  C21_21 
REMARK    5  A    between atoms: C5_16  and  O5_17 
REMARK    6  A    between atoms: C7_19  and  O7_20 
ROOT
ATOM      1  C8  CPB d          39.147  37.372  30.787  0.00  0.00     0.017 A 
ATOM      2  C9  CPB d          38.421  36.219  30.443  0.00  0.00     0.102 A 
ATOM      3  O1  CPB d          38.639  35.655  29.209  0.00  0.00    -0.308 OA
ATOM      4  C2  CPB d          37.976  34.505  28.865  0.00  0.00     0.091 A 
ATOM      5  C3  CPB d          37.062  33.928  29.745  0.00  0.00    -0.000 A 
ATOM      6  C4  CPB d          36.806  34.509  30.983  0.00  0.00     0.190 A 
ATOM      7  O4  CPB d          35.992  33.986  31.747  0.00  0.00    -0.287 OA
ATOM      8  C10 CPB d          37.498  35.668  31.344  0.00  0.00     0.082 A 
ATOM      9  C5  CPB d          37.319  36.252  32.603  0.00  0.00     0.085 A 
ATOM     10  C6  CPB d          38.033  37.392  32.943  0.00  0.00    -0.017 A 
ATOM     11  C7  CPB d          38.937  37.957  32.045  0.00  0.00     0.077 A 
ATOM     12  H13 CPB d          36.543  33.015  29.460  0.00  0.00     0.094 H 
ATOM     13  H15 CPB d          37.886  37.848  33.915  0.00  0.00     0.092 H 
ENDROOT
BRANCH   1  14
ATOM     14  C14 CPB d          40.140  37.936  29.724  0.00  0.00     0.005 C 
ATOM     15  C15 CPB d          39.913  39.435  29.471  0.00  0.00    -0.033 C 
ATOM     16  C16 CPB d          40.888  39.944  28.394  0.00  0.00     0.084 C 
ATOM     17  H7  CPB d          38.879  39.593  29.130  0.00  0.00     0.036 H 
ATOM     18  H8  CPB d          40.080  39.991  30.405  0.00  0.00     0.036 H 
ATOM     19  N1  CPB d          42.288  39.634  28.769  0.00  0.00    -0.072 N 
ATOM     20  H5  CPB d          40.654  39.457  27.436  0.00  0.00     0.076 H 
ATOM     21  H6  CPB d          40.775  41.033  28.289  0.00  0.00     0.076 H 
ATOM     22  C12 CPB d          42.509  38.174  28.889  0.00  0.00     0.107 C 
ATOM     23  H4  CPB d          42.496  40.071  29.654  0.00  0.00     0.279 HD
ATOM     24  C13 CPB d          41.628  37.624  30.016  0.00  0.00     0.066 C 
ATOM     25  H11 CPB d          43.566  37.980  29.120  0.00  0.00     0.080 H 
ATOM     26  H12 CPB d          42.243  37.683  27.941  0.00  0.00     0.080 H 
ATOM     27  H10 CPB d          41.759  36.534  30.088  0.00  0.00     0.086 H 
ATOM     28  H9  CPB d          39.901  37.421  28.783  0.00  0.00     0.051 H 
BRANCH  19  29
ATOM     29  C1  CPB d          43.184  40.170  27.731  0.00  0.00     0.066 C 
ATOM     30  H1  CPB d          43.712  41.052  28.123  0.00  0.00     0.068 H 
ATOM     31  H2  CPB d          42.593  40.458  26.849  0.00  0.00     0.068 H 
ATOM     32  H3  CPB d          43.917  39.401  27.447  0.00  0.00     0.068 H 
ENDBRANCH  19  29
BRANCH  24  33
ATOM     33  O3  CPB d          42.042  38.235  31.236  0.00  0.00    -0.393 OA
ATOM     34  H21 CPB d          42.046  39.179  31.130  0.00  0.00     0.210 HD
ENDBRANCH  24  33
ENDBRANCH   1  14
BRANCH  11  35
ATOM     35  O7  CPB d          39.600  39.072  32.450  0.00  0.00    -0.360 OA
ATOM     36  H16 CPB d          40.061  38.888  33.261  0.00  0.00     0.217 HD
ENDBRANCH  11  35
BRANCH   4  37
ATOM     37  C21 CPB d          38.236  33.887  27.633  0.00  0.00     0.020 A 
ATOM     38  C22 CPB d          38.734  34.582  26.516  0.00  0.00     0.047 A 
ATOM     39 CL1  CPB d          39.043  36.282  26.559  0.00  0.00    -0.083 Cl
ATOM     40  C23 CPB d          38.989  33.911  25.320  0.00  0.00    -0.061 A 
ATOM     41  C24 CPB d          38.755  32.540  25.230  0.00  0.00    -0.081 A 
ATOM     42  H17 CPB d          39.368  34.455  24.462  0.00  0.00     0.086 H 
ATOM     43  C25 CPB d          38.270  31.841  26.336  0.00  0.00    -0.082 A 
ATOM     44  H18 CPB d          38.950  32.017  24.302  0.00  0.00     0.083 H 
ATOM     45  C26 CPB d          38.016  32.505  27.529  0.00  0.00    -0.069 A 
ATOM     46  H19 CPB d          38.090  30.775  26.263  0.00  0.00     0.083 H 
ATOM     47  H20 CPB d          37.645  31.953  28.384  0.00  0.00     0.085 H 
ENDBRANCH   4  37
BRANCH   9  48
ATOM     48  O5  CPB d          36.447  35.736  33.514  0.00  0.00    -0.360 OA
ATOM     49  H14 CPB d          35.693  36.310  33.590  0.00  0.00     0.217 HD
ENDBRANCH   9  48
TORSDOF 6
ENDMDL
MODEL 2
REMARK VINA RESULT:      -9.3      2.369      5.323
REMARK  6 active torsions:
REMARK  status: ('A' for Active; 'I' for Inactive)
REMARK    1  A    between atoms: C1_1  and  N1_2 
REMARK    2  A    between atoms: C14_5  and  C8_8 
REMARK    3  A    between atoms: C13_6  and  O3_28 
REMARK    4  A    between atoms: C2_11  and  C21_21 
REMARK    5  A    between atoms: C5_16  and  O5_17 
REMARK    6  A    between atoms: C7_19  and  O7_20 
ROOT
ATOM      1  C8  CPB d          39.554  36.742  27.111  0.00  0.00     0.017 A 
ATOM      2  C9  CPB d          38.877  35.832  27.940  0.00  0.00     0.102 A 
ATOM      3  O1  CPB d          38.637  36.193  29.245  0.00  0.00    -0.308 OA
ATOM      4  C2  CPB d          37.940  35.343  30.064  0.00  0.00     0.091 A 
ATOM      5  C3  CPB d          37.506  34.106  29.591  0.00  0.00    -0.000 A 
ATOM      6  C4  CPB d          37.774  33.713  28.283  0.00  0.00     0.190 A 
ATOM      7  O4  CPB d          37.384  32.614  27.884  0.00  0.00    -0.287 OA
ATOM      8  C10 CPB d          38.464  34.588  27.441  0.00  0.00     0.082 A 
ATOM      9  C5  CPB d          38.702  34.263  26.101  0.00  0.00     0.085 A 
ATOM     10  C6  CPB d          39.372  35.158  25.281  0.00  0.00    -0.017 A 
ATOM     11  C7  CPB d          39.804  36.387  25.777  0.00  0.00     0.077 A 
ATOM     12  H13 CPB d          36.953  33.440  30.251  0.00  0.00     0.094 H 
ATOM     13  H15 CPB d          39.563  34.900  24.246  0.00  0.00     0.092 H 
ENDROOT
BRANCH   1  14
ATOM     14  C14 CPB d          39.999  38.096  27.745  0.00  0.00     0.005 C 
ATOM     15  C15 CPB d          41.516  38.311  27.623  0.00  0.00    -0.033 C 
ATOM     16  C16 CPB d          41.918  39.640  28.289  0.00  0.00     0.084 C 
ATOM     17  H7  CPB d          42.042  37.482  28.118  0.00  0.00     0.036 H 
ATOM     18  H8  CPB d          41.794  38.340  26.559  0.00  0.00     0.036 H 
ATOM     19  N1  CPB d          41.134  40.764  27.726  0.00  0.00    -0.072 N 
ATOM     20  H5  CPB d          41.729  39.573  29.370  0.00  0.00     0.076 H 
ATOM     21  H6  CPB d          42.988  39.823  28.115  0.00  0.00     0.076 H 
ATOM     22  C12 CPB d          39.682  40.589  27.965  0.00  0.00     0.107 C 
ATOM     23  H4  CPB d          41.299  40.815  26.732  0.00  0.00     0.279 HD
ATOM     24  C13 CPB d          39.203  39.325  27.243  0.00  0.00     0.066 C 
ATOM     25  H11 CPB d          39.137  41.462  27.578  0.00  0.00     0.080 H 
ATOM     26  H12 CPB d          39.497  40.489  29.045  0.00  0.00     0.080 H 
ATOM     27  H10 CPB d          38.133  39.168  27.444  0.00  0.00     0.086 H 
ATOM     28  H9  CPB d          39.781  38.012  28.820  0.00  0.00     0.051 H 
BRANCH  19  29
ATOM     29  C1  CPB d          41.576  42.015  28.365  0.00  0.00     0.066 C 
ATOM     30  H1  CPB d          42.624  41.913  28.683  0.00  0.00     0.068 H 
ATOM     31  H2  CPB d          40.945  42.221  29.242  0.00  0.00     0.068 H 
ATOM     32  H3  CPB d          41.490  42.844  27.648  0.00  0.00     0.068 H 
ENDBRANCH  19  29
BRANCH  24  33
ATOM     33  O3  CPB d          39.401  39.516  25.843  0.00  0.00    -0.393 OA
ATOM     34  H21 CPB d          39.787  38.732  25.469  0.00  0.00     0.210 HD
ENDBRANCH  24  33
ENDBRANCH   1  14
BRANCH  11  35
ATOM     35  O7  CPB d          40.452  37.212  24.913  0.00  0.00    -0.360 OA
ATOM     36  H16 CPB d          40.602  36.755  24.093  0.00  0.00     0.217 HD
ENDBRANCH  11  35
BRANCH   4  37
ATOM     37  C21 CPB d          37.636  35.728  31.379  0.00  0.00     0.020 A 
ATOM     38  C22 CPB d          38.242  36.825  32.017  0.00  0.00     0.047 A 
ATOM     39 CL1  CPB d          39.448  37.786  31.237  0.00  0.00    -0.083 Cl
ATOM     40  C23 CPB d          37.888  37.170  33.321  0.00  0.00    -0.061 A 
ATOM     41  C24 CPB d          36.922  36.427  33.997  0.00  0.00    -0.081 A 
ATOM     42  H17 CPB d          38.363  38.014  33.808  0.00  0.00     0.086 H 
ATOM     43  C25 CPB d          36.309  35.343  33.369  0.00  0.00    -0.082 A 
ATOM     44  H18 CPB d          36.647  36.692  35.011  0.00  0.00     0.083 H 
ATOM     45  C26 CPB d          36.658  34.997  32.070  0.00  0.00    -0.069 A 
ATOM     46  H19 CPB d          35.557  34.767  33.897  0.00  0.00     0.083 H 
ATOM     47  H20 CPB d          36.171  34.157  31.587  0.00  0.00     0.085 H 
ENDBRANCH   4  37
BRANCH   9  48
ATOM     48  O5  CPB d          38.298  33.073  25.571  0.00  0.00    -0.360 OA
ATOM     49  H14 CPB d          38.302  33.133  24.623  0.00  0.00     0.217 HD
ENDBRANCH   9  48
TORSDOF 6
ENDMDL
MODEL 3
REMARK VINA RESULT:      -8.9      1.300      1.725
REMARK  6 active torsions:
REMARK  status: ('A' for Active; 'I' for Inactive)
REMARK    1  A    between atoms: C1_1  and  N1_2 
REMARK    2  A    between atoms: C14_5  and  C8_8 
REMARK    3  A    between atoms: C13_6  and  O3_28 
REMARK    4  A    between atoms: C2_11  and  C21_21 
REMARK    5  A    between atoms: C5_16  and  O5_17 
REMARK    6  A    between atoms: C7_19  and  O7_20 
ROOT
ATOM      1  C8  CPB d          39.748  37.486  30.326  0.00  0.00     0.017 A 
ATOM      2  C9  CPB d          38.899  36.386  30.115  0.00  0.00     0.102 A 
ATOM      3  O1  CPB d          39.017  35.689  28.936  0.00  0.00    -0.308 OA
ATOM      4  C2  CPB d          38.233  34.585  28.722  0.00  0.00     0.091 A 
ATOM      5  C3  CPB d          37.298  34.189  29.676  0.00  0.00    -0.000 A 
ATOM      6  C4  CPB d          37.144  34.906  30.859  0.00  0.00     0.190 A 
ATOM      7  O4  CPB d          36.310  34.542  31.690  0.00  0.00    -0.287 OA
ATOM      8  C10 CPB d          37.959  36.017  31.088  0.00  0.00     0.082 A 
ATOM      9  C5  CPB d          37.884  36.732  32.289  0.00  0.00     0.085 A 
ATOM     10  C6  CPB d          38.718  37.820  32.498  0.00  0.00    -0.017 A 
ATOM     11  C7  CPB d          39.641  38.204  31.527  0.00  0.00     0.077 A 
ATOM     12  H13 CPB d          36.681  33.310  29.495  0.00  0.00     0.094 H 
ATOM     13  H15 CPB d          38.651  38.378  33.426  0.00  0.00     0.092 H 
ENDROOT
BRANCH   1  14
ATOM     14  C14 CPB d          40.753  37.845  29.189  0.00  0.00     0.005 C 
ATOM     15  C15 CPB d          41.241  36.593  28.443  0.00  0.00    -0.033 C 
ATOM     16  C16 CPB d          42.255  36.987  27.353  0.00  0.00     0.084 C 
ATOM     17  H7  CPB d          41.721  35.908  29.157  0.00  0.00     0.036 H 
ATOM     18  H8  CPB d          40.381  36.091  27.975  0.00  0.00     0.036 H 
ATOM     19  N1  CPB d          41.676  38.004  26.445  0.00  0.00    -0.072 N 
ATOM     20  H5  CPB d          43.155  37.399  27.831  0.00  0.00     0.076 H 
ATOM     21  H6  CPB d          42.525  36.094  26.770  0.00  0.00     0.076 H 
ATOM     22  C12 CPB d          41.326  39.247  27.172  0.00  0.00     0.107 C 
ATOM     23  H4  CPB d          40.843  37.628  26.018  0.00  0.00     0.279 HD
ATOM     24  C13 CPB d          40.246  38.933  28.212  0.00  0.00     0.066 C 
ATOM     25  H11 CPB d          40.946  39.995  26.461  0.00  0.00     0.080 H 
ATOM     26  H12 CPB d          42.220  39.642  27.677  0.00  0.00     0.080 H 
ATOM     27  H10 CPB d          40.005  39.844  28.782  0.00  0.00     0.086 H 
ATOM     28  H9  CPB d          41.634  38.273  29.689  0.00  0.00     0.051 H 
BRANCH  19  29
ATOM     29  C1  CPB d          42.665  38.323  25.401  0.00  0.00     0.066 C 
ATOM     30  H1  CPB d          42.304  37.954  24.430  0.00  0.00     0.068 H 
ATOM     31  H2  CPB d          43.623  37.840  25.645  0.00  0.00     0.068 H 
ATOM     32  H3  CPB d          42.805  39.413  25.350  0.00  0.00     0.068 H 
ENDBRANCH  19  29
BRANCH  24  33
ATOM     33  O3  CPB d          39.083  38.485  27.518  0.00  0.00    -0.393 OA
ATOM     34  H21 CPB d          39.335  38.141  26.669  0.00  0.00     0.210 HD
ENDBRANCH  24  33
ENDBRANCH   1  14
BRANCH  11  35
ATOM     35  O7  CPB d          40.424  39.279  31.806  0.00  0.00    -0.360 OA
ATOM     36  H16 CPB d          39.881  39.989  32.128  0.00  0.00     0.217 HD
ENDBRANCH  11  35
BRANCH   4  37
ATOM     37  C21 CPB d          38.387  33.831  27.549  0.00  0.00     0.020 A 
ATOM     38  C22 CPB d          38.721  34.403  26.308  0.00  0.00     0.047 A 
ATOM     39 CL1  CPB d          38.942  36.106  26.114  0.00  0.00    -0.083 Cl
ATOM     40  C23 CPB d          38.877  33.601  25.177  0.00  0.00    -0.061 A 
ATOM     41  C24 CPB d          38.707  32.222  25.277  0.00  0.00    -0.081 A 
ATOM     42  H17 CPB d          39.129  34.050  24.223  0.00  0.00     0.086 H 
ATOM     43  C25 CPB d          38.385  31.645  26.506  0.00  0.00    -0.082 A 
ATOM     44  H18 CPB d          38.825  31.597  24.400  0.00  0.00     0.083 H 
ATOM     45  C26 CPB d          38.230  32.440  27.634  0.00  0.00    -0.069 A 
ATOM     46  H19 CPB d          38.255  30.571  26.580  0.00  0.00     0.083 H 
ATOM     47  H20 CPB d          37.987  31.982  28.586  0.00  0.00     0.085 H 
ENDBRANCH   4  37
BRANCH   9  48
ATOM     48  O5  CPB d          36.997  36.394  33.268  0.00  0.00    -0.360 OA
ATOM     49  H14 CPB d          36.198  36.070  32.871  0.00  0.00     0.217 HD
ENDBRANCH   9  48
TORSDOF 6
ENDMDL
MODEL 4
REMARK VINA RESULT:      -8.8      2.422      5.691
REMARK  6 active torsions:
REMARK  status: ('A' for Active; 'I' for Inactive)
REMARK    1  A    between atoms: C1_1  and  N1_2 
REMARK    2  A    between atoms: C14_5  and  C8_8 
REMARK    3  A    between atoms: C13_6  and  O3_28 
REMARK    4  A    between atoms: C2_11  and  C21_21 
REMARK    5  A    between atoms: C5_16  and  O5_17 
REMARK    6  A    between atoms: C7_19  and  O7_20 
ROOT
ATOM      1  C8  CPB d          39.001  35.797  28.581  0.00  0.00     0.017 A 
ATOM      2  C9  CPB d          38.579  36.098  29.887  0.00  0.00     0.102 A 
ATOM      3  O1  CPB d          39.092  37.220  30.495  0.00  0.00    -0.308 OA
ATOM      4  C2  CPB d          38.665  37.562  31.752  0.00  0.00     0.091 A 
ATOM      5  C3  CPB d          37.743  36.762  32.426  0.00  0.00    -0.000 A 
ATOM      6  C4  CPB d          37.244  35.606  31.836  0.00  0.00     0.190 A 
ATOM      7  O4  CPB d          36.431  34.910  32.448  0.00  0.00    -0.287 OA
ATOM      8  C10 CPB d          37.660  35.268  30.546  0.00  0.00     0.082 A 
ATOM      9  C5  CPB d          37.138  34.149  29.888  0.00  0.00     0.085 A 
ATOM     10  C6  CPB d          37.555  33.847  28.600  0.00  0.00    -0.017 A 
ATOM     11  C7  CPB d          38.483  34.656  27.948  0.00  0.00     0.077 A 
ATOM     12  H13 CPB d          37.412  37.046  33.423  0.00  0.00     0.094 H 
ATOM     13  H15 CPB d          37.155  32.974  28.097  0.00  0.00     0.092 H 
ENDROOT
BRANCH   1  14
ATOM     14  C14 CPB d          40.040  36.756  27.923  0.00  0.00     0.005 C 
ATOM     15  C15 CPB d          41.314  36.010  27.496  0.00  0.00    -0.033 C 
ATOM     16  C16 CPB d          42.325  36.997  26.884  0.00  0.00     0.084 C 
ATOM     17  H7  CPB d          41.764  35.527  28.375  0.00  0.00     0.036 H 
ATOM     18  H8  CPB d          41.054  35.246  26.749  0.00  0.00     0.036 H 
ATOM     19  N1  CPB d          41.706  37.754  25.771  0.00  0.00    -0.072 N 
ATOM     20  H5  CPB d          42.657  37.701  27.660  0.00  0.00     0.076 H 
ATOM     21  H6  CPB d          43.191  36.437  26.502  0.00  0.00     0.076 H 
ATOM     22  C12 CPB d          40.552  38.559  26.235  0.00  0.00     0.107 C 
ATOM     23  H4  CPB d          41.391  37.105  25.066  0.00  0.00     0.279 HD
ATOM     24  C13 CPB d          39.468  37.620  26.773  0.00  0.00     0.066 C 
ATOM     25  H11 CPB d          40.149  39.144  25.396  0.00  0.00     0.080 H 
ATOM     26  H12 CPB d          40.878  39.241  27.035  0.00  0.00     0.080 H 
ATOM     27  H10 CPB d          38.621  38.211  27.153  0.00  0.00     0.086 H 
ATOM     28  H9  CPB d          40.340  37.462  28.712  0.00  0.00     0.051 H 
BRANCH  19  29
ATOM     29  C1  CPB d          42.717  38.657  25.194  0.00  0.00     0.066 C 
ATOM     30  H1  CPB d          43.694  38.152  25.182  0.00  0.00     0.068 H 
ATOM     31  H2  CPB d          42.783  39.570  25.803  0.00  0.00     0.068 H 
ATOM     32  H3  CPB d          42.429  38.921  24.166  0.00  0.00     0.068 H 
ENDBRANCH  19  29
BRANCH  24  33
ATOM     33  O3  CPB d          39.027  36.795  25.696  0.00  0.00    -0.393 OA
ATOM     34  H21 CPB d          38.137  37.032  25.461  0.00  0.00     0.210 HD
ENDBRANCH  24  33
ENDBRANCH   1  14
BRANCH  11  35
ATOM     35  O7  CPB d          38.841  34.297  26.687  0.00  0.00    -0.360 OA
ATOM     36  H16 CPB d          38.060  34.162  26.163  0.00  0.00     0.217 HD
ENDBRANCH  11  35
BRANCH   4  37
ATOM     37  C21 CPB d          39.135  38.737  32.357  0.00  0.00     0.020 A 
ATOM     38  C22 CPB d          39.012  40.007  31.765  0.00  0.00     0.047 A 
ATOM     39 CL1  CPB d          38.289  40.226  30.210  0.00  0.00    -0.083 Cl
ATOM     40  C23 CPB d          39.485  41.144  32.421  0.00  0.00    -0.061 A 
ATOM     41  C24 CPB d          40.079  41.023  33.675  0.00  0.00    -0.081 A 
ATOM     42  H17 CPB d          39.391  42.119  31.955  0.00  0.00     0.086 H 
ATOM     43  C25 CPB d          40.197  39.769  34.274  0.00  0.00    -0.082 A 
ATOM     44  H18 CPB d          40.449  41.904  34.186  0.00  0.00     0.083 H 
ATOM     45  C26 CPB d          39.726  38.635  33.625  0.00  0.00    -0.069 A 
ATOM     46  H19 CPB d          40.658  39.679  35.251  0.00  0.00     0.083 H 
ATOM     47  H20 CPB d          39.816  37.665  34.101  0.00  0.00     0.085 H 
ENDBRANCH   4  37
BRANCH   9  48
ATOM     48  O5  CPB d          36.228  33.328  30.486  0.00  0.00    -0.360 OA
ATOM     49  H14 CPB d          36.600  32.459  30.578  0.00  0.00     0.217 HD
ENDBRANCH   9  48
TORSDOF 6
ENDMDL
MODEL 5
REMARK VINA RESULT:      -8.8      2.277      5.288
REMARK  6 active torsions:
REMARK  status: ('A' for Active; 'I' for Inactive)
REMARK    1  A    between atoms: C1_1  and  N1_2 
REMARK    2  A    between atoms: C14_5  and  C8_8 
REMARK    3  A    between atoms: C13_6  and  O3_28 
REMARK    4  A    between atoms: C2_11  and  C21_21 
REMARK    5  A    between atoms: C5_16  and  O5_17 
REMARK    6  A    between atoms: C7_19  and  O7_20 
ROOT
ATOM      1  C8  CPB d          39.623  37.041  27.144  0.00  0.00     0.017 A 
ATOM      2  C9  CPB d          38.972  36.158  28.021  0.00  0.00     0.102 A 
ATOM      3  O1  CPB d          38.790  36.551  29.326  0.00  0.00    -0.308 OA
ATOM      4  C2  CPB d          38.119  35.728  30.193  0.00  0.00     0.091 A 
ATOM      5  C3  CPB d          37.652  34.486  29.767  0.00  0.00    -0.000 A 
ATOM      6  C4  CPB d          37.861  34.061  28.459  0.00  0.00     0.190 A 
ATOM      7  O4  CPB d          37.443  32.957  28.101  0.00  0.00    -0.287 OA
ATOM      8  C10 CPB d          38.524  34.908  27.569  0.00  0.00     0.082 A 
ATOM      9  C5  CPB d          38.702  34.550  26.227  0.00  0.00     0.085 A 
ATOM     10  C6  CPB d          39.347  35.419  25.360  0.00  0.00    -0.017 A 
ATOM     11  C7  CPB d          39.812  36.653  25.809  0.00  0.00     0.077 A 
ATOM     12  H13 CPB d          37.120  33.842  30.465  0.00  0.00     0.094 H 
ATOM     13  H15 CPB d          39.491  35.135  24.324  0.00  0.00     0.092 H 
ENDROOT
BRANCH   1  14
ATOM     14  C14 CPB d          40.109  38.403  27.727  0.00  0.00     0.005 C 
ATOM     15  C15 CPB d          39.090  38.998  28.713  0.00  0.00    -0.033 C 
ATOM     16  C16 CPB d          39.591  40.355  29.238  0.00  0.00     0.084 C 
ATOM     17  H7  CPB d          38.128  39.139  28.199  0.00  0.00     0.036 H 
ATOM     18  H8  CPB d          38.956  38.307  29.558  0.00  0.00     0.036 H 
ATOM     19  N1  CPB d          40.943  40.219  29.828  0.00  0.00    -0.072 N 
ATOM     20  H5  CPB d          39.630  41.073  28.406  0.00  0.00     0.076 H 
ATOM     21  H6  CPB d          38.897  40.724  30.008  0.00  0.00     0.076 H 
ATOM     22  C12 CPB d          41.931  39.759  28.825  0.00  0.00     0.107 C 
ATOM     23  H4  CPB d          40.907  39.551  30.583  0.00  0.00     0.279 HD
ATOM     24  C13 CPB d          41.534  38.364  28.331  0.00  0.00     0.066 C 
ATOM     25  H11 CPB d          42.930  39.716  29.284  0.00  0.00     0.080 H 
ATOM     26  H12 CPB d          41.947  40.459  27.976  0.00  0.00     0.080 H 
ATOM     27  H10 CPB d          42.243  38.029  27.559  0.00  0.00     0.086 H 
ATOM     28  H9  CPB d          40.160  39.096  26.875  0.00  0.00     0.051 H 
BRANCH  19  29
ATOM     29  C1  CPB d          41.366  41.530  30.349  0.00  0.00     0.066 C 
ATOM     30  H1  CPB d          41.193  41.566  31.435  0.00  0.00     0.068 H 
ATOM     31  H2  CPB d          40.784  42.324  29.858  0.00  0.00     0.068 H 
ATOM     32  H3  CPB d          42.436  41.679  30.144  0.00  0.00     0.068 H 
ENDBRANCH  19  29
BRANCH  24  33
ATOM     33  O3  CPB d          41.585  37.473  29.443  0.00  0.00    -0.393 OA
ATOM     34  H21 CPB d          41.538  37.971  30.250  0.00  0.00     0.210 HD
ENDBRANCH  24  33
ENDBRANCH   1  14
BRANCH  11  35
ATOM     35  O7  CPB d          40.433  37.450  24.900  0.00  0.00    -0.360 OA
ATOM     36  H16 CPB d          41.331  37.159  24.785  0.00  0.00     0.217 HD
ENDBRANCH  11  35
BRANCH   4  37
ATOM     37  C21 CPB d          37.874  36.146  31.510  0.00  0.00     0.020 A 
ATOM     38  C22 CPB d          36.930  35.525  32.348  0.00  0.00     0.047 A 
ATOM     39 CL1  CPB d          35.959  34.200  31.811  0.00  0.00    -0.083 Cl
ATOM     40  C23 CPB d          36.740  35.974  33.655  0.00  0.00    -0.061 A 
ATOM     41  C24 CPB d          37.495  37.041  34.138  0.00  0.00    -0.081 A 
ATOM     42  H17 CPB d          36.007  35.494  34.294  0.00  0.00     0.086 H 
ATOM     43  C25 CPB d          38.440  37.656  33.317  0.00  0.00    -0.082 A 
ATOM     44  H18 CPB d          37.348  37.393  35.152  0.00  0.00     0.083 H 
ATOM     45  C26 CPB d          38.633  37.211  32.016  0.00  0.00    -0.069 A 
ATOM     46  H19 CPB d          39.027  38.485  33.696  0.00  0.00     0.083 H 
ATOM     47  H20 CPB d          39.374  37.691  31.387  0.00  0.00     0.085 H 
ENDBRANCH   4  37
BRANCH   9  48
ATOM     48  O5  CPB d          38.264  33.353  25.743  0.00  0.00    -0.360 OA
ATOM     49  H14 CPB d          38.335  33.352  24.795  0.00  0.00     0.217 HD
ENDBRANCH   9  48
TORSDOF 6
ENDMDL
MODEL 6
REMARK VINA RESULT:      -8.2      2.255      3.842
REMARK  6 active torsions:
REMARK  status: ('A' for Active; 'I' for Inactive)
REMARK    1  A    between atoms: C1_1  and  N1_2 
REMARK    2  A    between atoms: C14_5  and  C8_8 
REMARK    3  A    between atoms: C13_6  and  O3_28 
REMARK    4  A    between atoms: C2_11  and  C21_21 
REMARK    5  A    between atoms: C5_16  and  O5_17 
REMARK    6  A    between atoms: C7_19  and  O7_20 
ROOT
ATOM      1  C8  CPB d          38.405  36.984  31.613  0.00  0.00     0.017 A 
ATOM      2  C9  CPB d          38.604  36.414  30.344  0.00  0.00     0.102 A 
ATOM      3  O1  CPB d          39.513  37.005  29.499  0.00  0.00    -0.308 OA
ATOM      4  C2  CPB d          39.760  36.445  28.272  0.00  0.00     0.091 A 
ATOM      5  C3  CPB d          39.070  35.303  27.867  0.00  0.00    -0.000 A 
ATOM      6  C4  CPB d          38.121  34.716  28.699  0.00  0.00     0.190 A 
ATOM      7  O4  CPB d          37.520  33.708  28.323  0.00  0.00    -0.287 OA
ATOM      8  C10 CPB d          37.886  35.273  29.958  0.00  0.00     0.082 A 
ATOM      9  C5  CPB d          36.988  34.681  30.853  0.00  0.00     0.085 A 
ATOM     10  C6  CPB d          36.787  35.244  32.105  0.00  0.00    -0.017 A 
ATOM     11  C7  CPB d          37.482  36.390  32.486  0.00  0.00     0.077 A 
ATOM     12  H13 CPB d          39.275  34.867  26.891  0.00  0.00     0.094 H 
ATOM     13  H15 CPB d          36.084  34.788  32.792  0.00  0.00     0.092 H 
ENDROOT
BRANCH   1  14
ATOM     14  C14 CPB d          39.226  38.265  31.960  0.00  0.00     0.005 C 
ATOM     15  C15 CPB d          40.712  38.103  31.604  0.00  0.00    -0.033 C 
ATOM     16  C16 CPB d          41.491  39.373  31.993  0.00  0.00     0.084 C 
ATOM     17  H7  CPB d          41.125  37.242  32.149  0.00  0.00     0.036 H 
ATOM     18  H8  CPB d          40.810  37.934  30.522  0.00  0.00     0.036 H 
ATOM     19  N1  CPB d          40.881  40.571  31.369  0.00  0.00    -0.072 N 
ATOM     20  H5  CPB d          41.473  39.487  33.087  0.00  0.00     0.076 H 
ATOM     21  H6  CPB d          42.532  39.278  31.651  0.00  0.00     0.076 H 
ATOM     22  C12 CPB d          39.485  40.770  31.824  0.00  0.00     0.107 C 
ATOM     23  H4  CPB d          40.887  40.459  30.367  0.00  0.00     0.279 HD
ATOM     24  C13 CPB d          38.636  39.574  31.381  0.00  0.00     0.066 C 
ATOM     25  H11 CPB d          39.081  41.692  31.380  0.00  0.00     0.080 H 
ATOM     26  H12 CPB d          39.464  40.851  32.921  0.00  0.00     0.080 H 
ATOM     27  H10 CPB d          37.606  39.696  31.745  0.00  0.00     0.086 H 
ATOM     28  H9  CPB d          39.176  38.368  33.054  0.00  0.00     0.051 H 
BRANCH  19  29
ATOM     29  C1  CPB d          41.678  41.753  31.738  0.00  0.00     0.066 C 
ATOM     30  H1  CPB d          41.631  41.901  32.827  0.00  0.00     0.068 H 
ATOM     31  H2  CPB d          41.273  42.641  31.229  0.00  0.00     0.068 H 
ATOM     32  H3  CPB d          42.723  41.600  31.434  0.00  0.00     0.068 H 
ENDBRANCH  19  29
BRANCH  24  33
ATOM     33  O3  CPB d          38.636  39.538  29.955  0.00  0.00    -0.393 OA
ATOM     34  H21 CPB d          38.238  38.728  29.659  0.00  0.00     0.210 HD
ENDBRANCH  24  33
ENDBRANCH   1  14
BRANCH  11  35
ATOM     35  O7  CPB d          37.233  36.881  33.728  0.00  0.00    -0.360 OA
ATOM     36  H16 CPB d          37.097  37.820  33.675  0.00  0.00     0.217 HD
ENDBRANCH  11  35
BRANCH   4  37
ATOM     37  C21 CPB d          40.730  37.004  27.427  0.00  0.00     0.020 A 
ATOM     38  C22 CPB d          42.112  36.867  27.650  0.00  0.00     0.047 A 
ATOM     39 CL1  CPB d          42.739  36.015  29.016  0.00  0.00    -0.083 Cl
ATOM     40  C23 CPB d          43.031  37.433  26.766  0.00  0.00    -0.061 A 
ATOM     41  C24 CPB d          42.579  38.133  25.650  0.00  0.00    -0.081 A 
ATOM     42  H17 CPB d          44.095  37.328  26.947  0.00  0.00     0.086 H 
ATOM     43  C25 CPB d          41.210  38.265  25.415  0.00  0.00    -0.082 A 
ATOM     44  H18 CPB d          43.291  38.575  24.963  0.00  0.00     0.083 H 
ATOM     45  C26 CPB d          40.292  37.703  26.292  0.00  0.00    -0.069 A 
ATOM     46  H19 CPB d          40.862  38.809  24.545  0.00  0.00     0.083 H 
ATOM     47  H20 CPB d          39.230  37.805  26.099  0.00  0.00     0.085 H 
ENDBRANCH   4  37
BRANCH   9  48
ATOM     48  O5  CPB d          36.286  33.559  30.524  0.00  0.00    -0.360 OA
ATOM     49  H14 CPB d          35.467  33.547  31.007  0.00  0.00     0.217 HD
ENDBRANCH   9  48
TORSDOF 6
ENDMDL
MODEL 7
REMARK VINA RESULT:      -8.0      1.655      2.118
REMARK  6 active torsions:
REMARK  status: ('A' for Active; 'I' for Inactive)
REMARK    1  A    between atoms: C1_1  and  N1_2 
REMARK    2  A    between atoms: C14_5  and  C8_8 
REMARK    3  A    between atoms: C13_6  and  O3_28 
REMARK    4  A    between atoms: C2_11  and  C21_21 
REMARK    5  A    between atoms: C5_16  and  O5_17 
REMARK    6  A    between atoms: C7_19  and  O7_20 
ROOT
ATOM      1  C8  CPB d          39.670  38.511  29.615  0.00  0.00     0.017 A 
ATOM      2  C9  CPB d          39.008  37.274  29.683  0.00  0.00     0.102 A 
ATOM      3  O1  CPB d          39.025  36.464  28.573  0.00  0.00    -0.308 OA
ATOM      4  C2  CPB d          38.425  35.232  28.626  0.00  0.00     0.091 A 
ATOM      5  C3  CPB d          37.774  34.814  29.785  0.00  0.00    -0.000 A 
ATOM      6  C4  CPB d          37.720  35.639  30.905  0.00  0.00     0.190 A 
ATOM      7  O4  CPB d          37.137  35.254  31.920  0.00  0.00    -0.287 OA
ATOM      8  C10 CPB d          38.350  36.885  30.859  0.00  0.00     0.082 A 
ATOM      9  C5  CPB d          38.375  37.722  31.980  0.00  0.00     0.085 A 
ATOM     10  C6  CPB d          39.025  38.946  31.914  0.00  0.00    -0.017 A 
ATOM     11  C7  CPB d          39.664  39.347  30.742  0.00  0.00     0.077 A 
ATOM     12  H13 CPB d          37.302  33.833  29.815  0.00  0.00     0.094 H 
ATOM     13  H15 CPB d          39.035  39.596  32.781  0.00  0.00     0.092 H 
ENDROOT
BRANCH   1  14
ATOM     14  C14 CPB d          40.362  38.881  28.267  0.00  0.00     0.005 C 
ATOM     15  C15 CPB d          39.923  40.264  27.761  0.00  0.00    -0.033 C 
ATOM     16  C16 CPB d          40.601  40.576  26.414  0.00  0.00     0.084 C 
ATOM     17  H7  CPB d          38.831  40.273  27.629  0.00  0.00     0.036 H 
ATOM     18  H8  CPB d          40.210  41.028  28.498  0.00  0.00     0.036 H 
ATOM     19  N1  CPB d          42.073  40.450  26.530  0.00  0.00    -0.072 N 
ATOM     20  H5  CPB d          40.236  39.869  25.655  0.00  0.00     0.076 H 
ATOM     21  H6  CPB d          40.349  41.602  26.111  0.00  0.00     0.076 H 
ATOM     22  C12 CPB d          42.474  39.074  26.901  0.00  0.00     0.107 C 
ATOM     23  H4  CPB d          42.403  41.090  27.236  0.00  0.00     0.279 HD
ATOM     24  C13 CPB d          41.903  38.739  28.283  0.00  0.00     0.066 C 
ATOM     25  H11 CPB d          43.572  39.005  26.930  0.00  0.00     0.080 H 
ATOM     26  H12 CPB d          42.081  38.363  26.159  0.00  0.00     0.080 H 
ATOM     27  H10 CPB d          42.167  37.705  28.552  0.00  0.00     0.086 H 
ATOM     28  H9  CPB d          39.998  38.149  27.530  0.00  0.00     0.051 H 
BRANCH  19  29
ATOM     29  C1  CPB d          42.679  40.791  25.232  0.00  0.00     0.066 C 
ATOM     30  H1  CPB d          43.665  41.250  25.397  0.00  0.00     0.068 H 
ATOM     31  H2  CPB d          42.029  41.501  24.699  0.00  0.00     0.068 H 
ATOM     32  H3  CPB d          42.797  39.878  24.631  0.00  0.00     0.068 H 
ENDBRANCH  19  29
BRANCH  24  33
ATOM     33  O3  CPB d          42.481  39.639  29.228  0.00  0.00    -0.393 OA
ATOM     34  H21 CPB d          42.970  40.310  28.766  0.00  0.00     0.210 HD
ENDBRANCH  24  33
ENDBRANCH   1  14
BRANCH  11  35
ATOM     35  O7  CPB d          40.279  40.558  30.754  0.00  0.00    -0.360 OA
ATOM     36  H16 CPB d          41.205  40.440  30.933  0.00  0.00     0.217 HD
ENDBRANCH  11  35
BRANCH   4  37
ATOM     37  C21 CPB d          38.489  34.372  27.519  0.00  0.00     0.020 A 
ATOM     38  C22 CPB d          38.091  33.024  27.571  0.00  0.00     0.047 A 
ATOM     39 CL1  CPB d          37.511  32.295  29.028  0.00  0.00    -0.083 Cl
ATOM     40  C23 CPB d          38.161  32.219  26.434  0.00  0.00    -0.061 A 
ATOM     41  C24 CPB d          38.624  32.756  25.234  0.00  0.00    -0.081 A 
ATOM     42  H17 CPB d          37.858  31.180  26.483  0.00  0.00     0.086 H 
ATOM     43  C25 CPB d          39.012  34.094  25.170  0.00  0.00    -0.082 A 
ATOM     44  H18 CPB d          38.682  32.133  24.349  0.00  0.00     0.083 H 
ATOM     45  C26 CPB d          38.942  34.898  26.300  0.00  0.00    -0.069 A 
ATOM     46  H19 CPB d          39.370  34.509  24.235  0.00  0.00     0.083 H 
ATOM     47  H20 CPB d          39.239  35.939  26.240  0.00  0.00     0.085 H 
ENDBRANCH   4  37
BRANCH   9  48
ATOM     48  O5  CPB d          37.765  37.373  33.148  0.00  0.00    -0.360 OA
ATOM     49  H14 CPB d          36.828  37.504  33.065  0.00  0.00     0.217 HD
ENDBRANCH   9  48
TORSDOF 6
ENDMDL
MODEL 8
REMARK VINA RESULT:      -7.8      2.387      5.475
REMARK  6 active torsions:
REMARK  status: ('A' for Active; 'I' for Inactive)
REMARK    1  A    between atoms: C1_1  and  N1_2 
REMARK    2  A    between atoms: C14_5  and  C8_8 
REMARK    3  A    between atoms: C13_6  and  O3_28 
REMARK    4  A    between atoms: C2_11  and  C21_21 
REMARK    5  A    between atoms: C5_16  and  O5_17 
REMARK    6  A    between atoms: C7_19  and  O7_20 
ROOT
ATOM      1  C8  CPB d          38.636  35.627  28.930  0.00  0.00     0.017 A 
ATOM      2  C9  CPB d          38.468  36.274  30.166  0.00  0.00     0.102 A 
ATOM      3  O1  CPB d          39.127  37.462  30.375  0.00  0.00    -0.308 OA
ATOM      4  C2  CPB d          38.946  38.137  31.554  0.00  0.00     0.091 A 
ATOM      5  C3  CPB d          38.126  37.609  32.550  0.00  0.00    -0.000 A 
ATOM      6  C4  CPB d          37.481  36.390  32.365  0.00  0.00     0.190 A 
ATOM      7  O4  CPB d          36.762  35.938  33.259  0.00  0.00    -0.287 OA
ATOM      8  C10 CPB d          37.647  35.713  31.155  0.00  0.00     0.082 A 
ATOM      9  C5  CPB d          36.969  34.515  30.900  0.00  0.00     0.085 A 
ATOM     10  C6  CPB d          37.136  33.873  29.682  0.00  0.00    -0.017 A 
ATOM     11  C7  CPB d          37.967  34.415  28.702  0.00  0.00     0.077 A 
ATOM     12  H13 CPB d          37.989  38.155  33.482  0.00  0.00     0.094 H 
ATOM     13  H15 CPB d          36.617  32.941  29.490  0.00  0.00     0.092 H 
ENDROOT
BRANCH   1  14
ATOM     14  C14 CPB d          39.581  36.303  27.890  0.00  0.00     0.005 C 
ATOM     15  C15 CPB d          39.292  37.806  27.750  0.00  0.00    -0.033 C 
ATOM     16  C16 CPB d          40.221  38.428  26.691  0.00  0.00     0.084 C 
ATOM     17  H7  CPB d          38.245  37.948  27.444  0.00  0.00     0.036 H 
ATOM     18  H8  CPB d          39.462  38.300  28.718  0.00  0.00     0.036 H 
ATOM     19  N1  CPB d          41.640  38.146  27.012  0.00  0.00    -0.072 N 
ATOM     20  H5  CPB d          39.981  38.001  25.706  0.00  0.00     0.076 H 
ATOM     21  H6  CPB d          40.065  39.516  26.667  0.00  0.00     0.076 H 
ATOM     22  C12 CPB d          41.918  36.691  27.022  0.00  0.00     0.107 C 
ATOM     23  H4  CPB d          41.853  38.527  27.921  0.00  0.00     0.279 HD
ATOM     24  C13 CPB d          41.086  36.028  28.125  0.00  0.00     0.066 C 
ATOM     25  H11 CPB d          42.987  36.522  27.214  0.00  0.00     0.080 H 
ATOM     26  H12 CPB d          41.647  36.259  26.047  0.00  0.00     0.080 H 
ATOM     27  H10 CPB d          41.259  34.942  28.116  0.00  0.00     0.086 H 
ATOM     28  H9  CPB d          39.337  35.846  26.919  0.00  0.00     0.051 H 
BRANCH  19  29
ATOM     29  C1  CPB d          42.490  38.789  25.996  0.00  0.00     0.066 C 
ATOM     30  H1  CPB d          43.523  38.427  26.100  0.00  0.00     0.068 H 
ATOM     31  H2  CPB d          42.467  39.880  26.135  0.00  0.00     0.068 H 
ATOM     32  H3  CPB d          42.115  38.539  24.992  0.00  0.00     0.068 H 
ENDBRANCH  19  29
BRANCH  24  33
ATOM     33  O3  CPB d          41.507  36.567  29.377  0.00  0.00    -0.393 OA
ATOM     34  H21 CPB d          41.661  37.500  29.283  0.00  0.00     0.210 HD
ENDBRANCH  24  33
ENDBRANCH   1  14
BRANCH  11  35
ATOM     35  O7  CPB d          38.079  33.728  27.535  0.00  0.00    -0.360 OA
ATOM     36  H16 CPB d          38.173  34.342  26.816  0.00  0.00     0.217 HD
ENDBRANCH  11  35
BRANCH   4  37
ATOM     37  C21 CPB d          39.565  39.380  31.754  0.00  0.00     0.020 A 
ATOM     38  C22 CPB d          40.908  39.513  32.150  0.00  0.00     0.047 A 
ATOM     39 CL1  CPB d          41.912  38.140  32.458  0.00  0.00    -0.083 Cl
ATOM     40  C23 CPB d          41.476  40.776  32.318  0.00  0.00    -0.061 A 
ATOM     41  C24 CPB d          40.709  41.916  32.086  0.00  0.00    -0.081 A 
ATOM     42  H17 CPB d          42.510  40.870  32.629  0.00  0.00     0.086 H 
ATOM     43  C25 CPB d          39.380  41.794  31.684  0.00  0.00    -0.082 A 
ATOM     44  H18 CPB d          41.147  42.899  32.218  0.00  0.00     0.083 H 
ATOM     45  C26 CPB d          38.811  40.538  31.515  0.00  0.00    -0.069 A 
ATOM     46  H19 CPB d          38.787  42.683  31.503  0.00  0.00     0.083 H 
ATOM     47  H20 CPB d          37.779  40.453  31.195  0.00  0.00     0.085 H 
ENDBRANCH   4  37
BRANCH   9  48
ATOM     48  O5  CPB d          36.146  33.947  31.826  0.00  0.00    -0.360 OA
ATOM     49  H14 CPB d          36.357  34.289  32.687  0.00  0.00     0.217 HD
ENDBRANCH   9  48
TORSDOF 6
ENDMDL
MODEL 9
REMARK VINA RESULT:      -7.7      2.533      4.153
REMARK  6 active torsions:
REMARK  status: ('A' for Active; 'I' for Inactive)
REMARK    1  A    between atoms: C1_1  and  N1_2 
REMARK    2  A    between atoms: C14_5  and  C8_8 
REMARK    3  A    between atoms: C13_6  and  O3_28 
REMARK    4  A    between atoms: C2_11  and  C21_21 
REMARK    5  A    between atoms: C5_16  and  O5_17 
REMARK    6  A    between atoms: C7_19  and  O7_20 
ROOT
ATOM      1  C8  CPB d          38.793  37.248  31.044  0.00  0.00     0.017 A 
ATOM      2  C9  CPB d          39.017  36.671  29.783  0.00  0.00     0.102 A 
ATOM      3  O1  CPB d          39.910  37.283  28.936  0.00  0.00    -0.308 OA
ATOM      4  C2  CPB d          40.182  36.718  27.717  0.00  0.00     0.091 A 
ATOM      5  C3  CPB d          39.534  35.548  27.322  0.00  0.00    -0.000 A 
ATOM      6  C4  CPB d          38.603  34.938  28.156  0.00  0.00     0.190 A 
ATOM      7  O4  CPB d          38.038  33.905  27.789  0.00  0.00    -0.287 OA
ATOM      8  C10 CPB d          38.342  35.501  29.408  0.00  0.00     0.082 A 
ATOM      9  C5  CPB d          37.460  34.888  30.305  0.00  0.00     0.085 A 
ATOM     10  C6  CPB d          37.234  35.458  31.549  0.00  0.00    -0.017 A 
ATOM     11  C7  CPB d          37.886  36.632  31.921  0.00  0.00     0.077 A 
ATOM     12  H13 CPB d          39.759  35.109  26.352  0.00  0.00     0.094 H 
ATOM     13  H15 CPB d          36.543  34.986  32.239  0.00  0.00     0.092 H 
ENDROOT
BRANCH   1  14
ATOM     14  C14 CPB d          39.566  38.560  31.381  0.00  0.00     0.005 C 
ATOM     15  C15 CPB d          38.610  39.715  31.717  0.00  0.00    -0.033 C 
ATOM     16  C16 CPB d          39.411  40.998  32.009  0.00  0.00     0.084 C 
ATOM     17  H7  CPB d          37.940  39.892  30.864  0.00  0.00     0.036 H 
ATOM     18  H8  CPB d          38.016  39.449  32.603  0.00  0.00     0.036 H 
ATOM     19  N1  CPB d          40.412  40.756  33.075  0.00  0.00    -0.072 N 
ATOM     20  H5  CPB d          39.928  41.317  31.093  0.00  0.00     0.076 H 
ATOM     21  H6  CPB d          38.721  41.789  32.335  0.00  0.00     0.076 H 
ATOM     22  C12 CPB d          41.394  39.722  32.674  0.00  0.00     0.107 C 
ATOM     23  H4  CPB d          39.937  40.451  33.910  0.00  0.00     0.279 HD
ATOM     24  C13 CPB d          40.664  38.392  32.460  0.00  0.00     0.066 C 
ATOM     25  H11 CPB d          42.148  39.604  33.466  0.00  0.00     0.080 H 
ATOM     26  H12 CPB d          41.888  40.026  31.739  0.00  0.00     0.080 H 
ATOM     27  H10 CPB d          41.381  37.626  32.127  0.00  0.00     0.086 H 
ATOM     28  H9  CPB d          40.090  38.847  30.457  0.00  0.00     0.051 H 
BRANCH  19  29
ATOM     29  C1  CPB d          41.127  42.015  33.345  0.00  0.00     0.066 C 
ATOM     30  H1  CPB d          40.818  42.776  32.614  0.00  0.00     0.068 H 
ATOM     31  H2  CPB d          42.211  41.846  33.262  0.00  0.00     0.068 H 
ATOM     32  H3  CPB d          40.886  42.363  34.360  0.00  0.00     0.068 H 
ENDBRANCH  19  29
BRANCH  24  33
ATOM     33  O3  CPB d          40.090  37.999  33.705  0.00  0.00    -0.393 OA
ATOM     34  H21 CPB d          39.173  37.789  33.577  0.00  0.00     0.210 HD
ENDBRANCH  24  33
ENDBRANCH   1  14
BRANCH  11  35
ATOM     35  O7  CPB d          37.615  37.128  33.156  0.00  0.00    -0.360 OA
ATOM     36  H16 CPB d          37.021  37.867  33.076  0.00  0.00     0.217 HD
ENDBRANCH  11  35
BRANCH   4  37
ATOM     37  C21 CPB d          41.136  37.301  26.870  0.00  0.00     0.020 A 
ATOM     38  C22 CPB d          42.522  37.140  27.050  0.00  0.00     0.047 A 
ATOM     39 CL1  CPB d          43.175  36.224  28.363  0.00  0.00    -0.083 Cl
ATOM     40  C23 CPB d          43.425  37.731  26.166  0.00  0.00    -0.061 A 
ATOM     41  C24 CPB d          42.951  38.483  25.092  0.00  0.00    -0.081 A 
ATOM     42  H17 CPB d          44.491  37.607  26.314  0.00  0.00     0.086 H 
ATOM     43  C25 CPB d          41.579  38.640  24.900  0.00  0.00    -0.082 A 
ATOM     44  H18 CPB d          43.651  38.945  24.405  0.00  0.00     0.083 H 
ATOM     45  C26 CPB d          40.677  38.052  25.777  0.00  0.00    -0.069 A 
ATOM     46  H19 CPB d          41.214  39.223  24.063  0.00  0.00     0.083 H 
ATOM     47  H20 CPB d          39.612  38.174  25.617  0.00  0.00     0.085 H 
ENDBRANCH   4  37
BRANCH   9  48
ATOM     48  O5  CPB d          36.799  33.739  29.986  0.00  0.00    -0.360 OA
ATOM     49  H14 CPB d          35.990  33.693  30.482  0.00  0.00     0.217 HD
ENDBRANCH   9  48
TORSDOF 6
ENDMDL
MODEL 10
REMARK VINA RESULT:      -7.5      2.534      5.617
REMARK  6 active torsions:
REMARK  status: ('A' for Active; 'I' for Inactive)
REMARK    1  A    between atoms: C1_1  and  N1_2 
REMARK    2  A    between atoms: C14_5  and  C8_8 
REMARK    3  A    between atoms: C13_6  and  O3_28 
REMARK    4  A    between atoms: C2_11  and  C21_21 
REMARK    5  A    between atoms: C5_16  and  O5_17 
REMARK    6  A    between atoms: C7_19  and  O7_20 
ROOT
ATOM      1  C8  CPB d          39.574  36.338  27.358  0.00  0.00     0.017 A 
ATOM      2  C9  CPB d          39.176  36.634  28.673  0.00  0.00     0.102 A 
ATOM      3  O1  CPB d          39.542  37.846  29.208  0.00  0.00    -0.308 OA
ATOM      4  C2  CPB d          39.130  38.179  30.473  0.00  0.00     0.091 A 
ATOM      5  C3  CPB d          38.375  37.283  31.227  0.00  0.00    -0.000 A 
ATOM      6  C4  CPB d          38.028  36.038  30.710  0.00  0.00     0.190 A 
ATOM      7  O4  CPB d          37.361  35.258  31.393  0.00  0.00    -0.287 OA
ATOM      8  C10 CPB d          38.427  35.708  29.413  0.00  0.00     0.082 A 
ATOM      9  C5  CPB d          38.049  34.493  28.829  0.00  0.00     0.085 A 
ATOM     10  C6  CPB d          38.443  34.198  27.533  0.00  0.00    -0.017 A 
ATOM     11  C7  CPB d          39.205  35.105  26.799  0.00  0.00     0.077 A 
ATOM     12  H13 CPB d          38.053  37.560  32.229  0.00  0.00     0.094 H 
ATOM     13  H15 CPB d          38.156  33.253  27.086  0.00  0.00     0.092 H 
ENDROOT
BRANCH   1  14
ATOM     14  C14 CPB d          40.422  37.410  26.608  0.00  0.00     0.005 C 
ATOM     15  C15 CPB d          39.855  38.825  26.803  0.00  0.00    -0.033 C 
ATOM     16  C16 CPB d          40.699  39.847  26.020  0.00  0.00     0.084 C 
ATOM     17  H7  CPB d          38.818  38.855  26.438  0.00  0.00     0.036 H 
ATOM     18  H8  CPB d          39.875  39.081  27.873  0.00  0.00     0.036 H 
ATOM     19  N1  CPB d          42.127  39.747  26.402  0.00  0.00    -0.072 N 
ATOM     20  H5  CPB d          40.598  39.649  24.943  0.00  0.00     0.076 H 
ATOM     21  H6  CPB d          40.336  40.862  26.241  0.00  0.00     0.076 H 
ATOM     22  C12 CPB d          42.680  38.408  26.091  0.00  0.00     0.107 C 
ATOM     23  H4  CPB d          42.215  39.916  27.393  0.00  0.00     0.279 HD
ATOM     24  C13 CPB d          41.938  37.353  26.917  0.00  0.00     0.066 C 
ATOM     25  H11 CPB d          43.751  38.385  26.342  0.00  0.00     0.080 H 
ATOM     26  H12 CPB d          42.550  38.196  25.020  0.00  0.00     0.080 H 
ATOM     27  H10 CPB d          42.318  36.352  26.666  0.00  0.00     0.086 H 
ATOM     28  H9  CPB d          40.322  37.179  25.537  0.00  0.00     0.051 H 
BRANCH  19  29
ATOM     29  C1  CPB d          42.888  40.764  25.658  0.00  0.00     0.066 C 
ATOM     30  H1  CPB d          43.612  40.268  24.995  0.00  0.00     0.068 H 
ATOM     31  H2  CPB d          43.424  41.412  26.367  0.00  0.00     0.068 H 
ATOM     32  H3  CPB d          42.196  41.372  25.055  0.00  0.00     0.068 H 
ENDBRANCH  19  29
BRANCH  24  33
ATOM     33  O3  CPB d          42.181  37.622  28.296  0.00  0.00    -0.393 OA
ATOM     34  H21 CPB d          42.973  38.139  28.382  0.00  0.00     0.210 HD
ENDBRANCH  24  33
ENDBRANCH   1  14
BRANCH  11  35
ATOM     35  O7  CPB d          39.551  34.745  25.535  0.00  0.00    -0.360 OA
ATOM     36  H16 CPB d          40.498  34.746  25.455  0.00  0.00     0.217 HD
ENDBRANCH  11  35
BRANCH   4  37
ATOM     37  C21 CPB d          39.446  39.438  31.005  0.00  0.00     0.020 A 
ATOM     38  C22 CPB d          40.708  39.748  31.545  0.00  0.00     0.047 A 
ATOM     39 CL1  CPB d          41.980  38.581  31.628  0.00  0.00    -0.083 Cl
ATOM     40  C23 CPB d          40.970  41.023  32.047  0.00  0.00    -0.061 A 
ATOM     41  C24 CPB d          39.977  42.001  32.007  0.00  0.00    -0.081 A 
ATOM     42  H17 CPB d          41.943  41.253  32.466  0.00  0.00     0.086 H 
ATOM     43  C25 CPB d          38.727  41.705  31.465  0.00  0.00    -0.082 A 
ATOM     44  H18 CPB d          40.178  42.991  32.398  0.00  0.00     0.083 H 
ATOM     45  C26 CPB d          38.463  40.437  30.964  0.00  0.00    -0.069 A 
ATOM     46  H19 CPB d          37.958  42.468  31.434  0.00  0.00     0.083 H 
ATOM     47  H20 CPB d          37.490  40.219  30.538  0.00  0.00     0.085 H 
ENDBRANCH   4  37
BRANCH   9  48
ATOM     48  O5  CPB d          37.304  33.575  29.508  0.00  0.00    -0.360 OA
ATOM     49  H14 CPB d          37.832  33.186  30.195  0.00  0.00     0.217 HD
ENDBRANCH   9  48
TORSDOF 6
ENDMDL
