MODEL 1
REMARK VINA RESULT:      -7.9      0.000      0.000
REMARK  5 active torsions:
REMARK  status: ('A' for Active; 'I' for Inactive)
REMARK    1  A    between atoms: C4_1  and  O4_2 
REMARK    2  A    between atoms: C3_3  and  O3_4 
REMARK    3  A    between atoms: C2_5  and  O2_6 
REMARK    4  A    between atoms: C5_14  and  C6_15 
REMARK    5  A    between atoms: C6_15  and  O6_16 
ROOT
ATOM      1  C4  KIF d          31.417  66.687   6.966  0.00  0.00     0.084 C 
ATOM      2  C3  KIF d          32.444  66.783   8.159  0.00  0.00     0.090 C 
ATOM      3  C2  KIF d          32.116  65.997   9.473  0.00  0.00     0.099 C 
ATOM      4  C1  KIF d          30.625  65.229   9.288  0.00  0.00     0.111 A 
ATOM      5  N9  KIF d          30.090  64.998  10.629  0.00  0.00    -0.329 N 
ATOM      6  C8  KIF d          28.996  65.692  10.848  0.00  0.00     0.311 A 
ATOM      7  O8  KIF d          28.371  65.651  11.909  0.00  0.00    -0.262 OA
ATOM      8  C7  KIF d          28.699  66.493   9.597  0.00  0.00     0.313 A 
ATOM      9  O7  KIF d          27.743  67.269   9.423  0.00  0.00    -0.262 OA
ATOM     10  N   KIF d          29.681  66.198   8.718  0.00  0.00    -0.311 N 
ATOM     11  C5  KIF d          29.913  66.915   7.402  0.00  0.00     0.064 C 
ATOM     12  H1  KIF d          31.505  65.693   6.506  0.00  0.00     0.090 H 
ATOM     13  H3  KIF d          32.453  67.842   8.456  0.00  0.00     0.091 H 
ATOM     14  H5  KIF d          31.991  66.782  10.233  0.00  0.00     0.093 H 
ATOM     15  H7  KIF d          30.706  64.308   8.691  0.00  0.00     0.111 H 
ATOM     16  H8  KIF d          30.507  64.384  11.299  0.00  0.00     0.165 HD
ATOM     17  H9  KIF d          29.729  67.990   7.541  0.00  0.00     0.080 H 
ENDROOT
BRANCH  11  18
ATOM     18  C6  KIF d          28.967  66.382   6.291  0.00  0.00     0.038 C 
ATOM     19  H10 KIF d          28.850  65.295   6.415  0.00  0.00     0.077 H 
ATOM     20  H11 KIF d          29.416  66.593   5.310  0.00  0.00     0.077 H 
BRANCH  18  21
ATOM     21  O6  KIF d          27.670  66.998   6.351  0.00  0.00    -0.399 OA
ATOM     22  H12 KIF d          27.415  67.110   7.259  0.00  0.00     0.209 HD
ENDBRANCH  18  21
ENDBRANCH  11  18
BRANCH   1  23
ATOM     23  O4  KIF d          31.749  67.696   6.008  0.00  0.00    -0.391 OA
ATOM     24  H2  KIF d          32.379  67.348   5.389  0.00  0.00     0.210 HD
ENDBRANCH   1  23
BRANCH   2  25
ATOM     25  O3  KIF d          33.744  66.485   7.667  0.00  0.00    -0.390 OA
ATOM     26  H4  KIF d          34.237  66.028   8.337  0.00  0.00     0.210 HD
ENDBRANCH   2  25
BRANCH   3  27
ATOM     27  O2  KIF d          32.867  65.206   9.978  0.00  0.00    -0.389 OA
ATOM     28  H6  KIF d          33.716  65.263   9.557  0.00  0.00     0.210 HD
ENDBRANCH   3  27
TORSDOF 5
ENDMDL
