MODEL 1
REMARK VINA RESULT:      -6.7      0.000      0.000
REMARK  16 active torsions:
REMARK  status: ('A' for Active; 'I' for Inactive)
REMARK    1  A    between atoms: CBC_6  and  CAS_7 
REMARK    2  A    between atoms: CAS_7  and  CBG_8 
REMARK    3  A    between atoms: CBG_8  and  NAW_9 
REMARK    4  A    between atoms: CBG_8  and  P1_21 
REMARK       I    between atoms: NAW_9  and  CBB_10 
REMARK    5  A    between atoms: CBB_10  and  CBF_12 
REMARK    6  A    between atoms: CBF_12  and  CAR_13 
REMARK    7  A    between atoms: CBF_12  and  NAU_17 
REMARK    8  A    between atoms: CAR_13  and  CAZ_14 
REMARK       I    between atoms: NAU_17  and  CAX_18 
REMARK    9  A    between atoms: CAX_18  and  CAA_19 
REMARK   10  A    between atoms: P1_21  and  CAT_24 
REMARK   11  A    between atoms: CAT_24  and  CBD_25 
REMARK   12  A    between atoms: CBD_25  and  CAB_26 
REMARK   13  A    between atoms: CBD_25  and  CBA_27 
REMARK       I    between atoms: CBA_27  and  N_29 
REMARK   14  A    between atoms: N_29  and  CA_30 
REMARK   15  A    between atoms: CA_30  and  CB_31 
REMARK   16  A    between atoms: CA_30  and  C_32 
REMARK       I    between atoms: C_32  and  NAD_34 
ROOT
ATOM      1  CBG RX4 d          26.568   2.354  46.993  0.00  0.00     0.091 C 
ATOM      2  H8  RX4 d          27.578   1.918  46.995  0.00  0.00     0.089 H 
ENDROOT
BRANCH   1   3
ATOM      3  CAS RX4 d          26.086   2.495  48.487  0.00  0.00    -0.013 C 
ATOM      4  H6  RX4 d          25.224   1.838  48.675  0.00  0.00     0.044 H 
ATOM      5  H7  RX4 d          26.901   2.238  49.179  0.00  0.00     0.044 H 
BRANCH   3   6
ATOM      6  CBC RX4 d          25.680   3.981  48.658  0.00  0.00    -0.056 A 
ATOM      7  CAP RX4 d          24.432   4.351  48.096  0.00  0.00    -0.077 A 
ATOM      8  CAN RX4 d          23.942   5.650  48.119  0.00  0.00    -0.082 A 
ATOM      9  H1  RX4 d          23.831   3.583  47.624  0.00  0.00     0.084 H 
ATOM     10  CAM RX4 d          24.810   6.589  48.722  0.00  0.00    -0.083 A 
ATOM     11  H2  RX4 d          22.976   5.921  47.709  0.00  0.00     0.083 H 
ATOM     12  CAO RX4 d          26.074   6.257  49.262  0.00  0.00    -0.082 A 
ATOM     13  H3  RX4 d          24.488   7.623  48.772  0.00  0.00     0.083 H 
ATOM     14  CAQ RX4 d          26.527   4.927  49.230  0.00  0.00    -0.077 A 
ATOM     15  H4  RX4 d          26.694   7.029  49.703  0.00  0.00     0.083 H 
ATOM     16  H5  RX4 d          27.495   4.650  49.632  0.00  0.00     0.084 H 
ENDBRANCH   3   6
ENDBRANCH   1   3
BRANCH   1  17
ATOM     17  NAW RX4 d          26.592   3.654  46.328  0.00  0.00    -0.345 N 
ATOM     18  CBB RX4 d          27.627   3.921  45.527  0.00  0.00     0.241 C 
ATOM     19  OAI RX4 d          28.518   3.085  45.289  0.00  0.00    -0.271 OA
ATOM     20  H9  RX4 d          25.860   4.320  46.468  0.00  0.00     0.163 HD
BRANCH  18  21
ATOM     21  CBF RX4 d          27.853   5.361  45.039  0.00  0.00     0.098 C 
ATOM     22  H10 RX4 d          28.841   5.444  44.563  0.00  0.00     0.088 H 
BRANCH  21  23
ATOM     23  CAR RX4 d          27.794   6.346  46.163  0.00  0.00     0.043 C 
ATOM     24  H11 RX4 d          27.160   5.961  46.975  0.00  0.00     0.052 H 
ATOM     25  H12 RX4 d          27.393   7.307  45.808  0.00  0.00     0.052 H 
BRANCH  23  26
ATOM     26  CAZ RX4 d          29.250   6.522  46.657  0.00  0.00     0.175 C 
ATOM     27  OAK RX4 d          29.586   6.060  47.784  0.00  0.00    -0.648 OA
ATOM     28  OAG RX4 d          30.021   7.060  45.867  0.00  0.00    -0.648 OA
ENDBRANCH  23  26
ENDBRANCH  21  23
BRANCH  21  29
ATOM     29  NAU RX4 d          26.777   5.577  44.009  0.00  0.00    -0.348 N 
ATOM     30  CAX RX4 d          26.939   5.271  42.709  0.00  0.00     0.214 C 
ATOM     31  OAE RX4 d          28.007   4.826  42.224  0.00  0.00    -0.274 OA
ATOM     32  H13 RX4 d          25.904   5.964  44.303  0.00  0.00     0.163 HD
BRANCH  30  33
ATOM     33  CAA RX4 d          25.699   5.513  41.800  0.00  0.00    -0.003 C 
ATOM     34  H14 RX4 d          25.656   6.574  41.512  0.00  0.00     0.040 H 
ATOM     35  H15 RX4 d          24.785   5.245  42.348  0.00  0.00     0.040 H 
ATOM     36  H16 RX4 d          25.780   4.891  40.895  0.00  0.00     0.040 H 
ENDBRANCH  30  33
ENDBRANCH  21  29
ENDBRANCH  18  21
ENDBRANCH   1  17
BRANCH   1  37
ATOM     37  P1  RX4 d          25.473   1.324  45.992  0.00  0.00     0.130 P 
ATOM     38  O4  RX4 d          25.333   1.893  44.590  0.00  0.00    -0.666 OA
ATOM     39  O3  RX4 d          24.034   1.335  46.458  0.00  0.00    -0.666 OA
BRANCH  37  40
ATOM     40  CAT RX4 d          26.184  -0.314  45.946  0.00  0.00     0.020 C 
ATOM     41  H17 RX4 d          25.452  -1.007  46.385  0.00  0.00     0.050 H 
ATOM     42  H18 RX4 d          27.092  -0.300  46.567  0.00  0.00     0.050 H 
BRANCH  40  43
ATOM     43  CBD RX4 d          26.573  -0.863  44.569  0.00  0.00     0.029 C 
ATOM     44  H19 RX4 d          25.695  -0.888  43.906  0.00  0.00     0.054 H 
BRANCH  43  45
ATOM     45  CAB RX4 d          27.786  -0.059  43.882  0.00  0.00    -0.064 C 
ATOM     46  H20 RX4 d          28.624  -0.748  43.697  0.00  0.00     0.028 H 
ATOM     47  H21 RX4 d          28.116   0.748  44.553  0.00  0.00     0.028 H 
ATOM     48  H22 RX4 d          27.448   0.371  42.928  0.00  0.00     0.028 H 
ENDBRANCH  43  45
BRANCH  43  49
ATOM     49  CBA RX4 d          27.172  -2.300  44.823  0.00  0.00     0.222 C 
ATOM     50  OAH RX4 d          27.814  -2.536  45.859  0.00  0.00    -0.273 OA
ATOM     51  N   RX4 d          27.039  -3.193  43.851  0.00  0.00    -0.348 N 
ATOM     52  H23 RX4 d          26.537  -2.969  43.016  0.00  0.00     0.163 HD
BRANCH  51  53
ATOM     53  CA  RX4 d          27.662  -4.556  44.037  0.00  0.00     0.086 C 
ATOM     54  H24 RX4 d          27.826  -4.774  45.103  0.00  0.00     0.086 H 
BRANCH  53  55
ATOM     55  CB  RX4 d          26.759  -5.628  43.410  0.00  0.00    -0.049 C 
ATOM     56  H25 RX4 d          27.256  -6.056  42.527  0.00  0.00     0.030 H 
ATOM     57  H26 RX4 d          25.804  -5.172  43.109  0.00  0.00     0.030 H 
ATOM     58  H27 RX4 d          26.570  -6.424  44.146  0.00  0.00     0.030 H 
ENDBRANCH  53  55
BRANCH  53  59
ATOM     59  C   RX4 d          29.021  -4.494  43.259  0.00  0.00     0.237 C 
ATOM     60  O   RX4 d          29.199  -5.258  42.251  0.00  0.00    -0.271 OA
ATOM     61  NAD RX4 d          29.925  -3.618  43.659  0.00  0.00    -0.368 N 
ATOM     62  H28 RX4 d          30.802  -3.552  43.183  0.00  0.00     0.159 HD
ATOM     63  H29 RX4 d          29.732  -3.019  44.437  0.00  0.00     0.159 HD
ENDBRANCH  53  59
ENDBRANCH  51  53
ENDBRANCH  43  49
ENDBRANCH  40  43
ENDBRANCH  37  40
ENDBRANCH   1  37
TORSDOF 16
ENDMDL
MODEL 2
REMARK VINA RESULT:      -6.4      1.855      2.820
REMARK  16 active torsions:
REMARK  status: ('A' for Active; 'I' for Inactive)
REMARK    1  A    between atoms: CBC_6  and  CAS_7 
REMARK    2  A    between atoms: CAS_7  and  CBG_8 
REMARK    3  A    between atoms: CBG_8  and  NAW_9 
REMARK    4  A    between atoms: CBG_8  and  P1_21 
REMARK       I    between atoms: NAW_9  and  CBB_10 
REMARK    5  A    between atoms: CBB_10  and  CBF_12 
REMARK    6  A    between atoms: CBF_12  and  CAR_13 
REMARK    7  A    between atoms: CBF_12  and  NAU_17 
REMARK    8  A    between atoms: CAR_13  and  CAZ_14 
REMARK       I    between atoms: NAU_17  and  CAX_18 
REMARK    9  A    between atoms: CAX_18  and  CAA_19 
REMARK   10  A    between atoms: P1_21  and  CAT_24 
REMARK   11  A    between atoms: CAT_24  and  CBD_25 
REMARK   12  A    between atoms: CBD_25  and  CAB_26 
REMARK   13  A    between atoms: CBD_25  and  CBA_27 
REMARK       I    between atoms: CBA_27  and  N_29 
REMARK   14  A    between atoms: N_29  and  CA_30 
REMARK   15  A    between atoms: CA_30  and  CB_31 
REMARK   16  A    between atoms: CA_30  and  C_32 
REMARK       I    between atoms: C_32  and  NAD_34 
ROOT
ATOM      1  CBG RX4 d          26.638   3.873  46.776  0.00  0.00     0.091 C 
ATOM      2  H8  RX4 d          27.678   3.603  47.012  0.00  0.00     0.089 H 
ENDROOT
BRANCH   1   3
ATOM      3  CAS RX4 d          26.150   4.934  47.835  0.00  0.00    -0.013 C 
ATOM      4  H6  RX4 d          25.961   4.449  48.805  0.00  0.00     0.044 H 
ATOM      5  H7  RX4 d          26.903   5.725  47.961  0.00  0.00     0.044 H 
BRANCH   3   6
ATOM      6  CBC RX4 d          24.836   5.525  47.262  0.00  0.00    -0.056 A 
ATOM      7  CAP RX4 d          24.974   6.340  46.110  0.00  0.00    -0.077 A 
ATOM      8  CAN RX4 d          23.906   6.983  45.500  0.00  0.00    -0.082 A 
ATOM      9  H1  RX4 d          25.963   6.466  45.684  0.00  0.00     0.084 H 
ATOM     10  CAM RX4 d          22.664   6.789  46.146  0.00  0.00    -0.083 A 
ATOM     11  H2  RX4 d          24.015   7.584  44.604  0.00  0.00     0.083 H 
ATOM     12  CAO RX4 d          22.500   6.009  47.315  0.00  0.00    -0.082 A 
ATOM     13  H3  RX4 d          21.787   7.265  45.722  0.00  0.00     0.083 H 
ATOM     14  CAQ RX4 d          23.605   5.364  47.893  0.00  0.00    -0.077 A 
ATOM     15  H4  RX4 d          21.518   5.909  47.765  0.00  0.00     0.083 H 
ATOM     16  H5  RX4 d          23.504   4.766  48.792  0.00  0.00     0.084 H 
ENDBRANCH   3   6
ENDBRANCH   1   3
BRANCH   1  17
ATOM     17  NAW RX4 d          26.562   4.414  45.423  0.00  0.00    -0.345 N 
ATOM     18  CBB RX4 d          27.654   4.325  44.658  0.00  0.00     0.241 C 
ATOM     19  OAI RX4 d          28.689   3.750  45.040  0.00  0.00    -0.271 OA
ATOM     20  H9  RX4 d          25.723   4.836  45.081  0.00  0.00     0.163 HD
BRANCH  18  21
ATOM     21  CBF RX4 d          27.725   5.128  43.349  0.00  0.00     0.098 C 
ATOM     22  H10 RX4 d          28.730   5.561  43.231  0.00  0.00     0.088 H 
BRANCH  21  23
ATOM     23  CAR RX4 d          26.731   6.245  43.323  0.00  0.00     0.043 C 
ATOM     24  H11 RX4 d          27.037   7.043  44.016  0.00  0.00     0.052 H 
ATOM     25  H12 RX4 d          25.734   5.875  43.606  0.00  0.00     0.052 H 
BRANCH  23  26
ATOM     26  CAZ RX4 d          26.715   6.773  41.869  0.00  0.00     0.175 C 
ATOM     27  OAK RX4 d          27.762   6.694  41.166  0.00  0.00    -0.648 OA
ATOM     28  OAG RX4 d          25.633   7.190  41.464  0.00  0.00    -0.648 OA
ENDBRANCH  23  26
ENDBRANCH  21  23
BRANCH  21  29
ATOM     29  NAU RX4 d          27.489   4.103  42.272  0.00  0.00    -0.348 N 
ATOM     30  CAX RX4 d          26.348   3.397  42.174  0.00  0.00     0.214 C 
ATOM     31  OAE RX4 d          25.397   3.488  42.987  0.00  0.00    -0.274 OA
ATOM     32  H13 RX4 d          28.212   3.940  41.601  0.00  0.00     0.163 HD
BRANCH  30  33
ATOM     33  CAA RX4 d          26.262   2.421  40.964  0.00  0.00    -0.003 C 
ATOM     34  H14 RX4 d          27.081   2.635  40.261  0.00  0.00     0.040 H 
ATOM     35  H15 RX4 d          25.297   2.553  40.454  0.00  0.00     0.040 H 
ATOM     36  H16 RX4 d          26.348   1.384  41.323  0.00  0.00     0.040 H 
ENDBRANCH  30  33
ENDBRANCH  21  29
ENDBRANCH  18  21
ENDBRANCH   1  17
BRANCH   1  37
ATOM     37  P1  RX4 d          25.621   2.380  46.753  0.00  0.00     0.130 P 
ATOM     38  O4  RX4 d          24.464   2.533  45.780  0.00  0.00    -0.666 OA
ATOM     39  O3  RX4 d          24.884   2.126  48.048  0.00  0.00    -0.666 OA
BRANCH  37  40
ATOM     40  CAT RX4 d          26.683   1.026  46.271  0.00  0.00     0.020 C 
ATOM     41  H17 RX4 d          26.448   0.171  46.923  0.00  0.00     0.050 H 
ATOM     42  H18 RX4 d          27.723   1.342  46.442  0.00  0.00     0.050 H 
BRANCH  40  43
ATOM     43  CBD RX4 d          26.577   0.543  44.821  0.00  0.00     0.029 C 
ATOM     44  H19 RX4 d          25.718   1.015  44.322  0.00  0.00     0.054 H 
BRANCH  43  45
ATOM     45  CAB RX4 d          27.927   0.773  43.974  0.00  0.00    -0.064 C 
ATOM     46  H20 RX4 d          28.730   1.104  44.648  0.00  0.00     0.028 H 
ATOM     47  H21 RX4 d          27.751   1.542  43.207  0.00  0.00     0.028 H 
ATOM     48  H22 RX4 d          28.220  -0.169  43.488  0.00  0.00     0.028 H 
ENDBRANCH  43  45
BRANCH  43  49
ATOM     49  CBA RX4 d          26.442  -1.026  44.889  0.00  0.00     0.222 C 
ATOM     50  OAH RX4 d          25.792  -1.559  45.802  0.00  0.00    -0.273 OA
ATOM     51  N   RX4 d          27.121  -1.733  43.995  0.00  0.00    -0.348 N 
ATOM     52  H23 RX4 d          27.658  -1.278  43.284  0.00  0.00     0.163 HD
BRANCH  51  53
ATOM     53  CA  RX4 d          27.066  -3.240  44.078  0.00  0.00     0.086 C 
ATOM     54  H24 RX4 d          26.311  -3.569  44.807  0.00  0.00     0.086 H 
BRANCH  53  55
ATOM     55  CB  RX4 d          26.753  -3.823  42.692  0.00  0.00    -0.049 C 
ATOM     56  H25 RX4 d          27.590  -4.457  42.363  0.00  0.00     0.030 H 
ATOM     57  H26 RX4 d          26.610  -3.003  41.973  0.00  0.00     0.030 H 
ATOM     58  H27 RX4 d          25.836  -4.428  42.747  0.00  0.00     0.030 H 
ENDBRANCH  53  55
BRANCH  53  59
ATOM     59  C   RX4 d          28.504  -3.679  44.519  0.00  0.00     0.237 C 
ATOM     60  O   RX4 d          28.643  -4.713  45.255  0.00  0.00    -0.271 OA
ATOM     61  NAD RX4 d          29.530  -2.974  44.077  0.00  0.00    -0.368 N 
ATOM     62  H28 RX4 d          30.461  -3.228  44.340  0.00  0.00     0.159 HD
ATOM     63  H29 RX4 d          29.376  -2.187  43.480  0.00  0.00     0.159 HD
ENDBRANCH  53  59
ENDBRANCH  51  53
ENDBRANCH  43  49
ENDBRANCH  40  43
ENDBRANCH  37  40
ENDBRANCH   1  37
TORSDOF 16
ENDMDL
MODEL 3
REMARK VINA RESULT:      -6.2      2.319      3.367
REMARK  16 active torsions:
REMARK  status: ('A' for Active; 'I' for Inactive)
REMARK    1  A    between atoms: CBC_6  and  CAS_7 
REMARK    2  A    between atoms: CAS_7  and  CBG_8 
REMARK    3  A    between atoms: CBG_8  and  NAW_9 
REMARK    4  A    between atoms: CBG_8  and  P1_21 
REMARK       I    between atoms: NAW_9  and  CBB_10 
REMARK    5  A    between atoms: CBB_10  and  CBF_12 
REMARK    6  A    between atoms: CBF_12  and  CAR_13 
REMARK    7  A    between atoms: CBF_12  and  NAU_17 
REMARK    8  A    between atoms: CAR_13  and  CAZ_14 
REMARK       I    between atoms: NAU_17  and  CAX_18 
REMARK    9  A    between atoms: CAX_18  and  CAA_19 
REMARK   10  A    between atoms: P1_21  and  CAT_24 
REMARK   11  A    between atoms: CAT_24  and  CBD_25 
REMARK   12  A    between atoms: CBD_25  and  CAB_26 
REMARK   13  A    between atoms: CBD_25  and  CBA_27 
REMARK       I    between atoms: CBA_27  and  N_29 
REMARK   14  A    between atoms: N_29  and  CA_30 
REMARK   15  A    between atoms: CA_30  and  CB_31 
REMARK   16  A    between atoms: CA_30  and  C_32 
REMARK       I    between atoms: C_32  and  NAD_34 
ROOT
ATOM      1  CBG RX4 d          27.502   1.563  44.949  0.00  0.00     0.091 C 
ATOM      2  H8  RX4 d          28.259   1.480  44.154  0.00  0.00     0.089 H 
ENDROOT
BRANCH   1   3
ATOM      3  CAS RX4 d          28.196   2.161  46.231  0.00  0.00    -0.013 C 
ATOM      4  H6  RX4 d          28.707   1.367  46.796  0.00  0.00     0.044 H 
ATOM      5  H7  RX4 d          28.923   2.936  45.949  0.00  0.00     0.044 H 
BRANCH   3   6
ATOM      6  CBC RX4 d          27.053   2.775  47.079  0.00  0.00    -0.056 A 
ATOM      7  CAP RX4 d          26.986   4.191  47.097  0.00  0.00    -0.077 A 
ATOM      8  CAN RX4 d          26.054   4.900  47.842  0.00  0.00    -0.082 A 
ATOM      9  H1  RX4 d          27.698   4.748  46.499  0.00  0.00     0.084 H 
ATOM     10  CAM RX4 d          25.192   4.092  48.617  0.00  0.00    -0.083 A 
ATOM     11  H2  RX4 d          25.993   5.983  47.831  0.00  0.00     0.083 H 
ATOM     12  CAO RX4 d          25.254   2.679  48.646  0.00  0.00    -0.082 A 
ATOM     13  H3  RX4 d          24.440   4.583  49.224  0.00  0.00     0.083 H 
ATOM     14  CAQ RX4 d          26.205   1.999  47.866  0.00  0.00    -0.077 A 
ATOM     15  H4  RX4 d          24.567   2.120  49.271  0.00  0.00     0.083 H 
ATOM     16  H5  RX4 d          26.275   0.917  47.877  0.00  0.00     0.084 H 
ENDBRANCH   3   6
ENDBRANCH   1   3
BRANCH   1  17
ATOM     17  NAW RX4 d          26.407   2.418  44.502  0.00  0.00    -0.345 N 
ATOM     18  CBB RX4 d          26.541   3.031  43.322  0.00  0.00     0.241 C 
ATOM     19  OAI RX4 d          27.525   2.845  42.584  0.00  0.00    -0.271 OA
ATOM     20  H9  RX4 d          25.586   2.541  45.059  0.00  0.00     0.163 HD
BRANCH  18  21
ATOM     21  CBF RX4 d          25.565   4.157  42.941  0.00  0.00     0.098 C 
ATOM     22  H10 RX4 d          24.536   3.857  43.186  0.00  0.00     0.088 H 
BRANCH  21  23
ATOM     23  CAR RX4 d          25.623   4.475  41.481  0.00  0.00     0.043 C 
ATOM     24  H11 RX4 d          24.610   4.476  41.052  0.00  0.00     0.052 H 
ATOM     25  H12 RX4 d          26.245   3.736  40.954  0.00  0.00     0.052 H 
BRANCH  23  26
ATOM     26  CAZ RX4 d          26.254   5.883  41.373  0.00  0.00     0.175 C 
ATOM     27  OAK RX4 d          27.510   6.010  41.439  0.00  0.00    -0.648 OA
ATOM     28  OAG RX4 d          25.471   6.805  41.160  0.00  0.00    -0.648 OA
ENDBRANCH  23  26
ENDBRANCH  21  23
BRANCH  21  29
ATOM     29  NAU RX4 d          25.975   5.313  43.814  0.00  0.00    -0.348 N 
ATOM     30  CAX RX4 d          25.086   6.116  44.426  0.00  0.00     0.214 C 
ATOM     31  OAE RX4 d          23.843   6.012  44.295  0.00  0.00    -0.274 OA
ATOM     32  H13 RX4 d          26.950   5.492  43.943  0.00  0.00     0.163 HD
BRANCH  30  33
ATOM     33  CAA RX4 d          25.695   7.227  45.331  0.00  0.00    -0.003 C 
ATOM     34  H14 RX4 d          26.542   6.815  45.899  0.00  0.00     0.040 H 
ATOM     35  H15 RX4 d          24.928   7.592  46.030  0.00  0.00     0.040 H 
ATOM     36  H16 RX4 d          26.045   8.061  44.704  0.00  0.00     0.040 H 
ENDBRANCH  30  33
ENDBRANCH  21  29
ENDBRANCH  18  21
ENDBRANCH   1  17
BRANCH   1  37
ATOM     37  P1  RX4 d          26.757  -0.057  45.239  0.00  0.00     0.130 P 
ATOM     38  O4  RX4 d          25.242   0.034  45.200  0.00  0.00    -0.666 OA
ATOM     39  O3  RX4 d          26.984  -0.589  46.636  0.00  0.00    -0.666 OA
BRANCH  37  40
ATOM     40  CAT RX4 d          27.363  -1.153  43.964  0.00  0.00     0.020 C 
ATOM     41  H17 RX4 d          28.461  -1.141  44.009  0.00  0.00     0.050 H 
ATOM     42  H18 RX4 d          27.032  -0.750  42.995  0.00  0.00     0.050 H 
BRANCH  40  43
ATOM     43  CBD RX4 d          26.913  -2.616  44.035  0.00  0.00     0.029 C 
ATOM     44  H19 RX4 d          25.968  -2.698  44.593  0.00  0.00     0.054 H 
BRANCH  43  45
ATOM     45  CAB RX4 d          26.787  -3.315  42.591  0.00  0.00    -0.064 C 
ATOM     46  H20 RX4 d          27.792  -3.536  42.203  0.00  0.00     0.028 H 
ATOM     47  H21 RX4 d          26.268  -2.636  41.899  0.00  0.00     0.028 H 
ATOM     48  H22 RX4 d          26.216  -4.251  42.684  0.00  0.00     0.028 H 
ENDBRANCH  43  45
BRANCH  43  49
ATOM     49  CBA RX4 d          28.089  -3.403  44.731  0.00  0.00     0.222 C 
ATOM     50  OAH RX4 d          28.274  -3.299  45.954  0.00  0.00    -0.273 OA
ATOM     51  N   RX4 d          28.907  -4.089  43.945  0.00  0.00    -0.348 N 
ATOM     52  H23 RX4 d          28.750  -4.136  42.958  0.00  0.00     0.163 HD
BRANCH  51  53
ATOM     53  CA  RX4 d          30.084  -4.797  44.574  0.00  0.00     0.086 C 
ATOM     54  H24 RX4 d          30.510  -4.202  45.396  0.00  0.00     0.086 H 
BRANCH  53  55
ATOM     55  CB  RX4 d          29.643  -6.174  45.091  0.00  0.00    -0.049 C 
ATOM     56  H25 RX4 d          28.601  -6.363  44.791  0.00  0.00     0.030 H 
ATOM     57  H26 RX4 d          29.718  -6.195  46.188  0.00  0.00     0.030 H 
ATOM     58  H27 RX4 d          30.293  -6.952  44.663  0.00  0.00     0.030 H 
ENDBRANCH  53  55
BRANCH  53  59
ATOM     59  C   RX4 d          31.121  -4.980  43.414  0.00  0.00     0.237 C 
ATOM     60  O   RX4 d          32.294  -5.405  43.685  0.00  0.00    -0.271 OA
ATOM     61  NAD RX4 d          30.724  -4.719  42.181  0.00  0.00    -0.368 N 
ATOM     62  H28 RX4 d          31.361  -4.825  41.417  0.00  0.00     0.159 HD
ATOM     63  H29 RX4 d          29.786  -4.414  42.011  0.00  0.00     0.159 HD
ENDBRANCH  53  59
ENDBRANCH  51  53
ENDBRANCH  43  49
ENDBRANCH  40  43
ENDBRANCH  37  40
ENDBRANCH   1  37
TORSDOF 16
ENDMDL
MODEL 4
REMARK VINA RESULT:      -6.2      1.823      2.491
REMARK  16 active torsions:
REMARK  status: ('A' for Active; 'I' for Inactive)
REMARK    1  A    between atoms: CBC_6  and  CAS_7 
REMARK    2  A    between atoms: CAS_7  and  CBG_8 
REMARK    3  A    between atoms: CBG_8  and  NAW_9 
REMARK    4  A    between atoms: CBG_8  and  P1_21 
REMARK       I    between atoms: NAW_9  and  CBB_10 
REMARK    5  A    between atoms: CBB_10  and  CBF_12 
REMARK    6  A    between atoms: CBF_12  and  CAR_13 
REMARK    7  A    between atoms: CBF_12  and  NAU_17 
REMARK    8  A    between atoms: CAR_13  and  CAZ_14 
REMARK       I    between atoms: NAU_17  and  CAX_18 
REMARK    9  A    between atoms: CAX_18  and  CAA_19 
REMARK   10  A    between atoms: P1_21  and  CAT_24 
REMARK   11  A    between atoms: CAT_24  and  CBD_25 
REMARK   12  A    between atoms: CBD_25  and  CAB_26 
REMARK   13  A    between atoms: CBD_25  and  CBA_27 
REMARK       I    between atoms: CBA_27  and  N_29 
REMARK   14  A    between atoms: N_29  and  CA_30 
REMARK   15  A    between atoms: CA_30  and  CB_31 
REMARK   16  A    between atoms: CA_30  and  C_32 
REMARK       I    between atoms: C_32  and  NAD_34 
ROOT
ATOM      1  CBG RX4 d          26.478   3.385  46.857  0.00  0.00     0.091 C 
ATOM      2  H8  RX4 d          27.543   3.251  46.618  0.00  0.00     0.089 H 
ENDROOT
BRANCH   1   3
ATOM      3  CAS RX4 d          26.353   3.700  48.396  0.00  0.00    -0.013 C 
ATOM      4  H6  RX4 d          25.942   2.833  48.934  0.00  0.00     0.044 H 
ATOM      5  H7  RX4 d          27.335   3.960  48.816  0.00  0.00     0.044 H 
BRANCH   3   6
ATOM      6  CBC RX4 d          25.385   4.907  48.500  0.00  0.00    -0.056 A 
ATOM      7  CAP RX4 d          24.006   4.589  48.597  0.00  0.00    -0.077 A 
ATOM      8  CAN RX4 d          23.006   5.549  48.649  0.00  0.00    -0.082 A 
ATOM      9  H1  RX4 d          23.719   3.544  48.632  0.00  0.00     0.084 H 
ATOM     10  CAM RX4 d          23.471   6.881  48.561  0.00  0.00    -0.083 A 
ATOM     11  H2  RX4 d          21.955   5.299  48.749  0.00  0.00     0.083 H 
ATOM     12  CAO RX4 d          24.836   7.229  48.431  0.00  0.00    -0.082 A 
ATOM     13  H3  RX4 d          22.741   7.681  48.595  0.00  0.00     0.083 H 
ATOM     14  CAQ RX4 d          25.819   6.226  48.394  0.00  0.00    -0.077 A 
ATOM     15  H4  RX4 d          25.124   8.272  48.359  0.00  0.00     0.083 H 
ATOM     16  H5  RX4 d          26.871   6.469  48.289  0.00  0.00     0.084 H 
ENDBRANCH   3   6
ENDBRANCH   1   3
BRANCH   1  17
ATOM     17  NAW RX4 d          25.924   4.473  46.056  0.00  0.00    -0.345 N 
ATOM     18  CBB RX4 d          26.660   4.928  45.037  0.00  0.00     0.241 C 
ATOM     19  OAI RX4 d          27.750   4.418  44.724  0.00  0.00    -0.271 OA
ATOM     20  H9  RX4 d          25.027   4.862  46.262  0.00  0.00     0.163 HD
BRANCH  18  21
ATOM     21  CBF RX4 d          26.265   6.246  44.351  0.00  0.00     0.098 C 
ATOM     22  H10 RX4 d          26.053   7.013  45.111  0.00  0.00     0.088 H 
BRANCH  21  23
ATOM     23  CAR RX4 d          25.048   6.088  43.497  0.00  0.00     0.043 C 
ATOM     24  H11 RX4 d          25.064   5.113  42.987  0.00  0.00     0.052 H 
ATOM     25  H12 RX4 d          25.001   6.893  42.748  0.00  0.00     0.052 H 
BRANCH  23  26
ATOM     26  CAZ RX4 d          23.837   6.175  44.455  0.00  0.00     0.175 C 
ATOM     27  OAK RX4 d          23.080   5.172  44.595  0.00  0.00    -0.648 OA
ATOM     28  OAG RX4 d          23.723   7.225  45.080  0.00  0.00    -0.648 OA
ENDBRANCH  23  26
ENDBRANCH  21  23
BRANCH  21  29
ATOM     29  NAU RX4 d          27.490   6.637  43.568  0.00  0.00    -0.348 N 
ATOM     30  CAX RX4 d          27.682   6.277  42.286  0.00  0.00     0.214 C 
ATOM     31  OAE RX4 d          26.892   5.549  41.638  0.00  0.00    -0.274 OA
ATOM     32  H13 RX4 d          28.191   7.188  44.021  0.00  0.00     0.163 HD
BRANCH  30  33
ATOM     33  CAA RX4 d          28.982   6.819  41.622  0.00  0.00    -0.003 C 
ATOM     34  H14 RX4 d          29.369   6.074  40.911  0.00  0.00     0.040 H 
ATOM     35  H15 RX4 d          29.737   7.012  42.398  0.00  0.00     0.040 H 
ATOM     36  H16 RX4 d          28.759   7.755  41.088  0.00  0.00     0.040 H 
ENDBRANCH  30  33
ENDBRANCH  21  29
ENDBRANCH  18  21
ENDBRANCH   1  17
BRANCH   1  37
ATOM     37  P1  RX4 d          25.561   1.910  46.362  0.00  0.00     0.130 P 
ATOM     38  O4  RX4 d          24.648   2.215  45.186  0.00  0.00    -0.666 OA
ATOM     39  O3  RX4 d          24.561   1.440  47.395  0.00  0.00    -0.666 OA
BRANCH  37  40
ATOM     40  CAT RX4 d          26.763   0.661  45.928  0.00  0.00     0.020 C 
ATOM     41  H17 RX4 d          26.598  -0.202  46.589  0.00  0.00     0.050 H 
ATOM     42  H18 RX4 d          27.762   1.082  46.117  0.00  0.00     0.050 H 
BRANCH  40  43
ATOM     43  CBD RX4 d          26.741   0.149  44.484  0.00  0.00     0.029 C 
ATOM     44  H19 RX4 d          25.899   0.594  43.933  0.00  0.00     0.054 H 
BRANCH  43  45
ATOM     45  CAB RX4 d          28.127   0.391  43.702  0.00  0.00    -0.064 C 
ATOM     46  H20 RX4 d          28.915   0.648  44.424  0.00  0.00     0.028 H 
ATOM     47  H21 RX4 d          28.003   1.215  42.984  0.00  0.00     0.028 H 
ATOM     48  H22 RX4 d          28.409  -0.526  43.163  0.00  0.00     0.028 H 
ENDBRANCH  43  45
BRANCH  43  49
ATOM     49  CBA RX4 d          26.633  -1.422  44.577  0.00  0.00     0.222 C 
ATOM     50  OAH RX4 d          26.183  -1.958  45.601  0.00  0.00    -0.273 OA
ATOM     51  N   RX4 d          27.125  -2.124  43.566  0.00  0.00    -0.348 N 
ATOM     52  H23 RX4 d          27.506  -1.666  42.762  0.00  0.00     0.163 HD
BRANCH  51  53
ATOM     53  CA  RX4 d          27.099  -3.631  43.656  0.00  0.00     0.086 C 
ATOM     54  H24 RX4 d          26.286  -3.973  44.315  0.00  0.00     0.086 H 
BRANCH  53  55
ATOM     55  CB  RX4 d          26.932  -4.232  42.253  0.00  0.00    -0.049 C 
ATOM     56  H25 RX4 d          27.275  -3.506  41.500  0.00  0.00     0.030 H 
ATOM     57  H26 RX4 d          25.871  -4.467  42.079  0.00  0.00     0.030 H 
ATOM     58  H27 RX4 d          27.529  -5.152  42.175  0.00  0.00     0.030 H 
ENDBRANCH  53  55
BRANCH  53  59
ATOM     59  C   RX4 d          28.499  -4.031  44.235  0.00  0.00     0.237 C 
ATOM     60  O   RX4 d          28.558  -4.687  45.329  0.00  0.00    -0.271 OA
ATOM     61  NAD RX4 d          29.574  -3.703  43.540  0.00  0.00    -0.368 N 
ATOM     62  H28 RX4 d          30.482  -3.944  43.882  0.00  0.00     0.159 HD
ATOM     63  H29 RX4 d          29.479  -3.213  42.674  0.00  0.00     0.159 HD
ENDBRANCH  53  59
ENDBRANCH  51  53
ENDBRANCH  43  49
ENDBRANCH  40  43
ENDBRANCH  37  40
ENDBRANCH   1  37
TORSDOF 16
ENDMDL
MODEL 5
REMARK VINA RESULT:      -6.2      1.577      2.237
REMARK  16 active torsions:
REMARK  status: ('A' for Active; 'I' for Inactive)
REMARK    1  A    between atoms: CBC_6  and  CAS_7 
REMARK    2  A    between atoms: CAS_7  and  CBG_8 
REMARK    3  A    between atoms: CBG_8  and  NAW_9 
REMARK    4  A    between atoms: CBG_8  and  P1_21 
REMARK       I    between atoms: NAW_9  and  CBB_10 
REMARK    5  A    between atoms: CBB_10  and  CBF_12 
REMARK    6  A    between atoms: CBF_12  and  CAR_13 
REMARK    7  A    between atoms: CBF_12  and  NAU_17 
REMARK    8  A    between atoms: CAR_13  and  CAZ_14 
REMARK       I    between atoms: NAU_17  and  CAX_18 
REMARK    9  A    between atoms: CAX_18  and  CAA_19 
REMARK   10  A    between atoms: P1_21  and  CAT_24 
REMARK   11  A    between atoms: CAT_24  and  CBD_25 
REMARK   12  A    between atoms: CBD_25  and  CAB_26 
REMARK   13  A    between atoms: CBD_25  and  CBA_27 
REMARK       I    between atoms: CBA_27  and  N_29 
REMARK   14  A    between atoms: N_29  and  CA_30 
REMARK   15  A    between atoms: CA_30  and  CB_31 
REMARK   16  A    between atoms: CA_30  and  C_32 
REMARK       I    between atoms: C_32  and  NAD_34 
ROOT
ATOM      1  CBG RX4 d          26.721   2.784  46.590  0.00  0.00     0.091 C 
ATOM      2  H8  RX4 d          27.722   2.441  46.289  0.00  0.00     0.089 H 
ENDROOT
BRANCH   1   3
ATOM      3  CAS RX4 d          26.782   3.219  48.104  0.00  0.00    -0.013 C 
ATOM      4  H6  RX4 d          26.385   2.421  48.749  0.00  0.00     0.044 H 
ATOM      5  H7  RX4 d          27.818   3.446  48.397  0.00  0.00     0.044 H 
BRANCH   3   6
ATOM      6  CBC RX4 d          25.900   4.489  48.212  0.00  0.00    -0.056 A 
ATOM      7  CAP RX4 d          26.579   5.728  48.098  0.00  0.00    -0.077 A 
ATOM      8  CAN RX4 d          25.946   6.957  48.219  0.00  0.00    -0.082 A 
ATOM      9  H1  RX4 d          27.646   5.714  47.908  0.00  0.00     0.084 H 
ATOM     10  CAM RX4 d          24.564   6.875  48.503  0.00  0.00    -0.083 A 
ATOM     11  H2  RX4 d          26.468   7.901  48.106  0.00  0.00     0.083 H 
ATOM     12  CAO RX4 d          23.865   5.655  48.654  0.00  0.00    -0.082 A 
ATOM     13  H3  RX4 d          24.009   7.800  48.611  0.00  0.00     0.083 H 
ATOM     14  CAQ RX4 d          24.540   4.432  48.512  0.00  0.00    -0.077 A 
ATOM     15  H4  RX4 d          22.804   5.664  48.881  0.00  0.00     0.083 H 
ATOM     16  H5  RX4 d          24.026   3.485  48.630  0.00  0.00     0.084 H 
ENDBRANCH   3   6
ENDBRANCH   1   3
BRANCH   1  17
ATOM     17  NAW RX4 d          26.305   3.899  45.744  0.00  0.00    -0.345 N 
ATOM     18  CBB RX4 d          27.036   4.157  44.656  0.00  0.00     0.241 C 
ATOM     19  OAI RX4 d          28.002   3.449  44.320  0.00  0.00    -0.271 OA
ATOM     20  H9  RX4 d          25.502   4.449  45.971  0.00  0.00     0.163 HD
BRANCH  18  21
ATOM     21  CBF RX4 d          26.823   5.478  43.900  0.00  0.00     0.098 C 
ATOM     22  H10 RX4 d          26.531   5.270  42.860  0.00  0.00     0.088 H 
BRANCH  21  23
ATOM     23  CAR RX4 d          28.063   6.314  43.877  0.00  0.00     0.043 C 
ATOM     24  H11 RX4 d          28.935   5.710  44.165  0.00  0.00     0.052 H 
ATOM     25  H12 RX4 d          27.961   7.166  44.566  0.00  0.00     0.052 H 
BRANCH  23  26
ATOM     26  CAZ RX4 d          28.215   6.817  42.422  0.00  0.00     0.175 C 
ATOM     27  OAK RX4 d          29.340   7.229  42.018  0.00  0.00    -0.648 OA
ATOM     28  OAG RX4 d          27.214   6.722  41.716  0.00  0.00    -0.648 OA
ENDBRANCH  23  26
ENDBRANCH  21  23
BRANCH  21  29
ATOM     29  NAU RX4 d          25.679   6.139  44.622  0.00  0.00    -0.348 N 
ATOM     30  CAX RX4 d          24.391   5.941  44.284  0.00  0.00     0.214 C 
ATOM     31  OAE RX4 d          24.023   5.232  43.317  0.00  0.00    -0.274 OA
ATOM     32  H13 RX4 d          25.885   6.751  45.385  0.00  0.00     0.163 HD
BRANCH  30  33
ATOM     33  CAA RX4 d          23.342   6.665  45.178  0.00  0.00    -0.003 C 
ATOM     34  H14 RX4 d          23.186   6.088  46.101  0.00  0.00     0.040 H 
ATOM     35  H15 RX4 d          22.391   6.749  44.632  0.00  0.00     0.040 H 
ATOM     36  H16 RX4 d          23.709   7.671  45.432  0.00  0.00     0.040 H 
ENDBRANCH  30  33
ENDBRANCH  21  29
ENDBRANCH  18  21
ENDBRANCH   1  17
BRANCH   1  37
ATOM     37  P1  RX4 d          25.518   1.473  46.280  0.00  0.00     0.130 P 
ATOM     38  O4  RX4 d          24.681   1.791  45.054  0.00  0.00    -0.666 OA
ATOM     39  O3  RX4 d          24.450   1.363  47.345  0.00  0.00    -0.666 OA
BRANCH  37  40
ATOM     40  CAT RX4 d          26.437  -0.043  46.049  0.00  0.00     0.020 C 
ATOM     41  H17 RX4 d          25.928  -0.831  46.624  0.00  0.00     0.050 H 
ATOM     42  H18 RX4 d          27.446   0.115  46.458  0.00  0.00     0.050 H 
BRANCH  40  43
ATOM     43  CBD RX4 d          26.593  -0.546  44.611  0.00  0.00     0.029 C 
ATOM     44  H19 RX4 d          25.656  -0.405  44.052  0.00  0.00     0.054 H 
BRANCH  43  45
ATOM     45  CAB RX4 d          27.830   0.127  43.831  0.00  0.00    -0.064 C 
ATOM     46  H20 RX4 d          27.491   1.044  43.328  0.00  0.00     0.028 H 
ATOM     47  H21 RX4 d          28.220  -0.580  43.084  0.00  0.00     0.028 H 
ATOM     48  H22 RX4 d          28.626   0.375  44.550  0.00  0.00     0.028 H 
ENDBRANCH  43  45
BRANCH  43  49
ATOM     49  CBA RX4 d          27.002  -2.066  44.720  0.00  0.00     0.222 C 
ATOM     50  OAH RX4 d          27.458  -2.516  45.783  0.00  0.00    -0.273 OA
ATOM     51  N   RX4 d          26.925  -2.795  43.615  0.00  0.00    -0.348 N 
ATOM     52  H23 RX4 d          26.577  -2.400  42.764  0.00  0.00     0.163 HD
BRANCH  51  53
ATOM     53  CA  RX4 d          27.374  -4.236  43.671  0.00  0.00     0.086 C 
ATOM     54  H24 RX4 d          26.908  -4.762  44.517  0.00  0.00     0.086 H 
BRANCH  53  55
ATOM     55  CB  RX4 d          27.026  -4.939  42.352  0.00  0.00    -0.049 C 
ATOM     56  H25 RX4 d          26.331  -4.312  41.774  0.00  0.00     0.030 H 
ATOM     57  H26 RX4 d          26.551  -5.909  42.568  0.00  0.00     0.030 H 
ATOM     58  H27 RX4 d          27.944  -5.102  41.769  0.00  0.00     0.030 H 
ENDBRANCH  53  55
BRANCH  53  59
ATOM     59  C   RX4 d          28.931  -4.173  43.836  0.00  0.00     0.237 C 
ATOM     60  O   RX4 d          29.583  -5.253  44.036  0.00  0.00    -0.271 OA
ATOM     61  NAD RX4 d          29.519  -2.995  43.724  0.00  0.00    -0.368 N 
ATOM     62  H28 RX4 d          30.512  -2.920  43.824  0.00  0.00     0.159 HD
ATOM     63  H29 RX4 d          28.972  -2.178  43.540  0.00  0.00     0.159 HD
ENDBRANCH  53  59
ENDBRANCH  51  53
ENDBRANCH  43  49
ENDBRANCH  40  43
ENDBRANCH  37  40
ENDBRANCH   1  37
TORSDOF 16
ENDMDL
MODEL 6
REMARK VINA RESULT:      -6.1      2.397      3.271
REMARK  16 active torsions:
REMARK  status: ('A' for Active; 'I' for Inactive)
REMARK    1  A    between atoms: CBC_6  and  CAS_7 
REMARK    2  A    between atoms: CAS_7  and  CBG_8 
REMARK    3  A    between atoms: CBG_8  and  NAW_9 
REMARK    4  A    between atoms: CBG_8  and  P1_21 
REMARK       I    between atoms: NAW_9  and  CBB_10 
REMARK    5  A    between atoms: CBB_10  and  CBF_12 
REMARK    6  A    between atoms: CBF_12  and  CAR_13 
REMARK    7  A    between atoms: CBF_12  and  NAU_17 
REMARK    8  A    between atoms: CAR_13  and  CAZ_14 
REMARK       I    between atoms: NAU_17  and  CAX_18 
REMARK    9  A    between atoms: CAX_18  and  CAA_19 
REMARK   10  A    between atoms: P1_21  and  CAT_24 
REMARK   11  A    between atoms: CAT_24  and  CBD_25 
REMARK   12  A    between atoms: CBD_25  and  CAB_26 
REMARK   13  A    between atoms: CBD_25  and  CBA_27 
REMARK       I    between atoms: CBA_27  and  N_29 
REMARK   14  A    between atoms: N_29  and  CA_30 
REMARK   15  A    between atoms: CA_30  and  CB_31 
REMARK   16  A    between atoms: CA_30  and  C_32 
REMARK       I    between atoms: C_32  and  NAD_34 
ROOT
ATOM      1  CBG RX4 d          26.795   2.142  44.745  0.00  0.00     0.091 C 
ATOM      2  H8  RX4 d          27.518   2.200  45.572  0.00  0.00     0.089 H 
ENDROOT
BRANCH   1   3
ATOM      3  CAS RX4 d          25.516   1.378  45.259  0.00  0.00    -0.013 C 
ATOM      4  H6  RX4 d          24.630   1.680  44.681  0.00  0.00     0.044 H 
ATOM      5  H7  RX4 d          25.658   0.291  45.172  0.00  0.00     0.044 H 
BRANCH   3   6
ATOM      6  CBC RX4 d          25.354   1.784  46.746  0.00  0.00    -0.056 A 
ATOM      7  CAP RX4 d          24.046   2.156  47.149  0.00  0.00    -0.077 A 
ATOM      8  CAN RX4 d          23.739   2.591  48.431  0.00  0.00    -0.082 A 
ATOM      9  H1  RX4 d          23.246   2.097  46.420  0.00  0.00     0.084 H 
ATOM     10  CAM RX4 d          24.850   2.670  49.301  0.00  0.00    -0.083 A 
ATOM     11  H2  RX4 d          22.732   2.849  48.738  0.00  0.00     0.083 H 
ATOM     12  CAO RX4 d          26.171   2.338  48.920  0.00  0.00    -0.082 A 
ATOM     13  H3  RX4 d          24.680   3.003  50.318  0.00  0.00     0.083 H 
ATOM     14  CAQ RX4 d          26.438   1.889  47.616  0.00  0.00    -0.077 A 
ATOM     15  H4  RX4 d          26.980   2.429  49.636  0.00  0.00     0.083 H 
ATOM     16  H5  RX4 d          27.443   1.635  47.299  0.00  0.00     0.084 H 
ENDBRANCH   3   6
ENDBRANCH   1   3
BRANCH   1  17
ATOM     17  NAW RX4 d          26.451   3.487  44.293  0.00  0.00    -0.345 N 
ATOM     18  CBB RX4 d          27.136   4.509  44.814  0.00  0.00     0.241 C 
ATOM     19  OAI RX4 d          28.078   4.343  45.610  0.00  0.00    -0.271 OA
ATOM     20  H9  RX4 d          25.730   3.637  43.617  0.00  0.00     0.163 HD
BRANCH  18  21
ATOM     21  CBF RX4 d          26.628   5.945  44.600  0.00  0.00     0.098 C 
ATOM     22  H10 RX4 d          26.583   6.472  45.565  0.00  0.00     0.088 H 
BRANCH  21  23
ATOM     23  CAR RX4 d          25.262   5.969  43.993  0.00  0.00     0.043 C 
ATOM     24  H11 RX4 d          25.015   4.984  43.569  0.00  0.00     0.052 H 
ATOM     25  H12 RX4 d          25.209   6.733  43.203  0.00  0.00     0.052 H 
BRANCH  23  26
ATOM     26  CAZ RX4 d          24.287   6.318  45.142  0.00  0.00     0.175 C 
ATOM     27  OAK RX4 d          23.043   6.171  44.972  0.00  0.00    -0.648 OA
ATOM     28  OAG RX4 d          24.808   6.667  46.198  0.00  0.00    -0.648 OA
ENDBRANCH  23  26
ENDBRANCH  21  23
BRANCH  21  29
ATOM     29  NAU RX4 d          27.674   6.582  43.725  0.00  0.00    -0.348 N 
ATOM     30  CAX RX4 d          27.886   6.207  42.450  0.00  0.00     0.214 C 
ATOM     31  OAE RX4 d          27.272   5.270  41.886  0.00  0.00    -0.274 OA
ATOM     32  H13 RX4 d          28.236   7.314  44.108  0.00  0.00     0.163 HD
BRANCH  30  33
ATOM     33  CAA RX4 d          28.973   7.015  41.683  0.00  0.00    -0.003 C 
ATOM     34  H14 RX4 d          29.104   6.591  40.677  0.00  0.00     0.040 H 
ATOM     35  H15 RX4 d          29.926   6.959  42.230  0.00  0.00     0.040 H 
ATOM     36  H16 RX4 d          28.659   8.067  41.601  0.00  0.00     0.040 H 
ENDBRANCH  30  33
ENDBRANCH  21  29
ENDBRANCH  18  21
ENDBRANCH   1  17
BRANCH   1  37
ATOM     37  P1  RX4 d          27.571   1.342  43.323  0.00  0.00     0.130 P 
ATOM     38  O4  RX4 d          29.073   1.565  43.336  0.00  0.00    -0.666 OA
ATOM     39  O3  RX4 d          27.194   1.962  41.996  0.00  0.00    -0.666 OA
BRANCH  37  40
ATOM     40  CAT RX4 d          27.184  -0.399  43.420  0.00  0.00     0.020 C 
ATOM     41  H17 RX4 d          27.457  -0.855  42.458  0.00  0.00     0.050 H 
ATOM     42  H18 RX4 d          26.098  -0.490  43.573  0.00  0.00     0.050 H 
BRANCH  40  43
ATOM     43  CBD RX4 d          27.876  -1.203  44.526  0.00  0.00     0.029 C 
ATOM     44  H19 RX4 d          28.818  -0.716  44.820  0.00  0.00     0.054 H 
BRANCH  43  45
ATOM     45  CAB RX4 d          26.939  -1.458  45.810  0.00  0.00    -0.064 C 
ATOM     46  H20 RX4 d          27.039  -0.616  46.510  0.00  0.00     0.028 H 
ATOM     47  H21 RX4 d          27.247  -2.389  46.309  0.00  0.00     0.028 H 
ATOM     48  H22 RX4 d          25.891  -1.545  45.488  0.00  0.00     0.028 H 
ENDBRANCH  43  45
BRANCH  43  49
ATOM     49  CBA RX4 d          28.108  -2.648  43.939  0.00  0.00     0.222 C 
ATOM     50  OAH RX4 d          27.159  -3.287  43.456  0.00  0.00    -0.273 OA
ATOM     51  N   RX4 d          29.320  -3.169  44.072  0.00  0.00    -0.348 N 
ATOM     52  H23 RX4 d          30.061  -2.642  44.488  0.00  0.00     0.163 HD
BRANCH  51  53
ATOM     53  CA  RX4 d          29.555  -4.578  43.581  0.00  0.00     0.086 C 
ATOM     54  H24 RX4 d          28.830  -4.850  42.799  0.00  0.00     0.086 H 
BRANCH  53  55
ATOM     55  CB  RX4 d          30.987  -4.708  43.044  0.00  0.00    -0.049 C 
ATOM     56  H25 RX4 d          30.982  -5.314  42.126  0.00  0.00     0.030 H 
ATOM     57  H26 RX4 d          31.620  -5.195  43.802  0.00  0.00     0.030 H 
ATOM     58  H27 RX4 d          31.387  -3.708  42.821  0.00  0.00     0.030 H 
ENDBRANCH  53  55
BRANCH  53  59
ATOM     59  C   RX4 d          29.384  -5.487  44.846  0.00  0.00     0.237 C 
ATOM     60  O   RX4 d          30.400  -5.733  45.581  0.00  0.00    -0.271 OA
ATOM     61  NAD RX4 d          28.174  -5.937  45.128  0.00  0.00    -0.368 N 
ATOM     62  H28 RX4 d          28.031  -6.519  45.929  0.00  0.00     0.159 HD
ATOM     63  H29 RX4 d          27.402  -5.697  44.540  0.00  0.00     0.159 HD
ENDBRANCH  53  59
ENDBRANCH  51  53
ENDBRANCH  43  49
ENDBRANCH  40  43
ENDBRANCH  37  40
ENDBRANCH   1  37
TORSDOF 16
ENDMDL
MODEL 7
REMARK VINA RESULT:      -6.0      2.352      8.619
REMARK  16 active torsions:
REMARK  status: ('A' for Active; 'I' for Inactive)
REMARK    1  A    between atoms: CBC_6  and  CAS_7 
REMARK    2  A    between atoms: CAS_7  and  CBG_8 
REMARK    3  A    between atoms: CBG_8  and  NAW_9 
REMARK    4  A    between atoms: CBG_8  and  P1_21 
REMARK       I    between atoms: NAW_9  and  CBB_10 
REMARK    5  A    between atoms: CBB_10  and  CBF_12 
REMARK    6  A    between atoms: CBF_12  and  CAR_13 
REMARK    7  A    between atoms: CBF_12  and  NAU_17 
REMARK    8  A    between atoms: CAR_13  and  CAZ_14 
REMARK       I    between atoms: NAU_17  and  CAX_18 
REMARK    9  A    between atoms: CAX_18  and  CAA_19 
REMARK   10  A    between atoms: P1_21  and  CAT_24 
REMARK   11  A    between atoms: CAT_24  and  CBD_25 
REMARK   12  A    between atoms: CBD_25  and  CAB_26 
REMARK   13  A    between atoms: CBD_25  and  CBA_27 
REMARK       I    between atoms: CBA_27  and  N_29 
REMARK   14  A    between atoms: N_29  and  CA_30 
REMARK   15  A    between atoms: CA_30  and  CB_31 
REMARK   16  A    between atoms: CA_30  and  C_32 
REMARK       I    between atoms: C_32  and  NAD_34 
ROOT
ATOM      1  CBG RX4 d          28.033   0.135  44.222  0.00  0.00     0.091 C 
ATOM      2  H8  RX4 d          28.811   0.891  44.406  0.00  0.00     0.089 H 
ENDROOT
BRANCH   1   3
ATOM      3  CAS RX4 d          27.258   0.533  42.909  0.00  0.00    -0.013 C 
ATOM      4  H6  RX4 d          27.773   0.134  42.023  0.00  0.00     0.044 H 
ATOM      5  H7  RX4 d          26.228   0.147  42.939  0.00  0.00     0.044 H 
BRANCH   3   6
ATOM      6  CBC RX4 d          27.253   2.083  42.879  0.00  0.00    -0.056 A 
ATOM      7  CAP RX4 d          26.254   2.684  42.071  0.00  0.00    -0.077 A 
ATOM      8  CAN RX4 d          26.141   4.057  41.896  0.00  0.00    -0.082 A 
ATOM      9  H1  RX4 d          25.544   2.040  41.565  0.00  0.00     0.084 H 
ATOM     10  CAM RX4 d          27.131   4.812  42.565  0.00  0.00    -0.083 A 
ATOM     11  H2  RX4 d          25.359   4.510  41.298  0.00  0.00     0.083 H 
ATOM     12  CAO RX4 d          28.159   4.240  43.350  0.00  0.00    -0.082 A 
ATOM     13  H3  RX4 d          27.101   5.892  42.470  0.00  0.00     0.083 H 
ATOM     14  CAQ RX4 d          28.230   2.847  43.512  0.00  0.00    -0.077 A 
ATOM     15  H4  RX4 d          28.893   4.879  43.829  0.00  0.00     0.083 H 
ATOM     16  H5  RX4 d          29.013   2.386  44.105  0.00  0.00     0.084 H 
ENDBRANCH   3   6
ENDBRANCH   1   3
BRANCH   1  17
ATOM     17  NAW RX4 d          28.647  -1.183  44.085  0.00  0.00    -0.345 N 
ATOM     18  CBB RX4 d          27.858  -2.199  43.722  0.00  0.00     0.241 C 
ATOM     19  OAI RX4 d          26.656  -2.041  43.443  0.00  0.00    -0.271 OA
ATOM     20  H9  RX4 d          29.622  -1.320  44.257  0.00  0.00     0.163 HD
BRANCH  18  21
ATOM     21  CBF RX4 d          28.378  -3.640  43.846  0.00  0.00     0.098 C 
ATOM     22  H10 RX4 d          27.853  -4.157  44.664  0.00  0.00     0.088 H 
BRANCH  21  23
ATOM     23  CAR RX4 d          29.844  -3.682  44.136  0.00  0.00     0.043 C 
ATOM     24  H11 RX4 d          30.033  -3.421  45.188  0.00  0.00     0.052 H 
ATOM     25  H12 RX4 d          30.383  -2.980  43.481  0.00  0.00     0.052 H 
BRANCH  23  26
ATOM     26  CAZ RX4 d          30.297  -5.134  43.853  0.00  0.00     0.175 C 
ATOM     27  OAK RX4 d          31.135  -5.358  42.934  0.00  0.00    -0.648 OA
ATOM     28  OAG RX4 d          29.844  -5.991  44.606  0.00  0.00    -0.648 OA
ENDBRANCH  23  26
ENDBRANCH  21  23
BRANCH  21  29
ATOM     29  NAU RX4 d          28.017  -4.279  42.532  0.00  0.00    -0.348 N 
ATOM     30  CAX RX4 d          27.163  -5.315  42.434  0.00  0.00     0.214 C 
ATOM     31  OAE RX4 d          26.626  -5.874  43.420  0.00  0.00    -0.274 OA
ATOM     32  H13 RX4 d          28.430  -3.919  41.696  0.00  0.00     0.163 HD
BRANCH  30  33
ATOM     33  CAA RX4 d          26.870  -5.810  40.987  0.00  0.00    -0.003 C 
ATOM     34  H14 RX4 d          25.920  -6.365  40.975  0.00  0.00     0.040 H 
ATOM     35  H15 RX4 d          27.683  -6.469  40.653  0.00  0.00     0.040 H 
ATOM     36  H16 RX4 d          26.797  -4.945  40.311  0.00  0.00     0.040 H 
ENDBRANCH  30  33
ENDBRANCH  21  29
ENDBRANCH  18  21
ENDBRANCH   1  17
BRANCH   1  37
ATOM     37  P1  RX4 d          26.958   0.015  45.668  0.00  0.00     0.130 P 
ATOM     38  O4  RX4 d          27.263  -1.244  46.462  0.00  0.00    -0.666 OA
ATOM     39  O3  RX4 d          25.501  -0.200  45.327  0.00  0.00    -0.666 OA
BRANCH  37  40
ATOM     40  CAT RX4 d          27.239   1.475  46.658  0.00  0.00     0.020 C 
ATOM     41  H17 RX4 d          27.734   2.221  46.018  0.00  0.00     0.050 H 
ATOM     42  H18 RX4 d          27.913   1.194  47.481  0.00  0.00     0.050 H 
BRANCH  40  43
ATOM     43  CBD RX4 d          26.006   2.143  47.276  0.00  0.00     0.029 C 
ATOM     44  H19 RX4 d          25.107   1.540  47.079  0.00  0.00     0.054 H 
BRANCH  43  45
ATOM     45  CAB RX4 d          26.164   2.438  48.850  0.00  0.00    -0.064 C 
ATOM     46  H20 RX4 d          27.030   1.885  49.242  0.00  0.00     0.028 H 
ATOM     47  H21 RX4 d          25.254   2.114  49.376  0.00  0.00     0.028 H 
ATOM     48  H22 RX4 d          26.315   3.516  49.008  0.00  0.00     0.028 H 
ENDBRANCH  43  45
BRANCH  43  49
ATOM     49  CBA RX4 d          25.916   3.580  46.633  0.00  0.00     0.222 C 
ATOM     50  OAH RX4 d          26.912   4.320  46.613  0.00  0.00    -0.273 OA
ATOM     51  N   RX4 d          24.725   3.982  46.211  0.00  0.00    -0.348 N 
ATOM     52  H23 RX4 d          23.932   3.374  46.262  0.00  0.00     0.163 HD
BRANCH  51  53
ATOM     53  CA  RX4 d          24.593   5.379  45.654  0.00  0.00     0.086 C 
ATOM     54  H24 RX4 d          25.579   5.806  45.419  0.00  0.00     0.086 H 
BRANCH  53  55
ATOM     55  CB  RX4 d          23.714   5.354  44.395  0.00  0.00    -0.049 C 
ATOM     56  H25 RX4 d          23.903   6.258  43.797  0.00  0.00     0.030 H 
ATOM     57  H26 RX4 d          22.654   5.324  44.690  0.00  0.00     0.030 H 
ATOM     58  H27 RX4 d          23.954   4.462  43.798  0.00  0.00     0.030 H 
ENDBRANCH  53  55
BRANCH  53  59
ATOM     59  C   RX4 d          23.877   6.203  46.778  0.00  0.00     0.237 C 
ATOM     60  O   RX4 d          24.529   7.104  47.405  0.00  0.00    -0.271 OA
ATOM     61  NAD RX4 d          22.600   5.955  47.010  0.00  0.00    -0.368 N 
ATOM     62  H28 RX4 d          22.113   6.463  47.721  0.00  0.00     0.159 HD
ATOM     63  H29 RX4 d          22.120   5.258  46.475  0.00  0.00     0.159 HD
ENDBRANCH  53  59
ENDBRANCH  51  53
ENDBRANCH  43  49
ENDBRANCH  40  43
ENDBRANCH  37  40
ENDBRANCH   1  37
TORSDOF 16
ENDMDL
MODEL 8
REMARK VINA RESULT:      -5.8      2.725      6.943
REMARK  16 active torsions:
REMARK  status: ('A' for Active; 'I' for Inactive)
REMARK    1  A    between atoms: CBC_6  and  CAS_7 
REMARK    2  A    between atoms: CAS_7  and  CBG_8 
REMARK    3  A    between atoms: CBG_8  and  NAW_9 
REMARK    4  A    between atoms: CBG_8  and  P1_21 
REMARK       I    between atoms: NAW_9  and  CBB_10 
REMARK    5  A    between atoms: CBB_10  and  CBF_12 
REMARK    6  A    between atoms: CBF_12  and  CAR_13 
REMARK    7  A    between atoms: CBF_12  and  NAU_17 
REMARK    8  A    between atoms: CAR_13  and  CAZ_14 
REMARK       I    between atoms: NAU_17  and  CAX_18 
REMARK    9  A    between atoms: CAX_18  and  CAA_19 
REMARK   10  A    between atoms: P1_21  and  CAT_24 
REMARK   11  A    between atoms: CAT_24  and  CBD_25 
REMARK   12  A    between atoms: CBD_25  and  CAB_26 
REMARK   13  A    between atoms: CBD_25  and  CBA_27 
REMARK       I    between atoms: CBA_27  and  N_29 
REMARK   14  A    between atoms: N_29  and  CA_30 
REMARK   15  A    between atoms: CA_30  and  CB_31 
REMARK   16  A    between atoms: CA_30  and  C_32 
REMARK       I    between atoms: C_32  and  NAD_34 
ROOT
ATOM      1  CBG RX4 d          27.039   3.968  47.102  0.00  0.00     0.091 C 
ATOM      2  H8  RX4 d          27.884   3.892  47.802  0.00  0.00     0.089 H 
ENDROOT
BRANCH   1   3
ATOM      3  CAS RX4 d          27.002   5.436  46.528  0.00  0.00    -0.013 C 
ATOM      4  H6  RX4 d          27.029   5.419  45.429  0.00  0.00     0.044 H 
ATOM      5  H7  RX4 d          26.094   5.957  46.865  0.00  0.00     0.044 H 
BRANCH   3   6
ATOM      6  CBC RX4 d          28.266   6.137  47.088  0.00  0.00    -0.056 A 
ATOM      7  CAP RX4 d          29.348   6.280  46.183  0.00  0.00    -0.077 A 
ATOM      8  CAN RX4 d          30.568   6.841  46.536  0.00  0.00    -0.082 A 
ATOM      9  H1  RX4 d          29.216   5.935  45.164  0.00  0.00     0.084 H 
ATOM     10  CAM RX4 d          30.659   7.228  47.892  0.00  0.00    -0.083 A 
ATOM     11  H2  RX4 d          31.381   6.971  45.831  0.00  0.00     0.083 H 
ATOM     12  CAO RX4 d          29.610   7.068  48.828  0.00  0.00    -0.082 A 
ATOM     13  H3  RX4 d          31.586   7.673  48.235  0.00  0.00     0.083 H 
ATOM     14  CAQ RX4 d          28.387   6.507  48.426  0.00  0.00    -0.077 A 
ATOM     15  H4  RX4 d          29.751   7.379  49.857  0.00  0.00     0.083 H 
ATOM     16  H5  RX4 d          27.571   6.369  49.126  0.00  0.00     0.084 H 
ENDBRANCH   3   6
ENDBRANCH   1   3
BRANCH   1  17
ATOM     17  NAW RX4 d          27.196   2.992  46.028  0.00  0.00    -0.345 N 
ATOM     18  CBB RX4 d          28.079   2.006  46.212  0.00  0.00     0.241 C 
ATOM     19  OAI RX4 d          28.708   1.866  47.276  0.00  0.00    -0.271 OA
ATOM     20  H9  RX4 d          26.663   3.060  45.185  0.00  0.00     0.163 HD
BRANCH  18  21
ATOM     21  CBF RX4 d          28.495   1.133  45.017  0.00  0.00     0.098 C 
ATOM     22  H10 RX4 d          29.269   0.416  45.330  0.00  0.00     0.088 H 
BRANCH  21  23
ATOM     23  CAR RX4 d          29.046   1.952  43.893  0.00  0.00     0.043 C 
ATOM     24  H11 RX4 d          29.643   1.320  43.218  0.00  0.00     0.052 H 
ATOM     25  H12 RX4 d          29.674   2.765  44.286  0.00  0.00     0.052 H 
BRANCH  23  26
ATOM     26  CAZ RX4 d          27.823   2.532  43.144  0.00  0.00     0.175 C 
ATOM     27  OAK RX4 d          27.059   1.756  42.502  0.00  0.00    -0.648 OA
ATOM     28  OAG RX4 d          27.636   3.738  43.279  0.00  0.00    -0.648 OA
ENDBRANCH  23  26
ENDBRANCH  21  23
BRANCH  21  29
ATOM     29  NAU RX4 d          27.240   0.390  44.645  0.00  0.00    -0.348 N 
ATOM     30  CAX RX4 d          26.903  -0.792  45.193  0.00  0.00     0.214 C 
ATOM     31  OAE RX4 d          27.615  -1.407  46.022  0.00  0.00    -0.274 OA
ATOM     32  H13 RX4 d          26.631   0.791  43.962  0.00  0.00     0.163 HD
BRANCH  30  33
ATOM     33  CAA RX4 d          25.542  -1.387  44.726  0.00  0.00    -0.003 C 
ATOM     34  H14 RX4 d          25.003  -1.795  45.593  0.00  0.00     0.040 H 
ATOM     35  H15 RX4 d          25.723  -2.189  43.996  0.00  0.00     0.040 H 
ATOM     36  H16 RX4 d          24.937  -0.595  44.258  0.00  0.00     0.040 H 
ENDBRANCH  30  33
ENDBRANCH  21  29
ENDBRANCH  18  21
ENDBRANCH   1  17
BRANCH   1  37
ATOM     37  P1  RX4 d          25.513   3.504  47.951  0.00  0.00     0.130 P 
ATOM     38  O4  RX4 d          25.799   2.509  49.062  0.00  0.00    -0.666 OA
ATOM     39  O3  RX4 d          24.554   2.713  47.089  0.00  0.00    -0.666 OA
BRANCH  37  40
ATOM     40  CAT RX4 d          24.796   5.003  48.606  0.00  0.00     0.020 C 
ATOM     41  H17 RX4 d          25.380   5.850  48.216  0.00  0.00     0.050 H 
ATOM     42  H18 RX4 d          24.891   4.966  49.701  0.00  0.00     0.050 H 
BRANCH  40  43
ATOM     43  CBD RX4 d          23.323   5.269  48.277  0.00  0.00     0.029 C 
ATOM     44  H19 RX4 d          22.754   4.327  48.286  0.00  0.00     0.054 H 
BRANCH  43  45
ATOM     45  CAB RX4 d          22.641   6.359  49.245  0.00  0.00    -0.064 C 
ATOM     46  H20 RX4 d          21.817   5.889  49.802  0.00  0.00     0.028 H 
ATOM     47  H21 RX4 d          22.249   7.190  48.641  0.00  0.00     0.028 H 
ATOM     48  H22 RX4 d          23.391   6.741  49.953  0.00  0.00     0.028 H 
ENDBRANCH  43  45
BRANCH  43  49
ATOM     49  CBA RX4 d          23.308   5.964  46.862  0.00  0.00     0.222 C 
ATOM     50  OAH RX4 d          22.764   7.070  46.714  0.00  0.00    -0.273 OA
ATOM     51  N   RX4 d          23.810   5.278  45.844  0.00  0.00    -0.348 N 
ATOM     52  H23 RX4 d          24.220   4.377  45.987  0.00  0.00     0.163 HD
BRANCH  51  53
ATOM     53  CA  RX4 d          23.747   5.889  44.464  0.00  0.00     0.086 C 
ATOM     54  H24 RX4 d          22.705   6.040  44.146  0.00  0.00     0.086 H 
BRANCH  53  55
ATOM     55  CB  RX4 d          24.503   7.225  44.455  0.00  0.00    -0.049 C 
ATOM     56  H25 RX4 d          25.469   7.104  44.968  0.00  0.00     0.030 H 
ATOM     57  H26 RX4 d          23.905   7.988  44.975  0.00  0.00     0.030 H 
ATOM     58  H27 RX4 d          24.678   7.540  43.415  0.00  0.00     0.030 H 
ENDBRANCH  53  55
BRANCH  53  59
ATOM     59  C   RX4 d          24.479   4.865  43.530  0.00  0.00     0.237 C 
ATOM     60  O   RX4 d          24.787   5.215  42.341  0.00  0.00    -0.271 OA
ATOM     61  NAD RX4 d          24.784   3.680  44.027  0.00  0.00    -0.368 N 
ATOM     62  H28 RX4 d          25.252   3.004  43.457  0.00  0.00     0.159 HD
ATOM     63  H29 RX4 d          24.548   3.459  44.974  0.00  0.00     0.159 HD
ENDBRANCH  53  59
ENDBRANCH  51  53
ENDBRANCH  43  49
ENDBRANCH  40  43
ENDBRANCH  37  40
ENDBRANCH   1  37
TORSDOF 16
ENDMDL
MODEL 9
REMARK VINA RESULT:      -5.5      2.430      7.614
REMARK  16 active torsions:
REMARK  status: ('A' for Active; 'I' for Inactive)
REMARK    1  A    between atoms: CBC_6  and  CAS_7 
REMARK    2  A    between atoms: CAS_7  and  CBG_8 
REMARK    3  A    between atoms: CBG_8  and  NAW_9 
REMARK    4  A    between atoms: CBG_8  and  P1_21 
REMARK       I    between atoms: NAW_9  and  CBB_10 
REMARK    5  A    between atoms: CBB_10  and  CBF_12 
REMARK    6  A    between atoms: CBF_12  and  CAR_13 
REMARK    7  A    between atoms: CBF_12  and  NAU_17 
REMARK    8  A    between atoms: CAR_13  and  CAZ_14 
REMARK       I    between atoms: NAU_17  and  CAX_18 
REMARK    9  A    between atoms: CAX_18  and  CAA_19 
REMARK   10  A    between atoms: P1_21  and  CAT_24 
REMARK   11  A    between atoms: CAT_24  and  CBD_25 
REMARK   12  A    between atoms: CBD_25  and  CAB_26 
REMARK   13  A    between atoms: CBD_25  and  CBA_27 
REMARK       I    between atoms: CBA_27  and  N_29 
REMARK   14  A    between atoms: N_29  and  CA_30 
REMARK   15  A    between atoms: CA_30  and  CB_31 
REMARK   16  A    between atoms: CA_30  and  C_32 
REMARK       I    between atoms: C_32  and  NAD_34 
ROOT
ATOM      1  CBG RX4 d          26.583  -0.088  44.049  0.00  0.00     0.091 C 
ATOM      2  H8  RX4 d          25.872  -0.690  43.464  0.00  0.00     0.089 H 
ENDROOT
BRANCH   1   3
ATOM      3  CAS RX4 d          28.040  -0.608  43.744  0.00  0.00    -0.013 C 
ATOM      4  H6  RX4 d          28.375  -0.256  42.757  0.00  0.00     0.044 H 
ATOM      5  H7  RX4 d          28.741  -0.258  44.516  0.00  0.00     0.044 H 
BRANCH   3   6
ATOM      6  CBC RX4 d          27.945  -2.155  43.762  0.00  0.00    -0.056 A 
ATOM      7  CAP RX4 d          29.088  -2.841  44.244  0.00  0.00    -0.077 A 
ATOM      8  CAN RX4 d          29.186  -4.225  44.281  0.00  0.00    -0.082 A 
ATOM      9  H1  RX4 d          29.928  -2.256  44.601  0.00  0.00     0.084 H 
ATOM     10  CAM RX4 d          28.059  -4.903  43.762  0.00  0.00    -0.083 A 
ATOM     11  H2  RX4 d          30.053  -4.743  44.675  0.00  0.00     0.083 H 
ATOM     12  CAO RX4 d          26.918  -4.247  43.244  0.00  0.00    -0.082 A 
ATOM     13  H3  RX4 d          28.070  -5.986  43.761  0.00  0.00     0.083 H 
ATOM     14  CAQ RX4 d          26.854  -2.844  43.237  0.00  0.00    -0.077 A 
ATOM     15  H4  RX4 d          26.091  -4.829  42.853  0.00  0.00     0.083 H 
ATOM     16  H5  RX4 d          25.992  -2.319  42.839  0.00  0.00     0.084 H 
ENDBRANCH   3   6
ENDBRANCH   1   3
BRANCH   1  17
ATOM     17  NAW RX4 d          26.448   1.322  43.693  0.00  0.00    -0.345 N 
ATOM     18  CBB RX4 d          27.477   2.130  43.964  0.00  0.00     0.241 C 
ATOM     19  OAI RX4 d          28.546   1.710  44.443  0.00  0.00    -0.271 OA
ATOM     20  H9  RX4 d          25.616   1.669  43.262  0.00  0.00     0.163 HD
BRANCH  18  21
ATOM     21  CBF RX4 d          27.282   3.653  43.884  0.00  0.00     0.098 C 
ATOM     22  H10 RX4 d          26.230   3.905  44.083  0.00  0.00     0.088 H 
BRANCH  21  23
ATOM     23  CAR RX4 d          27.643   4.192  42.536  0.00  0.00     0.043 C 
ATOM     24  H11 RX4 d          27.965   3.375  41.873  0.00  0.00     0.052 H 
ATOM     25  H12 RX4 d          28.451   4.933  42.626  0.00  0.00     0.052 H 
BRANCH  23  26
ATOM     26  CAZ RX4 d          26.362   4.859  41.983  0.00  0.00     0.175 C 
ATOM     27  OAK RX4 d          25.282   4.772  42.635  0.00  0.00    -0.648 OA
ATOM     28  OAG RX4 d          26.498   5.501  40.946  0.00  0.00    -0.648 OA
ENDBRANCH  23  26
ENDBRANCH  21  23
BRANCH  21  29
ATOM     29  NAU RX4 d          28.148   4.197  44.988  0.00  0.00    -0.348 N 
ATOM     30  CAX RX4 d          27.870   5.342  45.638  0.00  0.00     0.214 C 
ATOM     31  OAE RX4 d          26.899   6.086  45.359  0.00  0.00    -0.274 OA
ATOM     32  H13 RX4 d          28.966   3.685  45.251  0.00  0.00     0.163 HD
BRANCH  30  33
ATOM     33  CAA RX4 d          28.850   5.719  46.787  0.00  0.00    -0.003 C 
ATOM     34  H14 RX4 d          28.922   6.814  46.863  0.00  0.00     0.040 H 
ATOM     35  H15 RX4 d          29.844   5.301  46.574  0.00  0.00     0.040 H 
ATOM     36  H16 RX4 d          28.476   5.309  47.737  0.00  0.00     0.040 H 
ENDBRANCH  30  33
ENDBRANCH  21  29
ENDBRANCH  18  21
ENDBRANCH   1  17
BRANCH   1  37
ATOM     37  P1  RX4 d          26.152  -0.183  45.800  0.00  0.00     0.130 P 
ATOM     38  O4  RX4 d          27.377  -0.500  46.639  0.00  0.00    -0.666 OA
ATOM     39  O3  RX4 d          25.253  -1.350  46.142  0.00  0.00    -0.666 OA
BRANCH  37  40
ATOM     40  CAT RX4 d          25.456   1.397  46.260  0.00  0.00     0.020 C 
ATOM     41  H17 RX4 d          24.366   1.333  46.125  0.00  0.00     0.050 H 
ATOM     42  H18 RX4 d          25.866   2.153  45.573  0.00  0.00     0.050 H 
BRANCH  40  43
ATOM     43  CBD RX4 d          25.717   1.880  47.690  0.00  0.00     0.029 C 
ATOM     44  H19 RX4 d          25.563   1.059  48.405  0.00  0.00     0.054 H 
BRANCH  43  45
ATOM     45  CAB RX4 d          27.171   2.542  47.884  0.00  0.00    -0.064 C 
ATOM     46  H20 RX4 d          27.165   3.565  47.480  0.00  0.00     0.028 H 
ATOM     47  H21 RX4 d          27.921   1.941  47.348  0.00  0.00     0.028 H 
ATOM     48  H22 RX4 d          27.422   2.572  48.955  0.00  0.00     0.028 H 
ENDBRANCH  43  45
BRANCH  43  49
ATOM     49  CBA RX4 d          24.724   3.081  47.936  0.00  0.00     0.222 C 
ATOM     50  OAH RX4 d          23.673   2.904  48.572  0.00  0.00    -0.273 OA
ATOM     51  N   RX4 d          25.019   4.239  47.359  0.00  0.00    -0.348 N 
ATOM     52  H23 RX4 d          25.861   4.348  46.830  0.00  0.00     0.163 HD
BRANCH  51  53
ATOM     53  CA  RX4 d          24.052   5.388  47.519  0.00  0.00     0.086 C 
ATOM     54  H24 RX4 d          23.194   5.099  48.143  0.00  0.00     0.086 H 
BRANCH  53  55
ATOM     55  CB  RX4 d          24.777   6.591  48.140  0.00  0.00    -0.049 C 
ATOM     56  H25 RX4 d          25.046   6.360  49.181  0.00  0.00     0.030 H 
ATOM     57  H26 RX4 d          24.114   7.469  48.119  0.00  0.00     0.030 H 
ATOM     58  H27 RX4 d          25.690   6.806  47.565  0.00  0.00     0.030 H 
ENDBRANCH  53  55
BRANCH  53  59
ATOM     59  C   RX4 d          23.596   5.745  46.063  0.00  0.00     0.237 C 
ATOM     60  O   RX4 d          22.946   6.825  45.859  0.00  0.00    -0.271 OA
ATOM     61  NAD RX4 d          23.938   4.923  45.087  0.00  0.00    -0.368 N 
ATOM     62  H28 RX4 d          23.663   5.122  44.146  0.00  0.00     0.159 HD
ATOM     63  H29 RX4 d          24.472   4.101  45.289  0.00  0.00     0.159 HD
ENDBRANCH  53  59
ENDBRANCH  51  53
ENDBRANCH  43  49
ENDBRANCH  40  43
ENDBRANCH  37  40
ENDBRANCH   1  37
TORSDOF 16
ENDMDL
MODEL 10
REMARK VINA RESULT:      -5.5      2.706      8.398
REMARK  16 active torsions:
REMARK  status: ('A' for Active; 'I' for Inactive)
REMARK    1  A    between atoms: CBC_6  and  CAS_7 
REMARK    2  A    between atoms: CAS_7  and  CBG_8 
REMARK    3  A    between atoms: CBG_8  and  NAW_9 
REMARK    4  A    between atoms: CBG_8  and  P1_21 
REMARK       I    between atoms: NAW_9  and  CBB_10 
REMARK    5  A    between atoms: CBB_10  and  CBF_12 
REMARK    6  A    between atoms: CBF_12  and  CAR_13 
REMARK    7  A    between atoms: CBF_12  and  NAU_17 
REMARK    8  A    between atoms: CAR_13  and  CAZ_14 
REMARK       I    between atoms: NAU_17  and  CAX_18 
REMARK    9  A    between atoms: CAX_18  and  CAA_19 
REMARK   10  A    between atoms: P1_21  and  CAT_24 
REMARK   11  A    between atoms: CAT_24  and  CBD_25 
REMARK   12  A    between atoms: CBD_25  and  CAB_26 
REMARK   13  A    between atoms: CBD_25  and  CBA_27 
REMARK       I    between atoms: CBA_27  and  N_29 
REMARK   14  A    between atoms: N_29  and  CA_30 
REMARK   15  A    between atoms: CA_30  and  CB_31 
REMARK   16  A    between atoms: CA_30  and  C_32 
REMARK       I    between atoms: C_32  and  NAD_34 
ROOT
ATOM      1  CBG RX4 d          27.643   0.174  44.522  0.00  0.00     0.091 C 
ATOM      2  H8  RX4 d          28.299  -0.001  45.388  0.00  0.00     0.089 H 
ENDROOT
BRANCH   1   3
ATOM      3  CAS RX4 d          28.260   1.340  43.661  0.00  0.00    -0.013 C 
ATOM      4  H6  RX4 d          29.276   1.078  43.332  0.00  0.00     0.044 H 
ATOM      5  H7  RX4 d          27.631   1.543  42.782  0.00  0.00     0.044 H 
BRANCH   3   6
ATOM      6  CBC RX4 d          28.297   2.577  44.595  0.00  0.00    -0.056 A 
ATOM      7  CAP RX4 d          28.175   3.838  43.959  0.00  0.00    -0.077 A 
ATOM      8  CAN RX4 d          28.236   5.045  44.643  0.00  0.00    -0.082 A 
ATOM      9  H1  RX4 d          28.026   3.862  42.886  0.00  0.00     0.084 H 
ATOM     10  CAM RX4 d          28.468   4.916  46.031  0.00  0.00    -0.083 A 
ATOM     11  H2  RX4 d          28.116   6.005  44.154  0.00  0.00     0.083 H 
ATOM     12  CAO RX4 d          28.627   3.674  46.689  0.00  0.00    -0.082 A 
ATOM     13  H3  RX4 d          28.528   5.820  46.626  0.00  0.00     0.083 H 
ATOM     14  CAQ RX4 d          28.546   2.475  45.962  0.00  0.00    -0.077 A 
ATOM     15  H4  RX4 d          28.813   3.647  47.757  0.00  0.00     0.083 H 
ATOM     16  H5  RX4 d          28.671   1.512  46.444  0.00  0.00     0.084 H 
ENDBRANCH   3   6
ENDBRANCH   1   3
BRANCH   1  17
ATOM     17  NAW RX4 d          27.526  -1.050  43.735  0.00  0.00    -0.345 N 
ATOM     18  CBB RX4 d          27.686  -2.214  44.371  0.00  0.00     0.241 C 
ATOM     19  OAI RX4 d          27.866  -2.281  45.601  0.00  0.00    -0.271 OA
ATOM     20  H9  RX4 d          27.332  -1.018  42.755  0.00  0.00     0.163 HD
BRANCH  18  21
ATOM     21  CBF RX4 d          27.864  -3.503  43.553  0.00  0.00     0.098 C 
ATOM     22  H10 RX4 d          28.553  -3.321  42.715  0.00  0.00     0.088 H 
BRANCH  21  23
ATOM     23  CAR RX4 d          26.567  -3.992  42.992  0.00  0.00     0.043 C 
ATOM     24  H11 RX4 d          26.244  -3.346  42.161  0.00  0.00     0.052 H 
ATOM     25  H12 RX4 d          25.792  -4.000  43.773  0.00  0.00     0.052 H 
BRANCH  23  26
ATOM     26  CAZ RX4 d          26.832  -5.429  42.484  0.00  0.00     0.175 C 
ATOM     27  OAK RX4 d          27.189  -5.611  41.285  0.00  0.00    -0.648 OA
ATOM     28  OAG RX4 d          26.734  -6.319  43.324  0.00  0.00    -0.648 OA
ENDBRANCH  23  26
ENDBRANCH  21  23
BRANCH  21  29
ATOM     29  NAU RX4 d          28.491  -4.472  44.520  0.00  0.00    -0.348 N 
ATOM     30  CAX RX4 d          29.781  -4.847  44.444  0.00  0.00     0.214 C 
ATOM     31  OAE RX4 d          30.568  -4.467  43.544  0.00  0.00    -0.274 OA
ATOM     32  H13 RX4 d          27.924  -4.854  45.249  0.00  0.00     0.163 HD
BRANCH  30  33
ATOM     33  CAA RX4 d          30.267  -5.815  45.562  0.00  0.00    -0.003 C 
ATOM     34  H14 RX4 d          31.287  -6.157  45.333  0.00  0.00     0.040 H 
ATOM     35  H15 RX4 d          29.593  -6.682  45.615  0.00  0.00     0.040 H 
ATOM     36  H16 RX4 d          30.266  -5.290  46.529  0.00  0.00     0.040 H 
ENDBRANCH  30  33
ENDBRANCH  21  29
ENDBRANCH  18  21
ENDBRANCH   1  17
BRANCH   1  37
ATOM     37  P1  RX4 d          25.970   0.532  45.101  0.00  0.00     0.130 P 
ATOM     38  O4  RX4 d          25.924   0.573  46.619  0.00  0.00    -0.666 OA
ATOM     39  O3  RX4 d          24.976  -0.569  44.807  0.00  0.00    -0.666 OA
BRANCH  37  40
ATOM     40  CAT RX4 d          25.497   2.109  44.407  0.00  0.00     0.020 C 
ATOM     41  H17 RX4 d          25.045   1.917  43.423  0.00  0.00     0.050 H 
ATOM     42  H18 RX4 d          26.414   2.704  44.278  0.00  0.00     0.050 H 
BRANCH  40  43
ATOM     43  CBD RX4 d          24.506   2.954  45.214  0.00  0.00     0.029 C 
ATOM     44  H19 RX4 d          23.564   2.405  45.358  0.00  0.00     0.054 H 
BRANCH  43  45
ATOM     45  CAB RX4 d          25.098   3.454  46.625  0.00  0.00    -0.064 C 
ATOM     46  H20 RX4 d          25.648   4.395  46.479  0.00  0.00     0.028 H 
ATOM     47  H21 RX4 d          25.779   2.690  47.028  0.00  0.00     0.028 H 
ATOM     48  H22 RX4 d          24.271   3.618  47.333  0.00  0.00     0.028 H 
ENDBRANCH  43  45
BRANCH  43  49
ATOM     49  CBA RX4 d          24.302   4.289  44.400  0.00  0.00     0.222 C 
ATOM     50  OAH RX4 d          23.345   5.037  44.655  0.00  0.00    -0.273 OA
ATOM     51  N   RX4 d          25.133   4.516  43.391  0.00  0.00    -0.348 N 
ATOM     52  H23 RX4 d          25.881   3.884  43.192  0.00  0.00     0.163 HD
BRANCH  51  53
ATOM     53  CA  RX4 d          24.920   5.753  42.550  0.00  0.00     0.086 C 
ATOM     54  H24 RX4 d          23.851   5.919  42.355  0.00  0.00     0.086 H 
BRANCH  53  55
ATOM     55  CB  RX4 d          25.526   6.972  43.259  0.00  0.00    -0.049 C 
ATOM     56  H25 RX4 d          25.915   7.677  42.510  0.00  0.00     0.030 H 
ATOM     57  H26 RX4 d          26.346   6.645  43.916  0.00  0.00     0.030 H 
ATOM     58  H27 RX4 d          24.750   7.469  43.861  0.00  0.00     0.030 H 
ENDBRANCH  53  55
BRANCH  53  59
ATOM     59  C   RX4 d          25.699   5.480  41.218  0.00  0.00     0.237 C 
ATOM     60  O   RX4 d          25.630   4.325  40.679  0.00  0.00    -0.271 OA
ATOM     61  NAD RX4 d          26.375   6.480  40.679  0.00  0.00    -0.368 N 
ATOM     62  H28 RX4 d          26.882   6.340  39.829  0.00  0.00     0.159 HD
ATOM     63  H29 RX4 d          26.378   7.377  41.122  0.00  0.00     0.159 HD
ENDBRANCH  53  59
ENDBRANCH  51  53
ENDBRANCH  43  49
ENDBRANCH  40  43
ENDBRANCH  37  40
ENDBRANCH   1  37
TORSDOF 16
ENDMDL
