MODEL 1
REMARK VINA RESULT:      -7.6      0.000      0.000
REMARK  0 active torsions:
REMARK  status: ('A' for Active; 'I' for Inactive)
ROOT
ATOM      1  C1  MOL d          22.967  36.339  41.479  0.00  0.00     0.096 A 
ATOM      2  C2  MOL d          24.386  36.759  41.306  0.00  0.00    -0.012 A 
ATOM      3  C3  MOL d          22.917  36.115  42.975  0.00  0.00     0.237 A 
ATOM      4  C4  MOL d          22.019  37.458  41.134  0.00  0.00    -0.021 C 
ATOM      5  C5  MOL d          22.536  35.123  40.686  0.00  0.00     0.101 C 
ATOM      6  C6  MOL d          25.025  36.813  42.508  0.00  0.00     0.042 A 
ATOM      7  C7  MOL d          25.055  37.073  40.160  0.00  0.00    -0.073 A 
ATOM      8  N1  MOL d          24.155  36.437  43.525  0.00  0.00    -0.326 N 
ATOM      9  O1  MOL d          21.870  35.873  43.565  0.00  0.00    -0.272 OA
ATOM     10  C8  MOL d          20.803  36.804  40.516  0.00  0.00     0.083 C 
ATOM     11  N2  MOL d          21.347  35.575  39.895  0.00  0.00    -0.074 N 
ATOM     12  C9  MOL d          26.336  37.209  42.624  0.00  0.00    -0.057 A 
ATOM     13  C10 MOL d          26.377  37.469  40.247  0.00  0.00    -0.082 A 
ATOM     14  C11 MOL d          27.011  37.523  41.469  0.00  0.00    -0.081 A 
ATOM     15  H1  MOL d          22.488  38.148  40.417  0.00  0.00     0.037 H 
ATOM     16  H2  MOL d          21.734  38.011  42.042  0.00  0.00     0.037 H 
ATOM     17  H3  MOL d          22.260  34.299  41.361  0.00  0.00     0.078 H 
ATOM     18  H4  MOL d          23.342  34.792  40.015  0.00  0.00     0.078 H 
ATOM     19  H5  MOL d          24.559  37.014  39.198  0.00  0.00     0.084 H 
ATOM     20  H6  MOL d          24.382  36.402  44.499  0.00  0.00     0.169 HD
ATOM     21  H7  MOL d          20.348  37.458  39.758  0.00  0.00     0.075 H 
ATOM     22  H8  MOL d          20.056  36.557  41.284  0.00  0.00     0.075 H 
ATOM     23  H9  MOL d          20.644  34.853  39.899  0.00  0.00     0.277 HD
ATOM     24  H10 MOL d          21.625  35.768  38.946  0.00  0.00     0.277 HD
ATOM     25  H11 MOL d          26.821  37.271  43.592  0.00  0.00     0.086 H 
ATOM     26  H12 MOL d          26.917  37.739  39.348  0.00  0.00     0.083 H 
ATOM     27  H13 MOL d          28.053  37.816  41.520  0.00  0.00     0.083 H 
ENDROOT
TORSDOF 0
ENDMDL
