MODEL 1
REMARK VINA RESULT:      -7.6      0.000      0.000
REMARK  0 active torsions:
REMARK  status: ('A' for Active; 'I' for Inactive)
ROOT
ATOM      1  C1  MOL d          22.962  36.340  41.480  0.00  0.00     0.096 A 
ATOM      2  C2  MOL d          24.380  36.760  41.307  0.00  0.00    -0.012 A 
ATOM      3  C3  MOL d          22.911  36.117  42.976  0.00  0.00     0.237 A 
ATOM      4  C4  MOL d          22.013  37.459  41.134  0.00  0.00    -0.021 C 
ATOM      5  C5  MOL d          22.531  35.123  40.687  0.00  0.00     0.101 C 
ATOM      6  C6  MOL d          25.019  36.815  42.509  0.00  0.00     0.042 A 
ATOM      7  C7  MOL d          25.050  37.075  40.161  0.00  0.00    -0.073 A 
ATOM      8  N1  MOL d          24.148  36.439  43.526  0.00  0.00    -0.326 N 
ATOM      9  O1  MOL d          21.863  35.874  43.566  0.00  0.00    -0.272 OA
ATOM     10  C8  MOL d          20.797  36.804  40.516  0.00  0.00     0.083 C 
ATOM     11  N2  MOL d          21.342  35.575  39.896  0.00  0.00    -0.074 N 
ATOM     12  C9  MOL d          26.330  37.211  42.625  0.00  0.00    -0.057 A 
ATOM     13  C10 MOL d          26.371  37.471  40.249  0.00  0.00    -0.082 A 
ATOM     14  C11 MOL d          27.005  37.525  41.470  0.00  0.00    -0.081 A 
ATOM     15  H1  MOL d          22.481  38.149  40.417  0.00  0.00     0.037 H 
ATOM     16  H2  MOL d          21.728  38.012  42.041  0.00  0.00     0.037 H 
ATOM     17  H3  MOL d          22.255  34.300  41.363  0.00  0.00     0.078 H 
ATOM     18  H4  MOL d          23.338  34.793  40.017  0.00  0.00     0.078 H 
ATOM     19  H5  MOL d          24.554  37.015  39.199  0.00  0.00     0.084 H 
ATOM     20  H6  MOL d          24.375  36.405  44.499  0.00  0.00     0.169 HD
ATOM     21  H7  MOL d          20.342  37.457  39.758  0.00  0.00     0.075 H 
ATOM     22  H8  MOL d          20.050  36.557  41.284  0.00  0.00     0.075 H 
ATOM     23  H9  MOL d          20.639  34.853  39.899  0.00  0.00     0.277 HD
ATOM     24  H10 MOL d          21.620  35.768  38.947  0.00  0.00     0.277 HD
ATOM     25  H11 MOL d          26.814  37.274  43.593  0.00  0.00     0.086 H 
ATOM     26  H12 MOL d          26.912  37.740  39.349  0.00  0.00     0.083 H 
ATOM     27  H13 MOL d          28.047  37.819  41.521  0.00  0.00     0.083 H 
ENDROOT
TORSDOF 0
ENDMDL
MODEL 2
REMARK VINA RESULT:      -6.9      2.379      4.727
REMARK  0 active torsions:
REMARK  status: ('A' for Active; 'I' for Inactive)
ROOT
ATOM      1  C1  MOL d          25.636  36.664  41.918  0.00  0.00     0.096 A 
ATOM      2  C2  MOL d          24.158  36.593  42.082  0.00  0.00    -0.012 A 
ATOM      3  C3  MOL d          25.741  37.312  40.555  0.00  0.00     0.237 A 
ATOM      4  C4  MOL d          26.256  37.589  42.933  0.00  0.00    -0.021 C 
ATOM      5  C5  MOL d          26.375  35.344  42.001  0.00  0.00     0.101 C 
ATOM      6  C6  MOL d          23.524  37.152  41.014  0.00  0.00     0.042 A 
ATOM      7  C7  MOL d          23.432  36.071  43.112  0.00  0.00    -0.073 A 
ATOM      8  N1  MOL d          24.460  37.598  40.087  0.00  0.00    -0.326 N 
ATOM      9  O1  MOL d          26.813  37.673  40.082  0.00  0.00    -0.272 OA
ATOM     10  C8  MOL d          27.603  36.993  43.278  0.00  0.00     0.083 C 
ATOM     11  N2  MOL d          27.404  35.540  43.071  0.00  0.00    -0.074 N 
ATOM     12  C9  MOL d          22.155  37.243  40.939  0.00  0.00    -0.057 A 
ATOM     13  C10 MOL d          22.052  36.144  43.060  0.00  0.00    -0.082 A 
ATOM     14  C11 MOL d          21.423  36.715  41.976  0.00  0.00    -0.081 A 
ATOM     15  H1  MOL d          25.624  37.649  43.831  0.00  0.00     0.037 H 
ATOM     16  H2  MOL d          26.383  38.595  42.506  0.00  0.00     0.037 H 
ATOM     17  H3  MOL d          26.857  35.110  41.040  0.00  0.00     0.078 H 
ATOM     18  H4  MOL d          25.686  34.531  42.273  0.00  0.00     0.078 H 
ATOM     19  H5  MOL d          23.928  35.607  43.957  0.00  0.00     0.084 H 
ATOM     20  H6  MOL d          24.248  38.052  39.222  0.00  0.00     0.169 HD
ATOM     21  H7  MOL d          27.871  37.207  44.323  0.00  0.00     0.075 H 
ATOM     22  H8  MOL d          28.387  37.380  42.611  0.00  0.00     0.075 H 
ATOM     23  H9  MOL d          28.273  35.116  42.787  0.00  0.00     0.277 HD
ATOM     24  H10 MOL d          27.087  35.116  43.928  0.00  0.00     0.277 HD
ATOM     25  H11 MOL d          21.669  37.715  40.093  0.00  0.00     0.086 H 
ATOM     26  H12 MOL d          21.462  35.750  43.878  0.00  0.00     0.083 H 
ATOM     27  H13 MOL d          20.341  36.748  41.939  0.00  0.00     0.083 H 
ENDROOT
TORSDOF 0
ENDMDL
MODEL 3
REMARK VINA RESULT:      -6.6      2.102      4.235
REMARK  0 active torsions:
REMARK  status: ('A' for Active; 'I' for Inactive)
ROOT
ATOM      1  C1  MOL d          25.589  36.387  41.929  0.00  0.00     0.096 A 
ATOM      2  C2  MOL d          24.143  36.684  41.733  0.00  0.00    -0.012 A 
ATOM      3  C3  MOL d          25.523  35.381  43.057  0.00  0.00     0.237 A 
ATOM      4  C4  MOL d          26.178  35.707  40.720  0.00  0.00    -0.021 C 
ATOM      5  C5  MOL d          26.472  37.576  42.251  0.00  0.00     0.101 C 
ATOM      6  C6  MOL d          23.376  35.936  42.574  0.00  0.00     0.042 A 
ATOM      7  C7  MOL d          23.555  37.555  40.864  0.00  0.00    -0.073 A 
ATOM      8  N1  MOL d          24.189  35.139  43.374  0.00  0.00    -0.326 N 
ATOM      9  O1  MOL d          26.513  34.773  43.452  0.00  0.00    -0.272 OA
ATOM     10  C8  MOL d          27.603  36.202  40.610  0.00  0.00     0.083 C 
ATOM     11  N2  MOL d          27.549  37.555  41.210  0.00  0.00    -0.074 N 
ATOM     12  C9  MOL d          22.004  35.999  42.566  0.00  0.00    -0.057 A 
ATOM     13  C10 MOL d          22.176  37.643  40.838  0.00  0.00    -0.082 A 
ATOM     14  C11 MOL d          21.411  36.879  41.692  0.00  0.00    -0.081 A 
ATOM     15  H1  MOL d          25.610  35.975  39.817  0.00  0.00     0.037 H 
ATOM     16  H2  MOL d          26.163  34.615  40.851  0.00  0.00     0.037 H 
ATOM     17  H3  MOL d          26.905  37.474  43.257  0.00  0.00     0.078 H 
ATOM     18  H4  MOL d          25.896  38.511  42.191  0.00  0.00     0.078 H 
ATOM     19  H5  MOL d          24.160  38.168  40.204  0.00  0.00     0.084 H 
ATOM     20  H6  MOL d          23.866  34.495  44.067  0.00  0.00     0.169 HD
ATOM     21  H7  MOL d          27.922  36.252  39.559  0.00  0.00     0.075 H 
ATOM     22  H8  MOL d          28.290  35.552  41.172  0.00  0.00     0.075 H 
ATOM     23  H9  MOL d          28.435  37.773  41.636  0.00  0.00     0.277 HD
ATOM     24  H10 MOL d          27.343  38.235  40.496  0.00  0.00     0.277 HD
ATOM     25  H11 MOL d          21.409  35.377  43.225  0.00  0.00     0.086 H 
ATOM     26  H12 MOL d          21.693  38.318  40.141  0.00  0.00     0.083 H 
ATOM     27  H13 MOL d          20.332  36.973  41.674  0.00  0.00     0.083 H 
ENDROOT
TORSDOF 0
ENDMDL
MODEL 4
REMARK VINA RESULT:      -6.0      1.771      2.503
REMARK  0 active torsions:
REMARK  status: ('A' for Active; 'I' for Inactive)
ROOT
ATOM      1  C1  MOL d          23.440  36.261  41.790  0.00  0.00     0.096 A 
ATOM      2  C2  MOL d          24.911  36.330  41.565  0.00  0.00    -0.012 A 
ATOM      3  C3  MOL d          22.977  37.480  41.023  0.00  0.00     0.237 A 
ATOM      4  C4  MOL d          22.844  35.038  41.142  0.00  0.00    -0.021 C 
ATOM      5  C5  MOL d          22.991  36.268  43.236  0.00  0.00     0.101 C 
ATOM      6  C6  MOL d          25.229  37.385  40.763  0.00  0.00     0.042 A 
ATOM      7  C7  MOL d          25.892  35.509  42.038  0.00  0.00    -0.073 A 
ATOM      8  N1  MOL d          24.077  38.084  40.421  0.00  0.00    -0.326 N 
ATOM      9  O1  MOL d          21.789  37.730  40.846  0.00  0.00    -0.272 OA
ATOM     10  C8  MOL d          21.716  34.590  42.046  0.00  0.00     0.083 C 
ATOM     11  N2  MOL d          22.147  35.040  43.389  0.00  0.00    -0.074 N 
ATOM     12  C9  MOL d          26.522  37.647  40.377  0.00  0.00    -0.057 A 
ATOM     13  C10 MOL d          27.201  35.754  41.669  0.00  0.00    -0.082 A 
ATOM     14  C11 MOL d          27.510  36.821  40.856  0.00  0.00    -0.081 A 
ATOM     15  H1  MOL d          23.601  34.245  41.054  0.00  0.00     0.037 H 
ATOM     16  H2  MOL d          22.456  35.286  40.143  0.00  0.00     0.037 H 
ATOM     17  H3  MOL d          22.401  37.171  43.453  0.00  0.00     0.078 H 
ATOM     18  H4  MOL d          23.858  36.226  43.911  0.00  0.00     0.078 H 
ATOM     19  H5  MOL d          25.648  34.679  42.692  0.00  0.00     0.084 H 
ATOM     20  H6  MOL d          24.045  38.894  39.835  0.00  0.00     0.169 HD
ATOM     21  H7  MOL d          21.600  33.497  42.016  0.00  0.00     0.075 H 
ATOM     22  H8  MOL d          20.769  35.068  41.758  0.00  0.00     0.075 H 
ATOM     23  H9  MOL d          21.339  35.252  43.951  0.00  0.00     0.277 HD
ATOM     24  H10 MOL d          22.685  34.313  43.834  0.00  0.00     0.277 HD
ATOM     25  H11 MOL d          26.753  38.476  39.717  0.00  0.00     0.086 H 
ATOM     26  H12 MOL d          27.990  35.100  42.022  0.00  0.00     0.083 H 
ATOM     27  H13 MOL d          28.543  37.013  40.590  0.00  0.00     0.083 H 
ENDROOT
TORSDOF 0
ENDMDL
MODEL 5
REMARK VINA RESULT:      -5.3      1.753      2.758
REMARK  0 active torsions:
REMARK  status: ('A' for Active; 'I' for Inactive)
ROOT
ATOM      1  C1  MOL d          23.507  35.999  41.728  0.00  0.00     0.096 A 
ATOM      2  C2  MOL d          24.889  36.553  41.687  0.00  0.00    -0.012 A 
ATOM      3  C3  MOL d          23.260  35.739  40.258  0.00  0.00     0.237 A 
ATOM      4  C4  MOL d          23.466  34.681  42.457  0.00  0.00    -0.021 C 
ATOM      5  C5  MOL d          22.455  36.892  42.353  0.00  0.00     0.101 C 
ATOM      6  C6  MOL d          25.370  36.562  40.412  0.00  0.00     0.042 A 
ATOM      7  C7  MOL d          25.662  37.011  42.713  0.00  0.00    -0.073 A 
ATOM      8  N1  MOL d          24.406  36.068  39.539  0.00  0.00    -0.326 N 
ATOM      9  O1  MOL d          22.260  35.154  39.856  0.00  0.00    -0.272 OA
ATOM     10  C8  MOL d          22.135  34.638  43.175  0.00  0.00     0.083 C 
ATOM     11  N2  MOL d          21.834  36.064  43.436  0.00  0.00    -0.074 N 
ATOM     12  C9  MOL d          26.639  36.994  40.111  0.00  0.00    -0.057 A 
ATOM     13  C10 MOL d          26.941  37.457  42.437  0.00  0.00    -0.082 A 
ATOM     14  C11 MOL d          27.416  37.458  41.144  0.00  0.00    -0.081 A 
ATOM     15  H1  MOL d          24.293  34.619  43.180  0.00  0.00     0.037 H 
ATOM     16  H2  MOL d          23.541  33.848  41.743  0.00  0.00     0.037 H 
ATOM     17  H3  MOL d          21.699  37.180  41.607  0.00  0.00     0.078 H 
ATOM     18  H4  MOL d          22.916  37.797  42.776  0.00  0.00     0.078 H 
ATOM     19  H5  MOL d          25.279  37.025  43.727  0.00  0.00     0.084 H 
ATOM     20  H6  MOL d          24.519  35.966  38.551  0.00  0.00     0.169 HD
ATOM     21  H7  MOL d          22.215  34.075  44.117  0.00  0.00     0.075 H 
ATOM     22  H8  MOL d          21.361  34.184  42.541  0.00  0.00     0.075 H 
ATOM     23  H9  MOL d          20.837  36.205  43.441  0.00  0.00     0.277 HD
ATOM     24  H10 MOL d          22.216  36.333  44.329  0.00  0.00     0.277 HD
ATOM     25  H11 MOL d          27.013  36.969  39.094  0.00  0.00     0.086 H 
ATOM     26  H12 MOL d          27.573  37.808  43.243  0.00  0.00     0.083 H 
ATOM     27  H13 MOL d          28.414  37.828  40.940  0.00  0.00     0.083 H 
ENDROOT
TORSDOF 0
ENDMDL
MODEL 6
REMARK VINA RESULT:      -4.8      1.996      2.583
REMARK  0 active torsions:
REMARK  status: ('A' for Active; 'I' for Inactive)
ROOT
ATOM      1  C1  MOL d          22.356  36.427  41.667  0.00  0.00     0.096 A 
ATOM      2  C2  MOL d          23.817  36.178  41.528  0.00  0.00    -0.012 A 
ATOM      3  C3  MOL d          22.199  37.680  40.833  0.00  0.00     0.237 A 
ATOM      4  C4  MOL d          21.549  35.327  41.025  0.00  0.00    -0.021 C 
ATOM      5  C5  MOL d          21.844  36.593  43.083  0.00  0.00     0.101 C 
ATOM      6  C6  MOL d          24.392  37.106  40.712  0.00  0.00     0.042 A 
ATOM      7  C7  MOL d          24.578  35.193  42.086  0.00  0.00    -0.073 A 
ATOM      8  N1  MOL d          23.432  38.014  40.278  0.00  0.00    -0.326 N 
ATOM      9  O1  MOL d          21.102  38.163  40.577  0.00  0.00    -0.272 OA
ATOM     10  C8  MOL d          20.308  35.165  41.875  0.00  0.00     0.083 C 
ATOM     11  N2  MOL d          20.754  35.576  43.225  0.00  0.00    -0.074 N 
ATOM     12  C9  MOL d          25.728  37.076  40.394  0.00  0.00    -0.057 A 
ATOM     13  C10 MOL d          25.927  35.143  41.787  0.00  0.00    -0.082 A 
ATOM     14  C11 MOL d          26.495  36.085  40.959  0.00  0.00    -0.081 A 
ATOM     15  H1  MOL d          22.126  34.390  41.010  0.00  0.00     0.037 H 
ATOM     16  H2  MOL d          21.274  35.605  39.997  0.00  0.00     0.037 H 
ATOM     17  H3  MOL d          21.447  37.608  43.233  0.00  0.00     0.078 H 
ATOM     18  H4  MOL d          22.648  36.402  43.809  0.00  0.00     0.078 H 
ATOM     19  H5  MOL d          24.132  34.463  42.751  0.00  0.00     0.084 H 
ATOM     20  H6  MOL d          23.601  38.785  39.663  0.00  0.00     0.169 HD
ATOM     21  H7  MOL d          19.966  34.120  41.875  0.00  0.00     0.075 H 
ATOM     22  H8  MOL d          19.498  35.816  41.515  0.00  0.00     0.075 H 
ATOM     23  H9  MOL d          19.981  35.977  43.731  0.00  0.00     0.277 HD
ATOM     24  H10 MOL d          21.103  34.774  43.726  0.00  0.00     0.277 HD
ATOM     25  H11 MOL d          26.163  37.807  39.722  0.00  0.00     0.086 H 
ATOM     26  H12 MOL d          26.542  34.356  42.209  0.00  0.00     0.083 H 
ATOM     27  H13 MOL d          27.558  36.044  40.749  0.00  0.00     0.083 H 
ENDROOT
TORSDOF 0
ENDMDL
