MODEL 1
REMARK VINA RESULT:      -7.4      0.000      0.000
REMARK  2 active torsions:
REMARK  status: ('A' for Active; 'I' for Inactive)
REMARK    1  A    between atoms: C6_1  and  N4_2 
REMARK    2  A    between atoms: C8_7  and  N2_8 
ROOT
ATOM      1  C6  DQU d          18.265  16.761  19.164  0.00  0.00     0.026 C 
ATOM      2  C1  DQU d          16.955  16.464  18.775  0.00  0.00    -0.056 C 
ATOM      3  C2  DQU d          15.972  16.261  19.720  0.00  0.00    -0.051 C 
ATOM      4  C3  DQU d          16.267  16.488  21.083  0.00  0.00     0.091 A 
ATOM      5  N3  DQU d          15.278  16.407  22.040  0.00  0.00    -0.064 NA
ATOM      6  C8  DQU d          15.521  16.580  23.311  0.00  0.00     0.701 A 
ATOM      7  N1  DQU d          16.795  16.958  23.794  0.00  0.00    -0.154 N 
ATOM      8  C7  DQU d          17.838  17.136  22.861  0.00  0.00     0.272 A 
ATOM      9  O1  DQU d          18.999  17.355  23.239  0.00  0.00    -0.267 OA
ATOM     10  C4  DQU d          17.564  16.902  21.450  0.00  0.00     0.064 A 
ATOM     11  C5  DQU d          18.536  17.084  20.473  0.00  0.00    -0.040 C 
ATOM     12  H3  DQU d          16.710  16.392  17.722  0.00  0.00     0.087 H 
ATOM     13  H4  DQU d          14.984  15.930  19.420  0.00  0.00     0.087 H 
ATOM     14  H7  DQU d          16.954  17.095  24.772  0.00  0.00     0.187 HD
ATOM     15  H8  DQU d          19.507  17.482  20.743  0.00  0.00     0.088 H 
ENDROOT
BRANCH   1  16
ATOM     16  N4  DQU d          19.284  17.047  18.106  0.00  0.00    -0.399 N 
ATOM     17  H1  DQU d          20.287  16.959  18.319  0.00  0.00     0.156 HD
ATOM     18  H2  DQU d          18.981  17.333  17.163  0.00  0.00     0.156 HD
ENDBRANCH   1  16
BRANCH   6  19
ATOM     19  N2  DQU d          14.533  16.467  24.285  0.00  0.00    -0.233 N 
ATOM     20  H5  DQU d          14.761  16.649  25.273  0.00  0.00     0.174 HD
ATOM     21  H6  DQU d          13.574  16.201  24.018  0.00  0.00     0.174 HD
ENDBRANCH   6  19
TORSDOF 2
ENDMDL
MODEL 2
REMARK VINA RESULT:      -6.8      1.933      4.972
REMARK  2 active torsions:
REMARK  status: ('A' for Active; 'I' for Inactive)
REMARK    1  A    between atoms: C6_1  and  N4_2 
REMARK    2  A    between atoms: C8_7  and  N2_8 
ROOT
ATOM      1  C6  DQU d          16.135  16.494  22.985  0.00  0.00     0.026 C 
ATOM      2  C1  DQU d          17.451  16.891  23.244  0.00  0.00    -0.056 C 
ATOM      3  C2  DQU d          18.363  17.010  22.217  0.00  0.00    -0.051 C 
ATOM      4  C3  DQU d          17.923  16.861  20.882  0.00  0.00     0.091 A 
ATOM      5  N3  DQU d          18.782  17.088  19.828  0.00  0.00    -0.064 NA
ATOM      6  C8  DQU d          18.419  16.928  18.584  0.00  0.00     0.701 A 
ATOM      7  N1  DQU d          17.091  16.604  18.219  0.00  0.00    -0.154 N 
ATOM      8  C7  DQU d          16.138  16.434  19.245  0.00  0.00     0.272 A 
ATOM      9  O1  DQU d          14.990  16.039  18.987  0.00  0.00    -0.267 OA
ATOM     10  C4  DQU d          16.565  16.576  20.630  0.00  0.00     0.064 A 
ATOM     11  C5  DQU d          15.675  16.449  21.690  0.00  0.00    -0.040 C 
ATOM     12  H3  DQU d          17.758  17.106  24.261  0.00  0.00     0.087 H 
ATOM     13  H4  DQU d          19.405  17.217  22.430  0.00  0.00     0.087 H 
ATOM     14  H7  DQU d          16.835  16.498  17.258  0.00  0.00     0.187 HD
ATOM     15  H8  DQU d          14.617  16.314  21.496  0.00  0.00     0.088 H 
ENDROOT
BRANCH   1  16
ATOM     16  N4  DQU d          15.160  16.450  24.118  0.00  0.00    -0.399 N 
ATOM     17  H1  DQU d          14.417  15.737  24.131  0.00  0.00     0.156 HD
ATOM     18  H2  DQU d          15.231  17.132  24.887  0.00  0.00     0.156 HD
ENDBRANCH   1  16
BRANCH   6  19
ATOM     19  N2  DQU d          19.290  17.124  17.517  0.00  0.00    -0.233 N 
ATOM     20  H5  DQU d          18.986  16.911  16.557  0.00  0.00     0.174 HD
ATOM     21  H6  DQU d          20.241  17.483  17.688  0.00  0.00     0.174 HD
ENDBRANCH   6  19
TORSDOF 2
ENDMDL
MODEL 3
REMARK VINA RESULT:      -5.3      1.862      2.660
REMARK  2 active torsions:
REMARK  status: ('A' for Active; 'I' for Inactive)
REMARK    1  A    between atoms: C6_1  and  N4_2 
REMARK    2  A    between atoms: C8_7  and  N2_8 
ROOT
ATOM      1  C6  DQU d          18.780  17.105  18.599  0.00  0.00     0.026 C 
ATOM      2  C1  DQU d          19.628  17.296  19.695  0.00  0.00    -0.056 C 
ATOM      3  C2  DQU d          19.128  17.285  20.979  0.00  0.00    -0.051 C 
ATOM      4  C3  DQU d          17.772  16.945  21.189  0.00  0.00     0.091 A 
ATOM      5  N3  DQU d          17.270  16.811  22.466  0.00  0.00    -0.064 NA
ATOM      6  C8  DQU d          16.016  16.529  22.697  0.00  0.00     0.701 A 
ATOM      7  N1  DQU d          15.100  16.244  21.658  0.00  0.00    -0.154 N 
ATOM      8  C7  DQU d          15.566  16.285  20.327  0.00  0.00     0.272 A 
ATOM      9  O1  DQU d          14.781  16.155  19.374  0.00  0.00    -0.267 OA
ATOM     10  C4  DQU d          16.956  16.640  20.081  0.00  0.00     0.064 A 
ATOM     11  C5  DQU d          17.490  16.673  18.797  0.00  0.00    -0.040 C 
ATOM     12  H3  DQU d          20.688  17.454  19.534  0.00  0.00     0.087 H 
ATOM     13  H4  DQU d          19.766  17.535  21.819  0.00  0.00     0.087 H 
ATOM     14  H7  DQU d          14.147  16.020  21.861  0.00  0.00     0.187 HD
ATOM     15  H8  DQU d          16.889  16.358  17.952  0.00  0.00     0.088 H 
ENDROOT
BRANCH   1  16
ATOM     16  N4  DQU d          19.376  17.050  17.228  0.00  0.00    -0.399 N 
ATOM     17  H1  DQU d          19.847  17.878  16.838  0.00  0.00     0.156 HD
ATOM     18  H2  DQU d          19.316  16.184  16.675  0.00  0.00     0.156 HD
ENDBRANCH   1  16
BRANCH   6  19
ATOM     19  N2  DQU d          15.495  16.425  23.984  0.00  0.00    -0.233 N 
ATOM     20  H5  DQU d          15.099  15.532  24.308  0.00  0.00     0.174 HD
ATOM     21  H6  DQU d          15.507  17.242  24.612  0.00  0.00     0.174 HD
ENDBRANCH   6  19
TORSDOF 2
ENDMDL
