MODEL 1
REMARK VINA RESULT:      -6.7      0.000      0.000
REMARK  17 active torsions:
REMARK  status: ('A' for Active; 'I' for Inactive)
REMARK    1  A    between atoms: C1_1  and  C2_4 
REMARK    2  A    between atoms: C2_4  and  C3_5 
REMARK    3  A    between atoms: C3_5  and  C4_6 
REMARK    4  A    between atoms: C4_6  and  C5_7 
REMARK    5  A    between atoms: C5_7  and  C6_8 
REMARK    6  A    between atoms: C6_8  and  C7_9 
REMARK    7  A    between atoms: C7_9  and  C8_10 
REMARK    8  A    between atoms: C8_10  and  C9_11 
REMARK    9  A    between atoms: C9_11  and  C10_12 
REMARK   10  A    between atoms: C10_12  and  C11_13 
REMARK   11  A    between atoms: C11_13  and  C12_14 
REMARK   12  A    between atoms: C12_14  and  C13_15 
REMARK   13  A    between atoms: C13_15  and  C14_16 
REMARK   14  A    between atoms: C14_16  and  C15_17 
REMARK   15  A    between atoms: C15_17  and  C16_18 
REMARK   16  A    between atoms: C16_18  and  C17_19 
REMARK   17  A    between atoms: C17_19  and  C18_20 
ROOT
ATOM      1  C10 STE d          -2.855  14.526  18.701  0.00  0.00    -0.065 C 
ATOM      2  H17 STE d          -1.845  14.096  18.780  0.00  0.00     0.033 H 
ATOM      3  H18 STE d          -3.144  14.963  19.669  0.00  0.00     0.033 H 
ENDROOT
BRANCH   1   4
ATOM      4  C9  STE d          -3.855  13.455  18.288  0.00  0.00    -0.065 C 
ATOM      5  H15 STE d          -4.835  13.673  18.737  0.00  0.00     0.033 H 
ATOM      6  H16 STE d          -3.948  13.441  17.192  0.00  0.00     0.033 H 
BRANCH   4   7
ATOM      7  C8  STE d          -3.362  12.101  18.773  0.00  0.00    -0.065 C 
ATOM      8  H13 STE d          -4.211  11.507  19.142  0.00  0.00     0.033 H 
ATOM      9  H14 STE d          -2.870  11.566  17.947  0.00  0.00     0.033 H 
BRANCH   7  10
ATOM     10  C7  STE d          -2.375  12.330  19.892  0.00  0.00    -0.065 C 
ATOM     11  H11 STE d          -2.046  13.379  19.870  0.00  0.00     0.033 H 
ATOM     12  H12 STE d          -2.869  12.121  20.853  0.00  0.00     0.033 H 
BRANCH  10  13
ATOM     13  C6  STE d          -1.158  11.425  19.752  0.00  0.00    -0.065 C 
ATOM     14  H9  STE d          -0.369  11.959  19.203  0.00  0.00     0.033 H 
ATOM     15  H10 STE d          -0.790  11.154  20.753  0.00  0.00     0.033 H 
BRANCH  13  16
ATOM     16  C5  STE d          -1.528  10.156  18.992  0.00  0.00    -0.065 C 
ATOM     17  H7  STE d          -2.543  10.270  18.583  0.00  0.00     0.033 H 
ATOM     18  H8  STE d          -0.814  10.017  18.167  0.00  0.00     0.033 H 
BRANCH  16  19
ATOM     19  C4  STE d          -1.496   8.924  19.881  0.00  0.00    -0.065 C 
ATOM     20  H5  STE d          -1.042   8.093  19.320  0.00  0.00     0.033 H 
ATOM     21  H6  STE d          -0.887   9.142  20.771  0.00  0.00     0.033 H 
BRANCH  19  22
ATOM     22  C3  STE d          -2.896   8.512  20.329  0.00  0.00    -0.056 C 
ATOM     23  H3  STE d          -2.846   7.508  20.777  0.00  0.00     0.033 H 
ATOM     24  H4  STE d          -3.255   9.230  21.081  0.00  0.00     0.033 H 
BRANCH  22  25
ATOM     25  C2  STE d          -3.875   8.486  19.159  0.00  0.00     0.016 C 
ATOM     26  H1  STE d          -4.223   9.507  18.948  0.00  0.00     0.049 H 
ATOM     27  H2  STE d          -3.375   8.077  18.269  0.00  0.00     0.049 H 
BRANCH  25  28
ATOM     28  C1  STE d          -5.050   7.616  19.522  0.00  0.00     0.172 C 
ATOM     29  O1  STE d          -6.198   8.019  19.211  0.00  0.00    -0.648 OA
ATOM     30  O2  STE d          -4.840   6.548  20.137  0.00  0.00    -0.648 OA
ENDBRANCH  25  28
ENDBRANCH  22  25
ENDBRANCH  19  22
ENDBRANCH  16  19
ENDBRANCH  13  16
ENDBRANCH  10  13
ENDBRANCH   7  10
ENDBRANCH   4   7
ENDBRANCH   1   4
BRANCH   1  31
ATOM     31  C11 STE d          -2.892  15.583  17.615  0.00  0.00    -0.065 C 
ATOM     32  H19 STE d          -1.927  15.610  17.089  0.00  0.00     0.033 H 
ATOM     33  H20 STE d          -3.094  16.568  18.061  0.00  0.00     0.033 H 
BRANCH  31  34
ATOM     34  C12 STE d          -3.993  15.225  16.644  0.00  0.00    -0.065 C 
ATOM     35  H21 STE d          -4.950  15.637  16.998  0.00  0.00     0.033 H 
ATOM     36  H22 STE d          -4.074  14.132  16.559  0.00  0.00     0.033 H 
BRANCH  34  37
ATOM     37  C13 STE d          -3.650  15.814  15.306  0.00  0.00    -0.065 C 
ATOM     38  H23 STE d          -2.933  15.154  14.798  0.00  0.00     0.033 H 
ATOM     39  H24 STE d          -3.195  16.804  15.458  0.00  0.00     0.033 H 
BRANCH  37  40
ATOM     40  C14 STE d          -4.885  15.965  14.436  0.00  0.00    -0.065 C 
ATOM     41  H25 STE d          -5.695  15.349  14.854  0.00  0.00     0.033 H 
ATOM     42  H26 STE d          -4.651  15.619  13.418  0.00  0.00     0.033 H 
BRANCH  40  43
ATOM     43  C15 STE d          -5.350  17.419  14.372  0.00  0.00    -0.065 C 
ATOM     44  H27 STE d          -6.108  17.606  15.146  0.00  0.00     0.033 H 
ATOM     45  H28 STE d          -5.777  17.634  13.381  0.00  0.00     0.033 H 
BRANCH  43  46
ATOM     46  C16 STE d          -4.137  18.295  14.613  0.00  0.00    -0.065 C 
ATOM     47  H29 STE d          -3.841  18.757  13.659  0.00  0.00     0.033 H 
ATOM     48  H30 STE d          -3.316  17.664  14.985  0.00  0.00     0.033 H 
BRANCH  46  49
ATOM     49  C17 STE d          -4.399  19.388  15.617  0.00  0.00    -0.069 C 
ATOM     50  H31 STE d          -5.321  19.915  15.331  0.00  0.00     0.032 H 
ATOM     51  H32 STE d          -3.554  20.091  15.601  0.00  0.00     0.032 H 
BRANCH  49  52
ATOM     52  C18 STE d          -4.561  18.857  17.026  0.00  0.00    -0.077 C 
ATOM     53  H33 STE d          -5.360  18.102  17.043  0.00  0.00     0.027 H 
ATOM     54  H34 STE d          -4.825  19.685  17.701  0.00  0.00     0.027 H 
ATOM     55  H35 STE d          -3.617  18.400  17.356  0.00  0.00     0.027 H 
ENDBRANCH  49  52
ENDBRANCH  46  49
ENDBRANCH  43  46
ENDBRANCH  40  43
ENDBRANCH  37  40
ENDBRANCH  34  37
ENDBRANCH  31  34
ENDBRANCH   1  31
TORSDOF 17
ENDMDL
MODEL 2
REMARK VINA RESULT:      -6.5      1.142      2.053
REMARK  17 active torsions:
REMARK  status: ('A' for Active; 'I' for Inactive)
REMARK    1  A    between atoms: C1_1  and  C2_4 
REMARK    2  A    between atoms: C2_4  and  C3_5 
REMARK    3  A    between atoms: C3_5  and  C4_6 
REMARK    4  A    between atoms: C4_6  and  C5_7 
REMARK    5  A    between atoms: C5_7  and  C6_8 
REMARK    6  A    between atoms: C6_8  and  C7_9 
REMARK    7  A    between atoms: C7_9  and  C8_10 
REMARK    8  A    between atoms: C8_10  and  C9_11 
REMARK    9  A    between atoms: C9_11  and  C10_12 
REMARK   10  A    between atoms: C10_12  and  C11_13 
REMARK   11  A    between atoms: C11_13  and  C12_14 
REMARK   12  A    between atoms: C12_14  and  C13_15 
REMARK   13  A    between atoms: C13_15  and  C14_16 
REMARK   14  A    between atoms: C14_16  and  C15_17 
REMARK   15  A    between atoms: C15_17  and  C16_18 
REMARK   16  A    between atoms: C16_18  and  C17_19 
REMARK   17  A    between atoms: C17_19  and  C18_20 
ROOT
ATOM      1  C10 STE d          -2.370  14.283  19.225  0.00  0.00    -0.065 C 
ATOM      2  H17 STE d          -1.412  13.748  19.302  0.00  0.00     0.033 H 
ATOM      3  H18 STE d          -2.673  14.640  20.221  0.00  0.00     0.033 H 
ENDROOT
BRANCH   1   4
ATOM      4  C9  STE d          -3.441  13.369  18.646  0.00  0.00    -0.065 C 
ATOM      5  H15 STE d          -4.437  13.759  18.902  0.00  0.00     0.033 H 
ATOM      6  H16 STE d          -3.335  13.324  17.552  0.00  0.00     0.033 H 
BRANCH   4   7
ATOM      7  C8  STE d          -3.274  11.976  19.231  0.00  0.00    -0.065 C 
ATOM      8  H13 STE d          -2.537  12.001  20.046  0.00  0.00     0.033 H 
ATOM      9  H14 STE d          -4.239  11.618  19.619  0.00  0.00     0.033 H 
BRANCH   7  10
ATOM     10  C7  STE d          -2.793  11.057  18.135  0.00  0.00    -0.065 C 
ATOM     11  H11 STE d          -3.570  10.306  17.930  0.00  0.00     0.033 H 
ATOM     12  H12 STE d          -2.606  11.649  17.227  0.00  0.00     0.033 H 
BRANCH  10  13
ATOM     13  C6  STE d          -1.508  10.343  18.535  0.00  0.00    -0.065 C 
ATOM     14  H9  STE d          -1.310   9.526  17.826  0.00  0.00     0.033 H 
ATOM     15  H10 STE d          -0.672  11.059  18.511  0.00  0.00     0.033 H 
BRANCH  13  16
ATOM     16  C5  STE d          -1.638   9.768  19.941  0.00  0.00    -0.065 C 
ATOM     17  H7  STE d          -0.943  10.301  20.607  0.00  0.00     0.033 H 
ATOM     18  H8  STE d          -2.670   9.919  20.291  0.00  0.00     0.033 H 
BRANCH  16  19
ATOM     19  C4  STE d          -1.317   8.283  19.987  0.00  0.00    -0.065 C 
ATOM     20  H5  STE d          -1.169   7.920  18.959  0.00  0.00     0.033 H 
ATOM     21  H6  STE d          -0.392   8.136  20.564  0.00  0.00     0.033 H 
BRANCH  19  22
ATOM     22  C3  STE d          -2.439   7.481  20.640  0.00  0.00    -0.056 C 
ATOM     23  H3  STE d          -2.258   6.409  20.469  0.00  0.00     0.033 H 
ATOM     24  H4  STE d          -2.441   7.684  21.721  0.00  0.00     0.033 H 
BRANCH  22  25
ATOM     25  C2  STE d          -3.803   7.852  20.063  0.00  0.00     0.016 C 
ATOM     26  H1  STE d          -4.472   8.171  20.875  0.00  0.00     0.049 H 
ATOM     27  H2  STE d          -3.686   8.673  19.340  0.00  0.00     0.049 H 
BRANCH  25  28
ATOM     28  C1  STE d          -4.387   6.648  19.371  0.00  0.00     0.172 C 
ATOM     29  O1  STE d          -4.383   6.631  18.115  0.00  0.00    -0.648 OA
ATOM     30  O2  STE d          -4.874   5.732  20.069  0.00  0.00    -0.648 OA
ENDBRANCH  25  28
ENDBRANCH  22  25
ENDBRANCH  19  22
ENDBRANCH  16  19
ENDBRANCH  13  16
ENDBRANCH  10  13
ENDBRANCH   7  10
ENDBRANCH   4   7
ENDBRANCH   1   4
BRANCH   1  31
ATOM     31  C11 STE d          -2.244  15.450  18.266  0.00  0.00    -0.065 C 
ATOM     32  H19 STE d          -1.765  15.115  17.334  0.00  0.00     0.033 H 
ATOM     33  H20 STE d          -1.638  16.245  18.724  0.00  0.00     0.033 H 
BRANCH  31  34
ATOM     34  C12 STE d          -3.631  15.971  17.968  0.00  0.00    -0.065 C 
ATOM     35  H21 STE d          -4.344  15.572  18.705  0.00  0.00     0.033 H 
ATOM     36  H22 STE d          -3.936  15.661  16.958  0.00  0.00     0.033 H 
BRANCH  34  37
ATOM     37  C13 STE d          -3.598  17.469  18.052  0.00  0.00    -0.065 C 
ATOM     38  H23 STE d          -2.598  17.822  17.760  0.00  0.00     0.033 H 
ATOM     39  H24 STE d          -3.808  17.774  19.088  0.00  0.00     0.033 H 
BRANCH  37  40
ATOM     40  C14 STE d          -4.632  18.097  17.133  0.00  0.00    -0.065 C 
ATOM     41  H25 STE d          -4.668  19.179  17.322  0.00  0.00     0.033 H 
ATOM     42  H26 STE d          -5.616  17.655  17.347  0.00  0.00     0.033 H 
BRANCH  40  43
ATOM     43  C15 STE d          -4.290  17.860  15.663  0.00  0.00    -0.065 C 
ATOM     44  H27 STE d          -3.514  17.084  15.578  0.00  0.00     0.033 H 
ATOM     45  H28 STE d          -3.927  18.792  15.207  0.00  0.00     0.033 H 
BRANCH  43  46
ATOM     46  C16 STE d          -5.556  17.404  14.969  0.00  0.00    -0.065 C 
ATOM     47  H29 STE d          -5.838  18.158  14.219  0.00  0.00     0.033 H 
ATOM     48  H30 STE d          -6.357  17.316  15.719  0.00  0.00     0.033 H 
BRANCH  46  49
ATOM     49  C17 STE d          -5.396  16.074  14.278  0.00  0.00    -0.069 C 
ATOM     50  H31 STE d          -5.248  16.252  13.202  0.00  0.00     0.032 H 
ATOM     51  H32 STE d          -6.311  15.484  14.430  0.00  0.00     0.032 H 
BRANCH  49  52
ATOM     52  C18 STE d          -4.217  15.284  14.805  0.00  0.00    -0.077 C 
ATOM     53  H33 STE d          -4.545  14.266  15.062  0.00  0.00     0.027 H 
ATOM     54  H34 STE d          -3.816  15.777  15.702  0.00  0.00     0.027 H 
ATOM     55  H35 STE d          -3.435  15.233  14.033  0.00  0.00     0.027 H 
ENDBRANCH  49  52
ENDBRANCH  46  49
ENDBRANCH  43  46
ENDBRANCH  40  43
ENDBRANCH  37  40
ENDBRANCH  34  37
ENDBRANCH  31  34
ENDBRANCH   1  31
TORSDOF 17
ENDMDL
MODEL 3
REMARK VINA RESULT:      -6.3      1.405      2.699
REMARK  17 active torsions:
REMARK  status: ('A' for Active; 'I' for Inactive)
REMARK    1  A    between atoms: C1_1  and  C2_4 
REMARK    2  A    between atoms: C2_4  and  C3_5 
REMARK    3  A    between atoms: C3_5  and  C4_6 
REMARK    4  A    between atoms: C4_6  and  C5_7 
REMARK    5  A    between atoms: C5_7  and  C6_8 
REMARK    6  A    between atoms: C6_8  and  C7_9 
REMARK    7  A    between atoms: C7_9  and  C8_10 
REMARK    8  A    between atoms: C8_10  and  C9_11 
REMARK    9  A    between atoms: C9_11  and  C10_12 
REMARK   10  A    between atoms: C10_12  and  C11_13 
REMARK   11  A    between atoms: C11_13  and  C12_14 
REMARK   12  A    between atoms: C12_14  and  C13_15 
REMARK   13  A    between atoms: C13_15  and  C14_16 
REMARK   14  A    between atoms: C14_16  and  C15_17 
REMARK   15  A    between atoms: C15_17  and  C16_18 
REMARK   16  A    between atoms: C16_18  and  C17_19 
REMARK   17  A    between atoms: C17_19  and  C18_20 
ROOT
ATOM      1  C10 STE d          -2.395  13.438  18.927  0.00  0.00    -0.065 C 
ATOM      2  H17 STE d          -1.743  13.089  18.112  0.00  0.00     0.033 H 
ATOM      3  H18 STE d          -2.136  14.476  19.184  0.00  0.00     0.033 H 
ENDROOT
BRANCH   1   4
ATOM      4  C9  STE d          -2.243  12.539  20.146  0.00  0.00    -0.065 C 
ATOM      5  H15 STE d          -2.041  13.156  21.036  0.00  0.00     0.033 H 
ATOM      6  H16 STE d          -3.169  11.967  20.300  0.00  0.00     0.033 H 
BRANCH   4   7
ATOM      7  C8  STE d          -1.085  11.582  19.917  0.00  0.00    -0.065 C 
ATOM      8  H13 STE d          -0.236  12.124  19.474  0.00  0.00     0.033 H 
ATOM      9  H14 STE d          -0.777  11.135  20.874  0.00  0.00     0.033 H 
BRANCH   7  10
ATOM     10  C7  STE d          -1.546  10.498  18.973  0.00  0.00    -0.065 C 
ATOM     11  H11 STE d          -2.567  10.729  18.634  0.00  0.00     0.033 H 
ATOM     12  H12 STE d          -0.870  10.468  18.106  0.00  0.00     0.033 H 
BRANCH  10  13
ATOM     13  C6  STE d          -1.545   9.135  19.651  0.00  0.00    -0.065 C 
ATOM     14  H9  STE d          -1.250   8.366  18.922  0.00  0.00     0.033 H 
ATOM     15  H10 STE d          -0.827   9.144  20.485  0.00  0.00     0.033 H 
BRANCH  13  16
ATOM     16  C5  STE d          -2.935   8.811  20.188  0.00  0.00    -0.065 C 
ATOM     17  H7  STE d          -2.969   9.061  21.259  0.00  0.00     0.033 H 
ATOM     18  H8  STE d          -3.675   9.419  19.646  0.00  0.00     0.033 H 
BRANCH  16  19
ATOM     19  C4  STE d          -3.289   7.343  20.018  0.00  0.00    -0.065 C 
ATOM     20  H5  STE d          -2.382   6.789  19.736  0.00  0.00     0.033 H 
ATOM     21  H6  STE d          -3.674   6.956  20.973  0.00  0.00     0.033 H 
BRANCH  19  22
ATOM     22  C3  STE d          -4.350   7.138  18.940  0.00  0.00    -0.056 C 
ATOM     23  H3  STE d          -4.617   8.115  18.511  0.00  0.00     0.033 H 
ATOM     24  H4  STE d          -3.937   6.492  18.150  0.00  0.00     0.033 H 
BRANCH  22  25
ATOM     25  C2  STE d          -5.608   6.484  19.506  0.00  0.00     0.016 C 
ATOM     26  H1  STE d          -5.476   6.305  20.583  0.00  0.00     0.049 H 
ATOM     27  H2  STE d          -6.471   7.148  19.348  0.00  0.00     0.049 H 
BRANCH  25  28
ATOM     28  C1  STE d          -5.841   5.174  18.801  0.00  0.00     0.172 C 
ATOM     29  O1  STE d          -5.493   4.120  19.387  0.00  0.00    -0.648 OA
ATOM     30  O2  STE d          -6.344   5.190  17.656  0.00  0.00    -0.648 OA
ENDBRANCH  25  28
ENDBRANCH  22  25
ENDBRANCH  19  22
ENDBRANCH  16  19
ENDBRANCH  13  16
ENDBRANCH  10  13
ENDBRANCH   7  10
ENDBRANCH   4   7
ENDBRANCH   1   4
BRANCH   1  31
ATOM     31  C11 STE d          -3.849  13.347  18.511  0.00  0.00    -0.065 C 
ATOM     32  H19 STE d          -4.482  13.207  19.399  0.00  0.00     0.033 H 
ATOM     33  H20 STE d          -3.988  12.499  17.824  0.00  0.00     0.033 H 
BRANCH  31  34
ATOM     34  C12 STE d          -4.224  14.635  17.815  0.00  0.00    -0.065 C 
ATOM     35  H21 STE d          -5.110  15.074  18.296  0.00  0.00     0.033 H 
ATOM     36  H22 STE d          -4.443  14.435  16.756  0.00  0.00     0.033 H 
BRANCH  34  37
ATOM     37  C13 STE d          -3.065  15.583  17.924  0.00  0.00    -0.065 C 
ATOM     38  H23 STE d          -2.387  15.419  17.073  0.00  0.00     0.033 H 
ATOM     39  H24 STE d          -2.530  15.387  18.864  0.00  0.00     0.033 H 
BRANCH  37  40
ATOM     40  C14 STE d          -3.531  17.028  17.912  0.00  0.00    -0.065 C 
ATOM     41  H25 STE d          -2.724  17.661  17.513  0.00  0.00     0.033 H 
ATOM     42  H26 STE d          -3.764  17.338  18.942  0.00  0.00     0.033 H 
BRANCH  40  43
ATOM     43  C15 STE d          -4.777  17.207  17.046  0.00  0.00    -0.065 C 
ATOM     44  H27 STE d          -5.474  17.907  17.530  0.00  0.00     0.033 H 
ATOM     45  H28 STE d          -5.275  16.238  16.899  0.00  0.00     0.033 H 
BRANCH  43  46
ATOM     46  C16 STE d          -4.327  17.765  15.711  0.00  0.00    -0.065 C 
ATOM     47  H29 STE d          -3.278  17.477  15.545  0.00  0.00     0.033 H 
ATOM     48  H30 STE d          -4.405  18.862  15.744  0.00  0.00     0.033 H 
BRANCH  46  49
ATOM     49  C17 STE d          -5.155  17.258  14.559  0.00  0.00    -0.069 C 
ATOM     50  H31 STE d          -4.899  17.837  13.659  0.00  0.00     0.032 H 
ATOM     51  H32 STE d          -6.219  17.402  14.798  0.00  0.00     0.032 H 
BRANCH  49  52
ATOM     52  C18 STE d          -4.917  15.790  14.274  0.00  0.00    -0.077 C 
ATOM     53  H33 STE d          -4.034  15.447  14.831  0.00  0.00     0.027 H 
ATOM     54  H34 STE d          -4.748  15.649  13.196  0.00  0.00     0.027 H 
ATOM     55  H35 STE d          -5.797  15.209  14.586  0.00  0.00     0.027 H 
ENDBRANCH  49  52
ENDBRANCH  46  49
ENDBRANCH  43  46
ENDBRANCH  40  43
ENDBRANCH  37  40
ENDBRANCH  34  37
ENDBRANCH  31  34
ENDBRANCH   1  31
TORSDOF 17
ENDMDL
MODEL 4
REMARK VINA RESULT:      -6.3      2.019      3.149
REMARK  17 active torsions:
REMARK  status: ('A' for Active; 'I' for Inactive)
REMARK    1  A    between atoms: C1_1  and  C2_4 
REMARK    2  A    between atoms: C2_4  and  C3_5 
REMARK    3  A    between atoms: C3_5  and  C4_6 
REMARK    4  A    between atoms: C4_6  and  C5_7 
REMARK    5  A    between atoms: C5_7  and  C6_8 
REMARK    6  A    between atoms: C6_8  and  C7_9 
REMARK    7  A    between atoms: C7_9  and  C8_10 
REMARK    8  A    between atoms: C8_10  and  C9_11 
REMARK    9  A    between atoms: C9_11  and  C10_12 
REMARK   10  A    between atoms: C10_12  and  C11_13 
REMARK   11  A    between atoms: C11_13  and  C12_14 
REMARK   12  A    between atoms: C12_14  and  C13_15 
REMARK   13  A    between atoms: C13_15  and  C14_16 
REMARK   14  A    between atoms: C14_16  and  C15_17 
REMARK   15  A    between atoms: C15_17  and  C16_18 
REMARK   16  A    between atoms: C16_18  and  C17_19 
REMARK   17  A    between atoms: C17_19  and  C18_20 
ROOT
ATOM      1  C10 STE d          -2.374  13.691  19.137  0.00  0.00    -0.065 C 
ATOM      2  H17 STE d          -1.546  13.777  18.418  0.00  0.00     0.033 H 
ATOM      3  H18 STE d          -2.394  14.581  19.783  0.00  0.00     0.033 H 
ENDROOT
BRANCH   1   4
ATOM      4  C9  STE d          -2.213  12.432  19.978  0.00  0.00    -0.065 C 
ATOM      5  H15 STE d          -2.088  12.709  21.036  0.00  0.00     0.033 H 
ATOM      6  H16 STE d          -3.106  11.799  19.869  0.00  0.00     0.033 H 
BRANCH   4   7
ATOM      7  C8  STE d          -0.987  11.670  19.503  0.00  0.00    -0.065 C 
ATOM      8  H13 STE d          -0.479  12.239  18.711  0.00  0.00     0.033 H 
ATOM      9  H14 STE d          -0.297  11.514  20.345  0.00  0.00     0.033 H 
BRANCH   7  10
ATOM     10  C7  STE d          -1.439  10.336  18.961  0.00  0.00    -0.065 C 
ATOM     11  H11 STE d          -1.955  10.495  18.002  0.00  0.00     0.033 H 
ATOM     12  H12 STE d          -0.558   9.697  18.802  0.00  0.00     0.033 H 
BRANCH  10  13
ATOM     13  C6  STE d          -2.390   9.639  19.926  0.00  0.00    -0.065 C 
ATOM     14  H9  STE d          -1.856   8.826  20.438  0.00  0.00     0.033 H 
ATOM     15  H10 STE d          -2.752  10.366  20.668  0.00  0.00     0.033 H 
BRANCH  13  16
ATOM     16  C5  STE d          -3.580   9.060  19.168  0.00  0.00    -0.065 C 
ATOM     17  H7  STE d          -4.493   9.581  19.491  0.00  0.00     0.033 H 
ATOM     18  H8  STE d          -3.427   9.222  18.091  0.00  0.00     0.033 H 
BRANCH  16  19
ATOM     19  C4  STE d          -3.752   7.571  19.420  0.00  0.00    -0.065 C 
ATOM     20  H5  STE d          -4.697   7.408  19.959  0.00  0.00     0.033 H 
ATOM     21  H6  STE d          -3.786   7.047  18.453  0.00  0.00     0.033 H 
BRANCH  19  22
ATOM     22  C3  STE d          -2.604   7.000  20.249  0.00  0.00    -0.056 C 
ATOM     23  H3  STE d          -1.664   7.123  19.691  0.00  0.00     0.033 H 
ATOM     24  H4  STE d          -2.541   7.553  21.198  0.00  0.00     0.033 H 
BRANCH  22  25
ATOM     25  C2  STE d          -2.812   5.519  20.551  0.00  0.00     0.016 C 
ATOM     26  H1  STE d          -3.576   5.406  21.334  0.00  0.00     0.049 H 
ATOM     27  H2  STE d          -3.142   5.000  19.639  0.00  0.00     0.049 H 
BRANCH  25  28
ATOM     28  C1  STE d          -1.511   4.927  21.027  0.00  0.00     0.172 C 
ATOM     29  O1  STE d          -0.474   5.626  20.921  0.00  0.00    -0.648 OA
ATOM     30  O2  STE d          -1.512   3.762  21.480  0.00  0.00    -0.648 OA
ENDBRANCH  25  28
ENDBRANCH  22  25
ENDBRANCH  19  22
ENDBRANCH  16  19
ENDBRANCH  13  16
ENDBRANCH  10  13
ENDBRANCH   7  10
ENDBRANCH   4   7
ENDBRANCH   1   4
BRANCH   1  31
ATOM     31  C11 STE d          -3.692  13.545  18.403  0.00  0.00    -0.065 C 
ATOM     32  H19 STE d          -4.481  13.250  19.109  0.00  0.00     0.033 H 
ATOM     33  H20 STE d          -3.598  12.782  17.617  0.00  0.00     0.033 H 
BRANCH  31  34
ATOM     34  C12 STE d          -4.037  14.879  17.781  0.00  0.00    -0.065 C 
ATOM     35  H21 STE d          -5.090  15.124  17.985  0.00  0.00     0.033 H 
ATOM     36  H22 STE d          -3.876  14.835  16.694  0.00  0.00     0.033 H 
BRANCH  34  37
ATOM     37  C13 STE d          -3.145  15.925  18.385  0.00  0.00    -0.065 C 
ATOM     38  H23 STE d          -2.097  15.669  18.169  0.00  0.00     0.033 H 
ATOM     39  H24 STE d          -3.303  15.943  19.473  0.00  0.00     0.033 H 
BRANCH  37  40
ATOM     40  C14 STE d          -3.445  17.301  17.818  0.00  0.00    -0.065 C 
ATOM     41  H25 STE d          -2.602  17.620  17.189  0.00  0.00     0.033 H 
ATOM     42  H26 STE d          -3.571  18.011  18.649  0.00  0.00     0.033 H 
BRANCH  40  43
ATOM     43  C15 STE d          -4.719  17.293  16.975  0.00  0.00    -0.065 C 
ATOM     44  H27 STE d          -5.507  17.872  17.479  0.00  0.00     0.033 H 
ATOM     45  H28 STE d          -5.063  16.260  16.824  0.00  0.00     0.033 H 
BRANCH  43  46
ATOM     46  C16 STE d          -4.385  17.927  15.640  0.00  0.00    -0.065 C 
ATOM     47  H29 STE d          -3.316  17.771  15.434  0.00  0.00     0.033 H 
ATOM     48  H30 STE d          -4.593  19.006  15.702  0.00  0.00     0.033 H 
BRANCH  46  49
ATOM     49  C17 STE d          -5.185  17.346  14.503  0.00  0.00    -0.069 C 
ATOM     50  H31 STE d          -4.946  17.902  13.584  0.00  0.00     0.032 H 
ATOM     51  H32 STE d          -6.255  17.458  14.731  0.00  0.00     0.032 H 
BRANCH  49  52
ATOM     52  C18 STE d          -4.890  15.879  14.274  0.00  0.00    -0.077 C 
ATOM     53  H33 STE d          -3.857  15.661  14.582  0.00  0.00     0.027 H 
ATOM     54  H34 STE d          -5.010  15.644  13.206  0.00  0.00     0.027 H 
ATOM     55  H35 STE d          -5.586  15.268  14.866  0.00  0.00     0.027 H 
ENDBRANCH  49  52
ENDBRANCH  46  49
ENDBRANCH  43  46
ENDBRANCH  40  43
ENDBRANCH  37  40
ENDBRANCH  34  37
ENDBRANCH  31  34
ENDBRANCH   1  31
TORSDOF 17
ENDMDL
MODEL 5
REMARK VINA RESULT:      -6.1      3.663      9.143
REMARK  17 active torsions:
REMARK  status: ('A' for Active; 'I' for Inactive)
REMARK    1  A    between atoms: C1_1  and  C2_4 
REMARK    2  A    between atoms: C2_4  and  C3_5 
REMARK    3  A    between atoms: C3_5  and  C4_6 
REMARK    4  A    between atoms: C4_6  and  C5_7 
REMARK    5  A    between atoms: C5_7  and  C6_8 
REMARK    6  A    between atoms: C6_8  and  C7_9 
REMARK    7  A    between atoms: C7_9  and  C8_10 
REMARK    8  A    between atoms: C8_10  and  C9_11 
REMARK    9  A    between atoms: C9_11  and  C10_12 
REMARK   10  A    between atoms: C10_12  and  C11_13 
REMARK   11  A    between atoms: C11_13  and  C12_14 
REMARK   12  A    between atoms: C12_14  and  C13_15 
REMARK   13  A    between atoms: C13_15  and  C14_16 
REMARK   14  A    between atoms: C14_16  and  C15_17 
REMARK   15  A    between atoms: C15_17  and  C16_18 
REMARK   16  A    between atoms: C16_18  and  C17_19 
REMARK   17  A    between atoms: C17_19  and  C18_20 
ROOT
ATOM      1  C10 STE d          -1.475  10.999  18.460  0.00  0.00    -0.065 C 
ATOM      2  H17 STE d          -0.432  11.022  18.111  0.00  0.00     0.033 H 
ATOM      3  H18 STE d          -2.110  11.557  17.755  0.00  0.00     0.033 H 
ENDROOT
BRANCH   1   4
ATOM      4  C9  STE d          -1.579  11.601  19.854  0.00  0.00    -0.065 C 
ATOM      5  H15 STE d          -2.154  10.925  20.505  0.00  0.00     0.033 H 
ATOM      6  H16 STE d          -0.571  11.743  20.271  0.00  0.00     0.033 H 
BRANCH   4   7
ATOM      7  C8  STE d          -2.286  12.944  19.764  0.00  0.00    -0.065 C 
ATOM      8  H13 STE d          -2.684  13.221  20.751  0.00  0.00     0.033 H 
ATOM      9  H14 STE d          -1.578  13.715  19.424  0.00  0.00     0.033 H 
BRANCH   7  10
ATOM     10  C7  STE d          -3.418  12.818  18.774  0.00  0.00    -0.065 C 
ATOM     11  H11 STE d          -3.152  12.062  18.020  0.00  0.00     0.033 H 
ATOM     12  H12 STE d          -4.326  12.500  19.308  0.00  0.00     0.033 H 
BRANCH  10  13
ATOM     13  C6  STE d          -3.692  14.142  18.074  0.00  0.00    -0.065 C 
ATOM     14  H9  STE d          -3.861  13.959  17.003  0.00  0.00     0.033 H 
ATOM     15  H10 STE d          -4.589  14.606  18.512  0.00  0.00     0.033 H 
BRANCH  13  16
ATOM     16  C5  STE d          -2.505  15.085  18.241  0.00  0.00    -0.065 C 
ATOM     17  H7  STE d          -1.980  14.831  19.173  0.00  0.00     0.033 H 
ATOM     18  H8  STE d          -1.824  14.950  17.388  0.00  0.00     0.033 H 
BRANCH  16  19
ATOM     19  C4  STE d          -2.932  16.542  18.302  0.00  0.00    -0.065 C 
ATOM     20  H5  STE d          -2.942  16.866  19.353  0.00  0.00     0.033 H 
ATOM     21  H6  STE d          -2.209  17.149  17.738  0.00  0.00     0.033 H 
BRANCH  19  22
ATOM     22  C3  STE d          -4.323  16.750  17.708  0.00  0.00    -0.056 C 
ATOM     23  H3  STE d          -4.503  15.981  16.942  0.00  0.00     0.033 H 
ATOM     24  H4  STE d          -5.071  16.652  18.508  0.00  0.00     0.033 H 
BRANCH  22  25
ATOM     25  C2  STE d          -4.459  18.129  17.067  0.00  0.00     0.016 C 
ATOM     26  H1  STE d          -5.338  18.642  17.482  0.00  0.00     0.049 H 
ATOM     27  H2  STE d          -3.556  18.722  17.275  0.00  0.00     0.049 H 
BRANCH  25  28
ATOM     28  C1  STE d          -4.625  17.965  15.579  0.00  0.00     0.172 C 
ATOM     29  O1  STE d          -5.502  17.165  15.170  0.00  0.00    -0.648 OA
ATOM     30  O2  STE d          -3.870  18.607  14.817  0.00  0.00    -0.648 OA
ENDBRANCH  25  28
ENDBRANCH  22  25
ENDBRANCH  19  22
ENDBRANCH  16  19
ENDBRANCH  13  16
ENDBRANCH  10  13
ENDBRANCH   7  10
ENDBRANCH   4   7
ENDBRANCH   1   4
BRANCH   1  31
ATOM     31  C11 STE d          -1.957   9.567  18.579  0.00  0.00    -0.065 C 
ATOM     32  H19 STE d          -1.522   8.959  17.772  0.00  0.00     0.033 H 
ATOM     33  H20 STE d          -3.055   9.536  18.509  0.00  0.00     0.033 H 
BRANCH  31  34
ATOM     34  C12 STE d          -1.515   9.029  19.920  0.00  0.00    -0.065 C 
ATOM     35  H21 STE d          -1.231   9.862  20.580  0.00  0.00     0.033 H 
ATOM     36  H22 STE d          -0.654   8.357  19.786  0.00  0.00     0.033 H 
BRANCH  34  37
ATOM     37  C13 STE d          -2.661   8.270  20.523  0.00  0.00    -0.065 C 
ATOM     38  H23 STE d          -3.056   8.839  21.379  0.00  0.00     0.033 H 
ATOM     39  H24 STE d          -2.300   7.291  20.869  0.00  0.00     0.033 H 
BRANCH  37  40
ATOM     40  C14 STE d          -3.776   8.059  19.514  0.00  0.00    -0.065 C 
ATOM     41  H25 STE d          -3.480   8.507  18.555  0.00  0.00     0.033 H 
ATOM     42  H26 STE d          -4.690   8.551  19.881  0.00  0.00     0.033 H 
BRANCH  40  43
ATOM     43  C15 STE d          -4.063   6.573  19.302  0.00  0.00    -0.065 C 
ATOM     44  H27 STE d          -4.565   6.157  20.187  0.00  0.00     0.033 H 
ATOM     45  H28 STE d          -3.123   6.031  19.124  0.00  0.00     0.033 H 
BRANCH  43  46
ATOM     46  C16 STE d          -4.966   6.453  18.091  0.00  0.00    -0.065 C 
ATOM     47  H29 STE d          -4.418   5.929  17.294  0.00  0.00     0.033 H 
ATOM     48  H30 STE d          -5.232   7.465  17.749  0.00  0.00     0.033 H 
BRANCH  46  49
ATOM     49  C17 STE d          -6.235   5.695  18.384  0.00  0.00    -0.069 C 
ATOM     50  H31 STE d          -6.352   4.902  17.630  0.00  0.00     0.032 H 
ATOM     51  H32 STE d          -7.084   6.390  18.320  0.00  0.00     0.032 H 
BRANCH  49  52
ATOM     52  C18 STE d          -6.230   5.061  19.758  0.00  0.00    -0.077 C 
ATOM     53  H33 STE d          -6.860   4.160  19.749  0.00  0.00     0.027 H 
ATOM     54  H34 STE d          -6.626   5.777  20.494  0.00  0.00     0.027 H 
ATOM     55  H35 STE d          -5.201   4.785  20.031  0.00  0.00     0.027 H 
ENDBRANCH  49  52
ENDBRANCH  46  49
ENDBRANCH  43  46
ENDBRANCH  40  43
ENDBRANCH  37  40
ENDBRANCH  34  37
ENDBRANCH  31  34
ENDBRANCH   1  31
TORSDOF 17
ENDMDL
MODEL 6
REMARK VINA RESULT:      -6.1      2.341      2.908
REMARK  17 active torsions:
REMARK  status: ('A' for Active; 'I' for Inactive)
REMARK    1  A    between atoms: C1_1  and  C2_4 
REMARK    2  A    between atoms: C2_4  and  C3_5 
REMARK    3  A    between atoms: C3_5  and  C4_6 
REMARK    4  A    between atoms: C4_6  and  C5_7 
REMARK    5  A    between atoms: C5_7  and  C6_8 
REMARK    6  A    between atoms: C6_8  and  C7_9 
REMARK    7  A    between atoms: C7_9  and  C8_10 
REMARK    8  A    between atoms: C8_10  and  C9_11 
REMARK    9  A    between atoms: C9_11  and  C10_12 
REMARK   10  A    between atoms: C10_12  and  C11_13 
REMARK   11  A    between atoms: C11_13  and  C12_14 
REMARK   12  A    between atoms: C12_14  and  C13_15 
REMARK   13  A    between atoms: C13_15  and  C14_16 
REMARK   14  A    between atoms: C14_16  and  C15_17 
REMARK   15  A    between atoms: C15_17  and  C16_18 
REMARK   16  A    between atoms: C16_18  and  C17_19 
REMARK   17  A    between atoms: C17_19  and  C18_20 
ROOT
ATOM      1  C10 STE d          -2.744  13.951  18.721  0.00  0.00    -0.065 C 
ATOM      2  H17 STE d          -1.855  13.931  18.073  0.00  0.00     0.033 H 
ATOM      3  H18 STE d          -2.630  14.743  19.476  0.00  0.00     0.033 H 
ENDROOT
BRANCH   1   4
ATOM      4  C9  STE d          -2.934  12.601  19.398  0.00  0.00    -0.065 C 
ATOM      5  H15 STE d          -2.104  12.420  20.098  0.00  0.00     0.033 H 
ATOM      6  H16 STE d          -3.886  12.594  19.948  0.00  0.00     0.033 H 
BRANCH   4   7
ATOM      7  C8  STE d          -2.951  11.511  18.338  0.00  0.00    -0.065 C 
ATOM      8  H13 STE d          -3.802  10.837  18.512  0.00  0.00     0.033 H 
ATOM      9  H14 STE d          -3.040  11.965  17.340  0.00  0.00     0.033 H 
BRANCH   7  10
ATOM     10  C7  STE d          -1.660  10.737  18.433  0.00  0.00    -0.065 C 
ATOM     11  H11 STE d          -1.660   9.945  17.670  0.00  0.00     0.033 H 
ATOM     12  H12 STE d          -0.818  11.421  18.251  0.00  0.00     0.033 H 
BRANCH  10  13
ATOM     13  C6  STE d          -1.494  10.101  19.807  0.00  0.00    -0.065 C 
ATOM     14  H9  STE d          -0.424  10.044  20.054  0.00  0.00     0.033 H 
ATOM     15  H10 STE d          -2.012  10.717  20.557  0.00  0.00     0.033 H 
BRANCH  13  16
ATOM     16  C5  STE d          -2.087   8.696  19.814  0.00  0.00    -0.065 C 
ATOM     17  H7  STE d          -2.999   8.700  20.429  0.00  0.00     0.033 H 
ATOM     18  H8  STE d          -2.343   8.415  18.781  0.00  0.00     0.033 H 
BRANCH  16  19
ATOM     19  C4  STE d          -1.122   7.667  20.378  0.00  0.00    -0.065 C 
ATOM     20  H5  STE d          -0.123   7.847  19.953  0.00  0.00     0.033 H 
ATOM     21  H6  STE d          -1.081   7.778  21.472  0.00  0.00     0.033 H 
BRANCH  19  22
ATOM     22  C3  STE d          -1.553   6.242  20.042  0.00  0.00    -0.056 C 
ATOM     23  H3  STE d          -2.275   5.900  20.798  0.00  0.00     0.033 H 
ATOM     24  H4  STE d          -2.031   6.238  19.051  0.00  0.00     0.033 H 
BRANCH  22  25
ATOM     25  C2  STE d          -0.364   5.285  20.023  0.00  0.00     0.016 C 
ATOM     26  H1  STE d          -0.125   5.015  18.984  0.00  0.00     0.049 H 
ATOM     27  H2  STE d           0.508   5.772  20.485  0.00  0.00     0.049 H 
BRANCH  25  28
ATOM     28  C1  STE d          -0.720   4.045  20.799  0.00  0.00     0.172 C 
ATOM     29  O1  STE d          -0.012   3.021  20.630  0.00  0.00    -0.648 OA
ATOM     30  O2  STE d          -1.715   4.074  21.555  0.00  0.00    -0.648 OA
ENDBRANCH  25  28
ENDBRANCH  22  25
ENDBRANCH  19  22
ENDBRANCH  16  19
ENDBRANCH  13  16
ENDBRANCH  10  13
ENDBRANCH   7  10
ENDBRANCH   4   7
ENDBRANCH   1   4
BRANCH   1  31
ATOM     31  C11 STE d          -3.991  14.190  17.894  0.00  0.00    -0.065 C 
ATOM     32  H19 STE d          -4.884  13.943  18.486  0.00  0.00     0.033 H 
ATOM     33  H20 STE d          -3.965  13.563  16.990  0.00  0.00     0.033 H 
BRANCH  31  34
ATOM     34  C12 STE d          -4.026  15.650  17.501  0.00  0.00    -0.065 C 
ATOM     35  H21 STE d          -3.493  16.250  18.253  0.00  0.00     0.033 H 
ATOM     36  H22 STE d          -5.069  15.991  17.430  0.00  0.00     0.033 H 
BRANCH  34  37
ATOM     37  C13 STE d          -3.352  15.794  16.167  0.00  0.00    -0.065 C 
ATOM     38  H23 STE d          -2.571  15.025  16.075  0.00  0.00     0.033 H 
ATOM     39  H24 STE d          -2.895  16.792  16.103  0.00  0.00     0.033 H 
BRANCH  37  40
ATOM     40  C14 STE d          -4.343  15.629  15.028  0.00  0.00    -0.065 C 
ATOM     41  H25 STE d          -5.094  14.879  15.312  0.00  0.00     0.033 H 
ATOM     42  H26 STE d          -3.804  15.286  14.131  0.00  0.00     0.033 H 
BRANCH  40  43
ATOM     43  C15 STE d          -5.051  16.945  14.708  0.00  0.00    -0.065 C 
ATOM     44  H27 STE d          -5.784  17.178  15.494  0.00  0.00     0.033 H 
ATOM     45  H28 STE d          -5.564  16.870  13.739  0.00  0.00     0.033 H 
BRANCH  43  46
ATOM     46  C16 STE d          -3.993  18.028  14.650  0.00  0.00    -0.065 C 
ATOM     47  H29 STE d          -3.763  18.240  13.595  0.00  0.00     0.033 H 
ATOM     48  H30 STE d          -3.087  17.662  15.156  0.00  0.00     0.033 H 
BRANCH  46  49
ATOM     49  C17 STE d          -4.433  19.308  15.314  0.00  0.00    -0.069 C 
ATOM     50  H31 STE d          -5.410  19.601  14.901  0.00  0.00     0.032 H 
ATOM     51  H32 STE d          -3.692  20.091  15.095  0.00  0.00     0.032 H 
BRANCH  49  52
ATOM     52  C18 STE d          -4.563  19.169  16.816  0.00  0.00    -0.077 C 
ATOM     53  H33 STE d          -4.048  20.008  17.307  0.00  0.00     0.027 H 
ATOM     54  H34 STE d          -4.107  18.221  17.137  0.00  0.00     0.027 H 
ATOM     55  H35 STE d          -5.626  19.179  17.094  0.00  0.00     0.027 H 
ENDBRANCH  49  52
ENDBRANCH  46  49
ENDBRANCH  43  46
ENDBRANCH  40  43
ENDBRANCH  37  40
ENDBRANCH  34  37
ENDBRANCH  31  34
ENDBRANCH   1  31
TORSDOF 17
ENDMDL
MODEL 7
REMARK VINA RESULT:      -6.0      3.903      9.025
REMARK  17 active torsions:
REMARK  status: ('A' for Active; 'I' for Inactive)
REMARK    1  A    between atoms: C1_1  and  C2_4 
REMARK    2  A    between atoms: C2_4  and  C3_5 
REMARK    3  A    between atoms: C3_5  and  C4_6 
REMARK    4  A    between atoms: C4_6  and  C5_7 
REMARK    5  A    between atoms: C5_7  and  C6_8 
REMARK    6  A    between atoms: C6_8  and  C7_9 
REMARK    7  A    between atoms: C7_9  and  C8_10 
REMARK    8  A    between atoms: C8_10  and  C9_11 
REMARK    9  A    between atoms: C9_11  and  C10_12 
REMARK   10  A    between atoms: C10_12  and  C11_13 
REMARK   11  A    between atoms: C11_13  and  C12_14 
REMARK   12  A    between atoms: C12_14  and  C13_15 
REMARK   13  A    between atoms: C13_15  and  C14_16 
REMARK   14  A    between atoms: C14_16  and  C15_17 
REMARK   15  A    between atoms: C15_17  and  C16_18 
REMARK   16  A    between atoms: C16_18  and  C17_19 
REMARK   17  A    between atoms: C17_19  and  C18_20 
ROOT
ATOM      1  C10 STE d          -2.135  12.435  20.358  0.00  0.00    -0.065 C 
ATOM      2  H17 STE d          -2.993  11.839  20.703  0.00  0.00     0.033 H 
ATOM      3  H18 STE d          -1.906  13.214  21.100  0.00  0.00     0.033 H 
ENDROOT
BRANCH   1   4
ATOM      4  C9  STE d          -2.441  13.067  19.007  0.00  0.00    -0.065 C 
ATOM      5  H15 STE d          -2.192  14.138  19.036  0.00  0.00     0.033 H 
ATOM      6  H16 STE d          -1.846  12.573  18.225  0.00  0.00     0.033 H 
BRANCH   4   7
ATOM      7  C8  STE d          -3.921  12.897  18.703  0.00  0.00    -0.065 C 
ATOM      8  H13 STE d          -4.087  11.938  18.190  0.00  0.00     0.033 H 
ATOM      9  H14 STE d          -4.498  12.918  19.639  0.00  0.00     0.033 H 
BRANCH   7  10
ATOM     10  C7  STE d          -4.355  14.034  17.811  0.00  0.00    -0.065 C 
ATOM     11  H11 STE d          -4.360  13.689  16.767  0.00  0.00     0.033 H 
ATOM     12  H12 STE d          -5.369  14.347  18.099  0.00  0.00     0.033 H 
BRANCH  10  13
ATOM     13  C6  STE d          -3.414  15.226  17.935  0.00  0.00    -0.065 C 
ATOM     14  H9  STE d          -3.928  16.040  18.467  0.00  0.00     0.033 H 
ATOM     15  H10 STE d          -2.519  14.925  18.499  0.00  0.00     0.033 H 
BRANCH  13  16
ATOM     16  C5  STE d          -2.996  15.715  16.552  0.00  0.00    -0.065 C 
ATOM     17  H7  STE d          -2.815  16.798  16.599  0.00  0.00     0.033 H 
ATOM     18  H8  STE d          -2.068  15.200  16.261  0.00  0.00     0.033 H 
BRANCH  16  19
ATOM     19  C4  STE d          -4.059  15.442  15.501  0.00  0.00    -0.065 C 
ATOM     20  H5  STE d          -3.646  14.754  14.748  0.00  0.00     0.033 H 
ATOM     21  H6  STE d          -4.929  14.975  15.986  0.00  0.00     0.033 H 
BRANCH  19  22
ATOM     22  C3  STE d          -4.509  16.724  14.805  0.00  0.00    -0.056 C 
ATOM     23  H3  STE d          -3.621  17.283  14.475  0.00  0.00     0.033 H 
ATOM     24  H4  STE d          -5.121  16.459  13.930  0.00  0.00     0.033 H 
BRANCH  22  25
ATOM     25  C2  STE d          -5.334  17.608  15.737  0.00  0.00     0.016 C 
ATOM     26  H1  STE d          -6.256  17.921  15.227  0.00  0.00     0.049 H 
ATOM     27  H2  STE d          -5.590  17.046  16.647  0.00  0.00     0.049 H 
BRANCH  25  28
ATOM     28  C1  STE d          -4.523  18.823  16.105  0.00  0.00     0.172 C 
ATOM     29  O1  STE d          -4.084  18.905  17.278  0.00  0.00    -0.648 OA
ATOM     30  O2  STE d          -4.343  19.709  15.240  0.00  0.00    -0.648 OA
ENDBRANCH  25  28
ENDBRANCH  22  25
ENDBRANCH  19  22
ENDBRANCH  16  19
ENDBRANCH  13  16
ENDBRANCH  10  13
ENDBRANCH   7  10
ENDBRANCH   4   7
ENDBRANCH   1   4
BRANCH   1  31
ATOM     31  C11 STE d          -0.929  11.542  20.145  0.00  0.00    -0.065 C 
ATOM     32  H19 STE d          -0.715  10.979  21.065  0.00  0.00     0.033 H 
ATOM     33  H20 STE d          -0.055  12.154  19.878  0.00  0.00     0.033 H 
BRANCH  31  34
ATOM     34  C12 STE d          -1.243  10.582  19.020  0.00  0.00    -0.065 C 
ATOM     35  H21 STE d          -0.362  10.469  18.371  0.00  0.00     0.033 H 
ATOM     36  H22 STE d          -2.087  10.966  18.429  0.00  0.00     0.033 H 
BRANCH  34  37
ATOM     37  C13 STE d          -1.605   9.255  19.621  0.00  0.00    -0.065 C 
ATOM     38  H23 STE d          -1.282   9.239  20.673  0.00  0.00     0.033 H 
ATOM     39  H24 STE d          -1.089   8.458  19.066  0.00  0.00     0.033 H 
BRANCH  37  40
ATOM     40  C14 STE d          -3.102   9.012  19.560  0.00  0.00    -0.065 C 
ATOM     41  H25 STE d          -3.378   8.731  18.534  0.00  0.00     0.033 H 
ATOM     42  H26 STE d          -3.628   9.937  19.840  0.00  0.00     0.033 H 
BRANCH  40  43
ATOM     43  C15 STE d          -3.526   7.893  20.512  0.00  0.00    -0.065 C 
ATOM     44  H27 STE d          -4.489   8.144  20.981  0.00  0.00     0.033 H 
ATOM     45  H28 STE d          -2.764   7.756  21.292  0.00  0.00     0.033 H 
BRANCH  43  46
ATOM     46  C16 STE d          -3.663   6.626  19.693  0.00  0.00    -0.065 C 
ATOM     47  H29 STE d          -4.289   5.913  20.250  0.00  0.00     0.033 H 
ATOM     48  H30 STE d          -2.661   6.196  19.542  0.00  0.00     0.033 H 
BRANCH  46  49
ATOM     49  C17 STE d          -4.291   6.870  18.345  0.00  0.00    -0.069 C 
ATOM     50  H31 STE d          -3.792   6.228  17.603  0.00  0.00     0.032 H 
ATOM     51  H32 STE d          -4.146   7.925  18.073  0.00  0.00     0.032 H 
BRANCH  49  52
ATOM     52  C18 STE d          -5.774   6.565  18.331  0.00  0.00    -0.077 C 
ATOM     53  H33 STE d          -6.240   6.973  19.240  0.00  0.00     0.027 H 
ATOM     54  H34 STE d          -5.924   5.476  18.300  0.00  0.00     0.027 H 
ATOM     55  H35 STE d          -6.234   7.025  17.445  0.00  0.00     0.027 H 
ENDBRANCH  49  52
ENDBRANCH  46  49
ENDBRANCH  43  46
ENDBRANCH  40  43
ENDBRANCH  37  40
ENDBRANCH  34  37
ENDBRANCH  31  34
ENDBRANCH   1  31
TORSDOF 17
ENDMDL
MODEL 8
REMARK VINA RESULT:      -6.0      2.119      3.543
REMARK  17 active torsions:
REMARK  status: ('A' for Active; 'I' for Inactive)
REMARK    1  A    between atoms: C1_1  and  C2_4 
REMARK    2  A    between atoms: C2_4  and  C3_5 
REMARK    3  A    between atoms: C3_5  and  C4_6 
REMARK    4  A    between atoms: C4_6  and  C5_7 
REMARK    5  A    between atoms: C5_7  and  C6_8 
REMARK    6  A    between atoms: C6_8  and  C7_9 
REMARK    7  A    between atoms: C7_9  and  C8_10 
REMARK    8  A    between atoms: C8_10  and  C9_11 
REMARK    9  A    between atoms: C9_11  and  C10_12 
REMARK   10  A    between atoms: C10_12  and  C11_13 
REMARK   11  A    between atoms: C11_13  and  C12_14 
REMARK   12  A    between atoms: C12_14  and  C13_15 
REMARK   13  A    between atoms: C13_15  and  C14_16 
REMARK   14  A    between atoms: C14_16  and  C15_17 
REMARK   15  A    between atoms: C15_17  and  C16_18 
REMARK   16  A    between atoms: C16_18  and  C17_19 
REMARK   17  A    between atoms: C17_19  and  C18_20 
ROOT
ATOM      1  C10 STE d          -2.053  12.705  19.533  0.00  0.00    -0.065 C 
ATOM      2  H17 STE d          -1.702  13.122  18.577  0.00  0.00     0.033 H 
ATOM      3  H18 STE d          -1.994  13.478  20.314  0.00  0.00     0.033 H 
ENDROOT
BRANCH   1   4
ATOM      4  C9  STE d          -1.212  11.497  19.922  0.00  0.00    -0.065 C 
ATOM      5  H15 STE d          -0.147  11.772  19.914  0.00  0.00     0.033 H 
ATOM      6  H16 STE d          -1.495  11.160  20.930  0.00  0.00     0.033 H 
BRANCH   4   7
ATOM      7  C8  STE d          -1.458  10.378  18.924  0.00  0.00    -0.065 C 
ATOM      8  H13 STE d          -2.454  10.493  18.474  0.00  0.00     0.033 H 
ATOM      9  H14 STE d          -0.692  10.409  18.134  0.00  0.00     0.033 H 
BRANCH   7  10
ATOM     10  C7  STE d          -1.379   9.062  19.659  0.00  0.00    -0.065 C 
ATOM     11  H11 STE d          -1.121   8.267  18.943  0.00  0.00     0.033 H 
ATOM     12  H12 STE d          -0.597   9.129  20.430  0.00  0.00     0.033 H 
BRANCH  10  13
ATOM     13  C6  STE d          -2.705   8.719  20.325  0.00  0.00    -0.065 C 
ATOM     14  H9  STE d          -2.533   7.968  21.110  0.00  0.00     0.033 H 
ATOM     15  H10 STE d          -3.132   9.628  20.774  0.00  0.00     0.033 H 
BRANCH  13  16
ATOM     16  C5  STE d          -3.682   8.158  19.298  0.00  0.00    -0.065 C 
ATOM     17  H7  STE d          -4.686   8.553  19.511  0.00  0.00     0.033 H 
ATOM     18  H8  STE d          -3.366   8.481  18.295  0.00  0.00     0.033 H 
BRANCH  16  19
ATOM     19  C4  STE d          -3.739   6.640  19.328  0.00  0.00    -0.065 C 
ATOM     20  H5  STE d          -4.769   6.318  19.114  0.00  0.00     0.033 H 
ATOM     21  H6  STE d          -3.062   6.242  18.557  0.00  0.00     0.033 H 
BRANCH  19  22
ATOM     22  C3  STE d          -3.320   6.084  20.687  0.00  0.00    -0.056 C 
ATOM     23  H3  STE d          -2.952   6.910  21.313  0.00  0.00     0.033 H 
ATOM     24  H4  STE d          -4.195   5.621  21.168  0.00  0.00     0.033 H 
BRANCH  22  25
ATOM     25  C2  STE d          -2.218   5.037  20.549  0.00  0.00     0.016 C 
ATOM     26  H1  STE d          -1.991   4.878  19.485  0.00  0.00     0.049 H 
ATOM     27  H2  STE d          -1.313   5.385  21.069  0.00  0.00     0.049 H 
BRANCH  25  28
ATOM     28  C1  STE d          -2.688   3.745  21.164  0.00  0.00     0.172 C 
ATOM     29  O1  STE d          -3.897   3.435  21.028  0.00  0.00    -0.648 OA
ATOM     30  O2  STE d          -1.868   3.050  21.802  0.00  0.00    -0.648 OA
ENDBRANCH  25  28
ENDBRANCH  22  25
ENDBRANCH  19  22
ENDBRANCH  16  19
ENDBRANCH  13  16
ENDBRANCH  10  13
ENDBRANCH   7  10
ENDBRANCH   4   7
ENDBRANCH   1   4
BRANCH   1  31
ATOM     31  C11 STE d          -3.477  12.205  19.396  0.00  0.00    -0.065 C 
ATOM     32  H19 STE d          -4.002  12.308  20.356  0.00  0.00     0.033 H 
ATOM     33  H20 STE d          -3.473  11.147  19.092  0.00  0.00     0.033 H 
BRANCH  31  34
ATOM     34  C12 STE d          -4.171  13.036  18.342  0.00  0.00    -0.065 C 
ATOM     35  H21 STE d          -5.136  13.398  18.728  0.00  0.00     0.033 H 
ATOM     36  H22 STE d          -4.342  12.428  17.441  0.00  0.00     0.033 H 
BRANCH  34  37
ATOM     37  C13 STE d          -3.289  14.204  18.007  0.00  0.00    -0.065 C 
ATOM     38  H23 STE d          -2.898  14.076  16.986  0.00  0.00     0.033 H 
ATOM     39  H24 STE d          -2.452  14.235  18.720  0.00  0.00     0.033 H 
BRANCH  37  40
ATOM     40  C14 STE d          -4.053  15.514  18.083  0.00  0.00    -0.065 C 
ATOM     41  H25 STE d          -4.758  15.468  18.925  0.00  0.00     0.033 H 
ATOM     42  H26 STE d          -4.611  15.658  17.146  0.00  0.00     0.033 H 
BRANCH  40  43
ATOM     43  C15 STE d          -3.111  16.699  18.287  0.00  0.00    -0.065 C 
ATOM     44  H27 STE d          -2.202  16.565  17.682  0.00  0.00     0.033 H 
ATOM     45  H28 STE d          -2.836  16.782  19.348  0.00  0.00     0.033 H 
BRANCH  43  46
ATOM     46  C16 STE d          -3.848  17.947  17.845  0.00  0.00    -0.065 C 
ATOM     47  H29 STE d          -3.111  18.687  17.498  0.00  0.00     0.033 H 
ATOM     48  H30 STE d          -4.399  18.354  18.706  0.00  0.00     0.033 H 
BRANCH  46  49
ATOM     49  C17 STE d          -4.825  17.681  16.729  0.00  0.00    -0.069 C 
ATOM     50  H31 STE d          -5.785  18.155  16.981  0.00  0.00     0.032 H 
ATOM     51  H32 STE d          -4.966  16.594  16.634  0.00  0.00     0.032 H 
BRANCH  49  52
ATOM     52  C18 STE d          -4.351  18.225  15.398  0.00  0.00    -0.077 C 
ATOM     53  H33 STE d          -3.258  18.120  15.328  0.00  0.00     0.027 H 
ATOM     54  H34 STE d          -4.622  19.288  15.319  0.00  0.00     0.027 H 
ATOM     55  H35 STE d          -4.826  17.662  14.581  0.00  0.00     0.027 H 
ENDBRANCH  49  52
ENDBRANCH  46  49
ENDBRANCH  43  46
ENDBRANCH  40  43
ENDBRANCH  37  40
ENDBRANCH  34  37
ENDBRANCH  31  34
ENDBRANCH   1  31
TORSDOF 17
ENDMDL
MODEL 9
REMARK VINA RESULT:      -5.5      4.623     10.446
REMARK  17 active torsions:
REMARK  status: ('A' for Active; 'I' for Inactive)
REMARK    1  A    between atoms: C1_1  and  C2_4 
REMARK    2  A    between atoms: C2_4  and  C3_5 
REMARK    3  A    between atoms: C3_5  and  C4_6 
REMARK    4  A    between atoms: C4_6  and  C5_7 
REMARK    5  A    between atoms: C5_7  and  C6_8 
REMARK    6  A    between atoms: C6_8  and  C7_9 
REMARK    7  A    between atoms: C7_9  and  C8_10 
REMARK    8  A    between atoms: C8_10  and  C9_11 
REMARK    9  A    between atoms: C9_11  and  C10_12 
REMARK   10  A    between atoms: C10_12  and  C11_13 
REMARK   11  A    between atoms: C11_13  and  C12_14 
REMARK   12  A    between atoms: C12_14  and  C13_15 
REMARK   13  A    between atoms: C13_15  and  C14_16 
REMARK   14  A    between atoms: C14_16  and  C15_17 
REMARK   15  A    between atoms: C15_17  and  C16_18 
REMARK   16  A    between atoms: C16_18  and  C17_19 
REMARK   17  A    between atoms: C17_19  and  C18_20 
ROOT
ATOM      1  C10 STE d          -1.502  10.310  19.837  0.00  0.00    -0.065 C 
ATOM      2  H17 STE d          -0.817  10.402  20.693  0.00  0.00     0.033 H 
ATOM      3  H18 STE d          -0.936  10.425  18.900  0.00  0.00     0.033 H 
ENDROOT
BRANCH   1   4
ATOM      4  C9  STE d          -2.598  11.362  19.923  0.00  0.00    -0.065 C 
ATOM      5  H15 STE d          -3.517  10.905  20.322  0.00  0.00     0.033 H 
ATOM      6  H16 STE d          -2.276  12.177  20.588  0.00  0.00     0.033 H 
BRANCH   4   7
ATOM      7  C8  STE d          -2.867  11.916  18.533  0.00  0.00    -0.065 C 
ATOM      8  H13 STE d          -1.948  11.870  17.931  0.00  0.00     0.033 H 
ATOM      9  H14 STE d          -3.657  11.326  18.044  0.00  0.00     0.033 H 
BRANCH   7  10
ATOM     10  C7  STE d          -3.314  13.350  18.673  0.00  0.00    -0.065 C 
ATOM     11  H11 STE d          -3.866  13.643  17.768  0.00  0.00     0.033 H 
ATOM     12  H12 STE d          -3.976  13.435  19.548  0.00  0.00     0.033 H 
BRANCH  10  13
ATOM     13  C6  STE d          -2.127  14.286  18.856  0.00  0.00    -0.065 C 
ATOM     14  H9  STE d          -1.778  14.232  19.898  0.00  0.00     0.033 H 
ATOM     15  H10 STE d          -1.315  13.979  18.181  0.00  0.00     0.033 H 
BRANCH  13  16
ATOM     16  C5  STE d          -2.532  15.721  18.535  0.00  0.00    -0.065 C 
ATOM     17  H7  STE d          -2.362  16.344  19.425  0.00  0.00     0.033 H 
ATOM     18  H8  STE d          -1.907  16.088  17.706  0.00  0.00     0.033 H 
BRANCH  16  19
ATOM     19  C4  STE d          -3.993  15.830  18.133  0.00  0.00    -0.065 C 
ATOM     20  H5  STE d          -4.460  14.838  18.217  0.00  0.00     0.033 H 
ATOM     21  H6  STE d          -4.498  16.532  18.814  0.00  0.00     0.033 H 
BRANCH  19  22
ATOM     22  C3  STE d          -4.150  16.332  16.700  0.00  0.00    -0.056 C 
ATOM     23  H3  STE d          -3.160  16.602  16.305  0.00  0.00     0.033 H 
ATOM     24  H4  STE d          -4.583  15.529  16.086  0.00  0.00     0.033 H 
BRANCH  22  25
ATOM     25  C2  STE d          -5.061  17.555  16.631  0.00  0.00     0.016 C 
ATOM     26  H1  STE d          -6.073  17.244  16.332  0.00  0.00     0.049 H 
ATOM     27  H2  STE d          -5.103  18.040  17.617  0.00  0.00     0.049 H 
BRANCH  25  28
ATOM     28  C1  STE d          -4.509  18.521  15.616  0.00  0.00     0.172 C 
ATOM     29  O1  STE d          -4.259  18.087  14.465  0.00  0.00    -0.648 OA
ATOM     30  O2  STE d          -4.298  19.703  15.965  0.00  0.00    -0.648 OA
ENDBRANCH  25  28
ENDBRANCH  22  25
ENDBRANCH  19  22
ENDBRANCH  16  19
ENDBRANCH  13  16
ENDBRANCH  10  13
ENDBRANCH   7  10
ENDBRANCH   4   7
ENDBRANCH   1   4
BRANCH   1  31
ATOM     31  C11 STE d          -2.200   8.965  19.866  0.00  0.00    -0.065 C 
ATOM     32  H19 STE d          -2.725   8.797  18.915  0.00  0.00     0.033 H 
ATOM     33  H20 STE d          -2.924   8.940  20.694  0.00  0.00     0.033 H 
BRANCH  31  34
ATOM     34  C12 STE d          -1.154   7.893  20.069  0.00  0.00    -0.065 C 
ATOM     35  H21 STE d          -0.483   8.178  20.893  0.00  0.00     0.033 H 
ATOM     36  H22 STE d          -0.569   7.765  19.147  0.00  0.00     0.033 H 
BRANCH  34  37
ATOM     37  C13 STE d          -1.856   6.610  20.407  0.00  0.00    -0.065 C 
ATOM     38  H23 STE d          -2.251   6.163  19.482  0.00  0.00     0.033 H 
ATOM     39  H24 STE d          -2.686   6.826  21.095  0.00  0.00     0.033 H 
BRANCH  37  40
ATOM     40  C14 STE d          -0.911   5.621  21.068  0.00  0.00    -0.065 C 
ATOM     41  H25 STE d          -1.503   4.873  21.616  0.00  0.00     0.033 H 
ATOM     42  H26 STE d          -0.261   6.162  21.772  0.00  0.00     0.033 H 
BRANCH  40  43
ATOM     43  C15 STE d          -0.039   4.906  20.036  0.00  0.00    -0.065 C 
ATOM     44  H27 STE d           1.023   5.106  20.239  0.00  0.00     0.033 H 
ATOM     45  H28 STE d          -0.291   5.255  19.025  0.00  0.00     0.033 H 
BRANCH  43  46
ATOM     46  C16 STE d          -0.318   3.422  20.156  0.00  0.00    -0.065 C 
ATOM     47  H29 STE d          -1.188   3.279  20.816  0.00  0.00     0.033 H 
ATOM     48  H30 STE d           0.562   2.933  20.599  0.00  0.00     0.033 H 
BRANCH  46  49
ATOM     49  C17 STE d          -0.611   2.776  18.826  0.00  0.00    -0.069 C 
ATOM     50  H31 STE d          -1.012   1.767  19.006  0.00  0.00     0.032 H 
ATOM     51  H32 STE d           0.326   2.702  18.256  0.00  0.00     0.032 H 
BRANCH  49  52
ATOM     52  C18 STE d          -1.616   3.558  18.008  0.00  0.00    -0.077 C 
ATOM     53  H33 STE d          -1.566   3.233  16.958  0.00  0.00     0.027 H 
ATOM     54  H34 STE d          -1.382   4.632  18.070  0.00  0.00     0.027 H 
ATOM     55  H35 STE d          -2.628   3.379  18.400  0.00  0.00     0.027 H 
ENDBRANCH  49  52
ENDBRANCH  46  49
ENDBRANCH  43  46
ENDBRANCH  40  43
ENDBRANCH  37  40
ENDBRANCH  34  37
ENDBRANCH  31  34
ENDBRANCH   1  31
TORSDOF 17
ENDMDL
MODEL 10
REMARK VINA RESULT:      -4.7      1.221      1.831
REMARK  17 active torsions:
REMARK  status: ('A' for Active; 'I' for Inactive)
REMARK    1  A    between atoms: C1_1  and  C2_4 
REMARK    2  A    between atoms: C2_4  and  C3_5 
REMARK    3  A    between atoms: C3_5  and  C4_6 
REMARK    4  A    between atoms: C4_6  and  C5_7 
REMARK    5  A    between atoms: C5_7  and  C6_8 
REMARK    6  A    between atoms: C6_8  and  C7_9 
REMARK    7  A    between atoms: C7_9  and  C8_10 
REMARK    8  A    between atoms: C8_10  and  C9_11 
REMARK    9  A    between atoms: C9_11  and  C10_12 
REMARK   10  A    between atoms: C10_12  and  C11_13 
REMARK   11  A    between atoms: C11_13  and  C12_14 
REMARK   12  A    between atoms: C12_14  and  C13_15 
REMARK   13  A    between atoms: C13_15  and  C14_16 
REMARK   14  A    between atoms: C14_16  and  C15_17 
REMARK   15  A    between atoms: C15_17  and  C16_18 
REMARK   16  A    between atoms: C16_18  and  C17_19 
REMARK   17  A    between atoms: C17_19  and  C18_20 
ROOT
ATOM      1  C10 STE d          -3.081  16.424  18.397  0.00  0.00    -0.065 C 
ATOM      2  H17 STE d          -2.883  17.185  17.626  0.00  0.00     0.033 H 
ATOM      3  H18 STE d          -3.377  16.919  19.333  0.00  0.00     0.033 H 
ENDROOT
BRANCH   1   4
ATOM      4  C9  STE d          -1.842  15.567  18.622  0.00  0.00    -0.065 C 
ATOM      5  H15 STE d          -1.385  15.318  17.653  0.00  0.00     0.033 H 
ATOM      6  H16 STE d          -1.117  16.122  19.236  0.00  0.00     0.033 H 
BRANCH   4   7
ATOM      7  C8  STE d          -2.245  14.290  19.340  0.00  0.00    -0.065 C 
ATOM      8  H13 STE d          -2.260  14.462  20.426  0.00  0.00     0.033 H 
ATOM      9  H14 STE d          -3.244  13.974  19.004  0.00  0.00     0.033 H 
BRANCH   7  10
ATOM     10  C7  STE d          -1.234  13.221  19.007  0.00  0.00    -0.065 C 
ATOM     11  H11 STE d          -1.385  12.896  17.966  0.00  0.00     0.033 H 
ATOM     12  H12 STE d          -0.222  13.638  19.117  0.00  0.00     0.033 H 
BRANCH  10  13
ATOM     13  C6  STE d          -1.377  12.016  19.927  0.00  0.00    -0.065 C 
ATOM     14  H9  STE d          -1.219  11.094  19.347  0.00  0.00     0.033 H 
ATOM     15  H10 STE d          -0.624  12.078  20.727  0.00  0.00     0.033 H 
BRANCH  13  16
ATOM     16  C5  STE d          -2.769  11.987  20.548  0.00  0.00    -0.065 C 
ATOM     17  H7  STE d          -2.685  12.232  21.617  0.00  0.00     0.033 H 
ATOM     18  H8  STE d          -3.396  12.740  20.047  0.00  0.00     0.033 H 
BRANCH  16  19
ATOM     19  C4  STE d          -3.433  10.627  20.409  0.00  0.00    -0.065 C 
ATOM     20  H5  STE d          -3.554  10.186  21.409  0.00  0.00     0.033 H 
ATOM     21  H6  STE d          -4.421  10.759  19.943  0.00  0.00     0.033 H 
BRANCH  19  22
ATOM     22  C3  STE d          -2.603   9.678  19.548  0.00  0.00    -0.056 C 
ATOM     23  H3  STE d          -2.174  10.241  18.706  0.00  0.00     0.033 H 
ATOM     24  H4  STE d          -1.791   9.259  20.160  0.00  0.00     0.033 H 
BRANCH  22  25
ATOM     25  C2  STE d          -3.451   8.533  18.998  0.00  0.00     0.016 C 
ATOM     26  H1  STE d          -4.512   8.822  19.010  0.00  0.00     0.049 H 
ATOM     27  H2  STE d          -3.143   8.311  17.965  0.00  0.00     0.049 H 
BRANCH  25  28
ATOM     28  C1  STE d          -3.249   7.315  19.859  0.00  0.00     0.172 C 
ATOM     29  O1  STE d          -2.073   7.000  20.167  0.00  0.00    -0.648 OA
ATOM     30  O2  STE d          -4.251   6.654  20.209  0.00  0.00    -0.648 OA
ENDBRANCH  25  28
ENDBRANCH  22  25
ENDBRANCH  19  22
ENDBRANCH  16  19
ENDBRANCH  13  16
ENDBRANCH  10  13
ENDBRANCH   7  10
ENDBRANCH   4   7
ENDBRANCH   1   4
BRANCH   1  31
ATOM     31  C11 STE d          -4.171  15.480  17.933  0.00  0.00    -0.065 C 
ATOM     32  H19 STE d          -5.071  16.052  17.666  0.00  0.00     0.033 H 
ATOM     33  H20 STE d          -4.414  14.768  18.736  0.00  0.00     0.033 H 
BRANCH  31  34
ATOM     34  C12 STE d          -3.665  14.730  16.722  0.00  0.00    -0.065 C 
ATOM     35  H21 STE d          -3.524  13.668  16.973  0.00  0.00     0.033 H 
ATOM     36  H22 STE d          -2.708  15.159  16.392  0.00  0.00     0.033 H 
BRANCH  34  37
ATOM     37  C13 STE d          -4.684  14.861  15.627  0.00  0.00    -0.065 C 
ATOM     38  H23 STE d          -5.657  15.116  16.073  0.00  0.00     0.033 H 
ATOM     39  H24 STE d          -4.763  13.902  15.095  0.00  0.00     0.033 H 
BRANCH  37  40
ATOM     40  C14 STE d          -4.295  15.945  14.637  0.00  0.00    -0.065 C 
ATOM     41  H25 STE d          -4.188  15.496  13.639  0.00  0.00     0.033 H 
ATOM     42  H26 STE d          -3.335  16.385  14.946  0.00  0.00     0.033 H 
BRANCH  40  43
ATOM     43  C15 STE d          -5.349  17.050  14.575  0.00  0.00    -0.065 C 
ATOM     44  H27 STE d          -5.951  17.047  15.495  0.00  0.00     0.033 H 
ATOM     45  H28 STE d          -6.006  16.893  13.707  0.00  0.00     0.033 H 
BRANCH  43  46
ATOM     46  C16 STE d          -4.618  18.369  14.439  0.00  0.00    -0.065 C 
ATOM     47  H29 STE d          -5.314  19.117  14.030  0.00  0.00     0.033 H 
ATOM     48  H30 STE d          -3.775  18.234  13.744  0.00  0.00     0.033 H 
BRANCH  46  49
ATOM     49  C17 STE d          -4.083  18.877  15.753  0.00  0.00    -0.069 C 
ATOM     50  H31 STE d          -3.764  19.921  15.624  0.00  0.00     0.032 H 
ATOM     51  H32 STE d          -3.218  18.262  16.043  0.00  0.00     0.032 H 
BRANCH  49  52
ATOM     52  C18 STE d          -5.112  18.817  16.862  0.00  0.00    -0.077 C 
ATOM     53  H33 STE d          -5.485  17.787  16.961  0.00  0.00     0.027 H 
ATOM     54  H34 STE d          -5.950  19.488  16.621  0.00  0.00     0.027 H 
ATOM     55  H35 STE d          -4.650  19.133  17.809  0.00  0.00     0.027 H 
ENDBRANCH  49  52
ENDBRANCH  46  49
ENDBRANCH  43  46
ENDBRANCH  40  43
ENDBRANCH  37  40
ENDBRANCH  34  37
ENDBRANCH  31  34
ENDBRANCH   1  31
TORSDOF 17
ENDMDL
