MODEL 1
REMARK VINA RESULT:      -6.1      0.000      0.000
REMARK  9 active torsions:
REMARK  status: ('A' for Active; 'I' for Inactive)
REMARK    1  A    between atoms: C1_1  and  C2_3 
REMARK    2  A    between atoms: C2_3  and  C3_4 
REMARK    3  A    between atoms: C3_4  and  C4_5 
REMARK    4  A    between atoms: C4_5  and  C5_6 
REMARK    5  A    between atoms: C5_6  and  C6_7 
REMARK    6  A    between atoms: C6_7  and  C7_8 
REMARK    7  A    between atoms: C7_8  and  C8_9 
REMARK    8  A    between atoms: C8_9  and  C9_10 
REMARK    9  A    between atoms: C9_10  and  C10_11 
ROOT
ATOM      1  C6  DKA d          14.117  -3.810  -0.583  0.00  0.00    -0.065 C 
ATOM      2  H9  DKA d          14.965  -3.197  -0.245  0.00  0.00     0.033 H 
ATOM      3  H10 DKA d          14.036  -3.751  -1.679  0.00  0.00     0.033 H 
ENDROOT
BRANCH   1   4
ATOM      4  C5  DKA d          12.836  -3.271   0.039  0.00  0.00    -0.065 C 
ATOM      5  H7  DKA d          13.063  -2.380   0.641  0.00  0.00     0.033 H 
ATOM      6  H8  DKA d          12.121  -3.006  -0.755  0.00  0.00     0.033 H 
BRANCH   4   7
ATOM      7  C4  DKA d          12.238  -4.355   0.927  0.00  0.00    -0.065 C 
ATOM      8  H5  DKA d          12.428  -5.338   0.471  0.00  0.00     0.033 H 
ATOM      9  H6  DKA d          12.716  -4.310   1.917  0.00  0.00     0.033 H 
BRANCH   7  10
ATOM     10  C3  DKA d          10.740  -4.168   1.092  0.00  0.00    -0.056 C 
ATOM     11  H3  DKA d          10.252  -5.152   1.149  0.00  0.00     0.033 H 
ATOM     12  H4  DKA d          10.541  -3.607   2.017  0.00  0.00     0.033 H 
BRANCH  10  13
ATOM     13  C2  DKA d          10.185  -3.396  -0.097  0.00  0.00     0.016 C 
ATOM     14  H1  DKA d          11.014  -2.911  -0.632  0.00  0.00     0.049 H 
ATOM     15  H2  DKA d           9.670  -4.094  -0.774  0.00  0.00     0.049 H 
BRANCH  13  16
ATOM     16  C1  DKA d           9.209  -2.344   0.363  0.00  0.00     0.172 C 
ATOM     17  O1  DKA d           9.488  -1.144   0.135  0.00  0.00    -0.648 OA
ATOM     18  O2  DKA d           8.174  -2.715   0.962  0.00  0.00    -0.648 OA
ENDBRANCH  13  16
ENDBRANCH  10  13
ENDBRANCH   7  10
ENDBRANCH   4   7
ENDBRANCH   1   4
BRANCH   1  19
ATOM     19  C7  DKA d          14.361  -5.256  -0.183  0.00  0.00    -0.065 C 
ATOM     20  H11 DKA d          13.692  -5.912  -0.758  0.00  0.00     0.033 H 
ATOM     21  H12 DKA d          14.158  -5.376   0.891  0.00  0.00     0.033 H 
BRANCH  19  22
ATOM     22  C8  DKA d          15.802  -5.631  -0.468  0.00  0.00    -0.065 C 
ATOM     23  H13 DKA d          15.815  -6.574  -1.035  0.00  0.00     0.033 H 
ATOM     24  H14 DKA d          16.326  -5.771   0.489  0.00  0.00     0.033 H 
BRANCH  22  25
ATOM     25  C9  DKA d          16.527  -4.575  -1.268  0.00  0.00    -0.069 C 
ATOM     26  H15 DKA d          16.609  -3.659  -0.666  0.00  0.00     0.032 H 
ATOM     27  H16 DKA d          15.957  -4.361  -2.185  0.00  0.00     0.032 H 
BRANCH  25  28
ATOM     28  C10 DKA d          17.914  -5.047  -1.645  0.00  0.00    -0.077 C 
ATOM     29  H17 DKA d          18.628  -4.219  -1.528  0.00  0.00     0.027 H 
ATOM     30  H18 DKA d          17.915  -5.385  -2.692  0.00  0.00     0.027 H 
ATOM     31  H19 DKA d          18.208  -5.881  -0.990  0.00  0.00     0.027 H 
ENDBRANCH  25  28
ENDBRANCH  22  25
ENDBRANCH  19  22
ENDBRANCH   1  19
TORSDOF 9
ENDMDL
MODEL 2
REMARK VINA RESULT:      -5.9      0.860      1.484
REMARK  9 active torsions:
REMARK  status: ('A' for Active; 'I' for Inactive)
REMARK    1  A    between atoms: C1_1  and  C2_3 
REMARK    2  A    between atoms: C2_3  and  C3_4 
REMARK    3  A    between atoms: C3_4  and  C4_5 
REMARK    4  A    between atoms: C4_5  and  C5_6 
REMARK    5  A    between atoms: C5_6  and  C6_7 
REMARK    6  A    between atoms: C6_7  and  C7_8 
REMARK    7  A    between atoms: C7_8  and  C8_9 
REMARK    8  A    between atoms: C8_9  and  C9_10 
REMARK    9  A    between atoms: C9_10  and  C10_11 
ROOT
ATOM      1  C6  DKA d          13.414  -3.298  -0.299  0.00  0.00    -0.065 C 
ATOM      2  H9  DKA d          13.618  -2.487   0.416  0.00  0.00     0.033 H 
ATOM      3  H10 DKA d          12.849  -2.899  -1.154  0.00  0.00     0.033 H 
ENDROOT
BRANCH   1   4
ATOM      4  C5  DKA d          12.582  -4.370   0.390  0.00  0.00    -0.065 C 
ATOM      5  H7  DKA d          12.249  -5.114  -0.349  0.00  0.00     0.033 H 
ATOM      6  H8  DKA d          13.184  -4.868   1.165  0.00  0.00     0.033 H 
BRANCH   4   7
ATOM      7  C4  DKA d          11.370  -3.704   1.030  0.00  0.00    -0.065 C 
ATOM      8  H5  DKA d          11.039  -4.309   1.888  0.00  0.00     0.033 H 
ATOM      9  H6  DKA d          11.656  -2.700   1.378  0.00  0.00     0.033 H 
BRANCH   7  10
ATOM     10  C3  DKA d          10.224  -3.577   0.042  0.00  0.00    -0.056 C 
ATOM     11  H3  DKA d          10.599  -3.749  -0.977  0.00  0.00     0.033 H 
ATOM     12  H4  DKA d           9.452  -4.325   0.280  0.00  0.00     0.033 H 
BRANCH  10  13
ATOM     13  C2  DKA d           9.621  -2.182   0.132  0.00  0.00     0.016 C 
ATOM     14  H1  DKA d          10.424  -1.452   0.306  0.00  0.00     0.049 H 
ATOM     15  H2  DKA d           9.111  -1.947  -0.814  0.00  0.00     0.049 H 
BRANCH  13  16
ATOM     16  C1  DKA d           8.628  -2.106   1.262  0.00  0.00     0.172 C 
ATOM     17  O1  DKA d           7.734  -2.982   1.319  0.00  0.00    -0.648 OA
ATOM     18  O2  DKA d           8.734  -1.167   2.084  0.00  0.00    -0.648 OA
ENDBRANCH  13  16
ENDBRANCH  10  13
ENDBRANCH   7  10
ENDBRANCH   4   7
ENDBRANCH   1   4
BRANCH   1  19
ATOM     19  C7  DKA d          14.736  -3.859  -0.798  0.00  0.00    -0.065 C 
ATOM     20  H11 DKA d          15.563  -3.254  -0.399  0.00  0.00     0.033 H 
ATOM     21  H12 DKA d          14.755  -3.825  -1.897  0.00  0.00     0.033 H 
BRANCH  19  22
ATOM     22  C8  DKA d          14.892  -5.294  -0.336  0.00  0.00    -0.065 C 
ATOM     23  H13 DKA d          14.298  -5.943  -0.996  0.00  0.00     0.033 H 
ATOM     24  H14 DKA d          14.517  -5.376   0.695  0.00  0.00     0.033 H 
BRANCH  22  25
ATOM     25  C9  DKA d          16.330  -5.757  -0.368  0.00  0.00    -0.069 C 
ATOM     26  H15 DKA d          16.368  -6.787  -0.751  0.00  0.00     0.032 H 
ATOM     27  H16 DKA d          16.741  -5.730   0.653  0.00  0.00     0.032 H 
BRANCH  25  28
ATOM     28  C10 DKA d          17.161  -4.864  -1.261  0.00  0.00    -0.077 C 
ATOM     29  H17 DKA d          17.283  -5.340  -2.245  0.00  0.00     0.027 H 
ATOM     30  H18 DKA d          18.150  -4.707  -0.806  0.00  0.00     0.027 H 
ATOM     31  H19 DKA d          16.656  -3.894  -1.383  0.00  0.00     0.027 H 
ENDBRANCH  25  28
ENDBRANCH  22  25
ENDBRANCH  19  22
ENDBRANCH   1  19
TORSDOF 9
ENDMDL
MODEL 3
REMARK VINA RESULT:      -5.9      4.006      6.841
REMARK  9 active torsions:
REMARK  status: ('A' for Active; 'I' for Inactive)
REMARK    1  A    between atoms: C1_1  and  C2_3 
REMARK    2  A    between atoms: C2_3  and  C3_4 
REMARK    3  A    between atoms: C3_4  and  C4_5 
REMARK    4  A    between atoms: C4_5  and  C5_6 
REMARK    5  A    between atoms: C5_6  and  C6_7 
REMARK    6  A    between atoms: C6_7  and  C7_8 
REMARK    7  A    between atoms: C7_8  and  C8_9 
REMARK    8  A    between atoms: C8_9  and  C9_10 
REMARK    9  A    between atoms: C9_10  and  C10_11 
ROOT
ATOM      1  C6  DKA d          12.496  -2.956   0.167  0.00  0.00    -0.065 C 
ATOM      2  H9  DKA d          11.749  -2.701  -0.599  0.00  0.00     0.033 H 
ATOM      3  H10 DKA d          12.577  -2.131   0.889  0.00  0.00     0.033 H 
ENDROOT
BRANCH   1   4
ATOM      4  C5  DKA d          13.846  -3.162  -0.506  0.00  0.00    -0.065 C 
ATOM      5  H7  DKA d          13.778  -2.883  -1.568  0.00  0.00     0.033 H 
ATOM      6  H8  DKA d          14.606  -2.538  -0.012  0.00  0.00     0.033 H 
BRANCH   4   7
ATOM      7  C4  DKA d          14.228  -4.632  -0.383  0.00  0.00    -0.065 C 
ATOM      8  H5  DKA d          14.672  -4.805   0.609  0.00  0.00     0.033 H 
ATOM      9  H6  DKA d          13.323  -5.247  -0.493  0.00  0.00     0.033 H 
BRANCH   7  10
ATOM     10  C3  DKA d          15.231  -5.032  -1.451  0.00  0.00    -0.056 C 
ATOM     11  H3  DKA d          14.828  -5.872  -2.035  0.00  0.00     0.033 H 
ATOM     12  H4  DKA d          15.416  -4.177  -2.118  0.00  0.00     0.033 H 
BRANCH  10  13
ATOM     13  C2  DKA d          16.540  -5.452  -0.794  0.00  0.00     0.016 C 
ATOM     14  H1  DKA d          16.582  -5.038   0.223  0.00  0.00     0.049 H 
ATOM     15  H2  DKA d          16.584  -6.550  -0.746  0.00  0.00     0.049 H 
BRANCH  13  16
ATOM     16  C1  DKA d          17.716  -4.944  -1.586  0.00  0.00     0.172 C 
ATOM     17  O1  DKA d          17.904  -3.706  -1.631  0.00  0.00    -0.648 OA
ATOM     18  O2  DKA d          18.443  -5.779  -2.171  0.00  0.00    -0.648 OA
ENDBRANCH  13  16
ENDBRANCH  10  13
ENDBRANCH   7  10
ENDBRANCH   4   7
ENDBRANCH   1   4
BRANCH   1  19
ATOM     19  C7  DKA d          12.045  -4.210   0.897  0.00  0.00    -0.065 C 
ATOM     20  H11 DKA d          12.623  -4.319   1.826  0.00  0.00     0.033 H 
ATOM     21  H12 DKA d          12.214  -5.087   0.256  0.00  0.00     0.033 H 
BRANCH  19  22
ATOM     22  C8  DKA d          10.570  -4.108   1.232  0.00  0.00    -0.065 C 
ATOM     23  H13 DKA d          10.467  -3.808   2.285  0.00  0.00     0.033 H 
ATOM     24  H14 DKA d          10.105  -5.094   1.084  0.00  0.00     0.033 H 
BRANCH  22  25
ATOM     25  C9  DKA d           9.850  -3.099   0.368  0.00  0.00    -0.069 C 
ATOM     26  H15 DKA d           9.647  -3.546  -0.616  0.00  0.00     0.032 H 
ATOM     27  H16 DKA d          10.487  -2.211   0.243  0.00  0.00     0.032 H 
BRANCH  25  28
ATOM     28  C10 DKA d           8.542  -2.686   1.005  0.00  0.00    -0.077 C 
ATOM     29  H17 DKA d           8.455  -3.150   1.998  0.00  0.00     0.027 H 
ATOM     30  H18 DKA d           7.705  -3.016   0.372  0.00  0.00     0.027 H 
ATOM     31  H19 DKA d           8.514  -1.590   1.108  0.00  0.00     0.027 H 
ENDBRANCH  25  28
ENDBRANCH  22  25
ENDBRANCH  19  22
ENDBRANCH   1  19
TORSDOF 9
ENDMDL
MODEL 4
REMARK VINA RESULT:      -5.9      3.901      6.761
REMARK  9 active torsions:
REMARK  status: ('A' for Active; 'I' for Inactive)
REMARK    1  A    between atoms: C1_1  and  C2_3 
REMARK    2  A    between atoms: C2_3  and  C3_4 
REMARK    3  A    between atoms: C3_4  and  C4_5 
REMARK    4  A    between atoms: C4_5  and  C5_6 
REMARK    5  A    between atoms: C5_6  and  C6_7 
REMARK    6  A    between atoms: C6_7  and  C7_8 
REMARK    7  A    between atoms: C7_8  and  C8_9 
REMARK    8  A    between atoms: C8_9  and  C9_10 
REMARK    9  A    between atoms: C9_10  and  C10_11 
ROOT
ATOM      1  C6  DKA d          12.061  -2.426  -0.076  0.00  0.00    -0.065 C 
ATOM      2  H9  DKA d          11.748  -1.893  -0.985  0.00  0.00     0.033 H 
ATOM      3  H10 DKA d          12.174  -1.709   0.750  0.00  0.00     0.033 H 
ENDROOT
BRANCH   1   4
ATOM      4  C5  DKA d          13.401  -3.102  -0.332  0.00  0.00    -0.065 C 
ATOM      5  H7  DKA d          13.633  -3.069  -1.407  0.00  0.00     0.033 H 
ATOM      6  H8  DKA d          14.192  -2.583   0.230  0.00  0.00     0.033 H 
BRANCH   4   7
ATOM      7  C4  DKA d          13.308  -4.551   0.130  0.00  0.00    -0.065 C 
ATOM      8  H5  DKA d          13.169  -4.571   1.221  0.00  0.00     0.033 H 
ATOM      9  H6  DKA d          12.445  -5.028  -0.359  0.00  0.00     0.033 H 
BRANCH   7  10
ATOM     10  C3  DKA d          14.566  -5.324  -0.223  0.00  0.00    -0.056 C 
ATOM     11  H3  DKA d          15.144  -5.518   0.692  0.00  0.00     0.033 H 
ATOM     12  H4  DKA d          14.289  -6.280  -0.691  0.00  0.00     0.033 H 
BRANCH  10  13
ATOM     13  C2  DKA d          15.413  -4.512  -1.194  0.00  0.00     0.016 C 
ATOM     14  H1  DKA d          15.048  -4.678  -2.218  0.00  0.00     0.049 H 
ATOM     15  H2  DKA d          15.327  -3.444  -0.943  0.00  0.00     0.049 H 
BRANCH  13  16
ATOM     16  C1  DKA d          16.859  -4.926  -1.109  0.00  0.00     0.172 C 
ATOM     17  O1  DKA d          17.705  -4.236  -1.725  0.00  0.00    -0.648 OA
ATOM     18  O2  DKA d          17.147  -5.944  -0.440  0.00  0.00    -0.648 OA
ENDBRANCH  13  16
ENDBRANCH  10  13
ENDBRANCH   7  10
ENDBRANCH   4   7
ENDBRANCH   1   4
BRANCH   1  19
ATOM     19  C7  DKA d          10.991  -3.441   0.294  0.00  0.00    -0.065 C 
ATOM     20  H11 DKA d          11.049  -3.656   1.371  0.00  0.00     0.033 H 
ATOM     21  H12 DKA d          11.156  -4.368  -0.274  0.00  0.00     0.033 H 
BRANCH  19  22
ATOM     22  C8  DKA d           9.620  -2.885  -0.036  0.00  0.00    -0.065 C 
ATOM     23  H13 DKA d           8.976  -3.712  -0.370  0.00  0.00     0.033 H 
ATOM     24  H14 DKA d           9.723  -2.150  -0.848  0.00  0.00     0.033 H 
BRANCH  22  25
ATOM     25  C9  DKA d           8.969  -2.211   1.149  0.00  0.00    -0.069 C 
ATOM     26  H15 DKA d           9.004  -1.121   1.008  0.00  0.00     0.032 H 
ATOM     27  H16 DKA d           9.517  -2.481   2.064  0.00  0.00     0.032 H 
BRANCH  25  28
ATOM     28  C10 DKA d           7.527  -2.648   1.287  0.00  0.00    -0.077 C 
ATOM     29  H17 DKA d           7.464  -3.741   1.186  0.00  0.00     0.027 H 
ATOM     30  H18 DKA d           6.923  -2.172   0.501  0.00  0.00     0.027 H 
ATOM     31  H19 DKA d           7.147  -2.348   2.275  0.00  0.00     0.027 H 
ENDBRANCH  25  28
ENDBRANCH  22  25
ENDBRANCH  19  22
ENDBRANCH   1  19
TORSDOF 9
ENDMDL
MODEL 5
REMARK VINA RESULT:      -4.7      0.882      1.053
REMARK  9 active torsions:
REMARK  status: ('A' for Active; 'I' for Inactive)
REMARK    1  A    between atoms: C1_1  and  C2_3 
REMARK    2  A    between atoms: C2_3  and  C3_4 
REMARK    3  A    between atoms: C3_4  and  C4_5 
REMARK    4  A    between atoms: C4_5  and  C5_6 
REMARK    5  A    between atoms: C5_6  and  C6_7 
REMARK    6  A    between atoms: C6_7  and  C7_8 
REMARK    7  A    between atoms: C7_8  and  C8_9 
REMARK    8  A    between atoms: C8_9  and  C9_10 
REMARK    9  A    between atoms: C9_10  and  C10_11 
ROOT
ATOM      1  C6  DKA d          13.616  -3.657  -0.188  0.00  0.00    -0.065 C 
ATOM      2  H9  DKA d          13.725  -2.844   0.544  0.00  0.00     0.033 H 
ATOM      3  H10 DKA d          12.780  -3.431  -0.866  0.00  0.00     0.033 H 
ENDROOT
BRANCH   1   4
ATOM      4  C5  DKA d          13.318  -4.954   0.552  0.00  0.00    -0.065 C 
ATOM      5  H7  DKA d          13.229  -5.780  -0.169  0.00  0.00     0.033 H 
ATOM      6  H8  DKA d          14.131  -5.172   1.261  0.00  0.00     0.033 H 
BRANCH   4   7
ATOM      7  C4  DKA d          12.006  -4.788   1.309  0.00  0.00    -0.065 C 
ATOM      8  H5  DKA d          11.340  -5.627   1.060  0.00  0.00     0.033 H 
ATOM      9  H6  DKA d          12.213  -4.792   2.390  0.00  0.00     0.033 H 
BRANCH   7  10
ATOM     10  C3  DKA d          11.319  -3.484   0.942  0.00  0.00    -0.056 C 
ATOM     11  H3  DKA d          11.577  -2.714   1.682  0.00  0.00     0.033 H 
ATOM     12  H4  DKA d          11.655  -3.162  -0.055  0.00  0.00     0.033 H 
BRANCH  10  13
ATOM     13  C2  DKA d           9.810  -3.687   0.926  0.00  0.00     0.016 C 
ATOM     14  H1  DKA d           9.551  -4.422   0.151  0.00  0.00     0.049 H 
ATOM     15  H2  DKA d           9.484  -4.061   1.909  0.00  0.00     0.049 H 
BRANCH  13  16
ATOM     16  C1  DKA d           9.105  -2.388   0.633  0.00  0.00     0.172 C 
ATOM     17  O1  DKA d           9.472  -1.733  -0.370  0.00  0.00    -0.648 OA
ATOM     18  O2  DKA d           8.195  -2.018   1.409  0.00  0.00    -0.648 OA
ENDBRANCH  13  16
ENDBRANCH  10  13
ENDBRANCH   7  10
ENDBRANCH   4   7
ENDBRANCH   1   4
BRANCH   1  19
ATOM     19  C7  DKA d          14.895  -3.765  -1.001  0.00  0.00    -0.065 C 
ATOM     20  H11 DKA d          15.679  -3.152  -0.532  0.00  0.00     0.033 H 
ATOM     21  H12 DKA d          14.710  -3.403  -2.023  0.00  0.00     0.033 H 
BRANCH  19  22
ATOM     22  C8  DKA d          15.350  -5.210  -1.054  0.00  0.00    -0.065 C 
ATOM     23  H13 DKA d          14.584  -5.802  -1.574  0.00  0.00     0.033 H 
ATOM     24  H14 DKA d          15.465  -5.582  -0.025  0.00  0.00     0.033 H 
BRANCH  22  25
ATOM     25  C9  DKA d          16.666  -5.375  -1.778  0.00  0.00    -0.069 C 
ATOM     26  H15 DKA d          16.813  -4.524  -2.458  0.00  0.00     0.032 H 
ATOM     27  H16 DKA d          16.643  -6.309  -2.360  0.00  0.00     0.032 H 
BRANCH  25  28
ATOM     28  C10 DKA d          17.815  -5.432  -0.796  0.00  0.00    -0.077 C 
ATOM     29  H17 DKA d          17.497  -5.002   0.165  0.00  0.00     0.027 H 
ATOM     30  H18 DKA d          18.664  -4.855  -1.192  0.00  0.00     0.027 H 
ATOM     31  H19 DKA d          18.120  -6.478  -0.647  0.00  0.00     0.027 H 
ENDBRANCH  25  28
ENDBRANCH  22  25
ENDBRANCH  19  22
ENDBRANCH   1  19
TORSDOF 9
ENDMDL
MODEL 6
REMARK VINA RESULT:      -4.5      3.043      6.564
REMARK  9 active torsions:
REMARK  status: ('A' for Active; 'I' for Inactive)
REMARK    1  A    between atoms: C1_1  and  C2_3 
REMARK    2  A    between atoms: C2_3  and  C3_4 
REMARK    3  A    between atoms: C3_4  and  C4_5 
REMARK    4  A    between atoms: C4_5  and  C5_6 
REMARK    5  A    between atoms: C5_6  and  C6_7 
REMARK    6  A    between atoms: C6_7  and  C7_8 
REMARK    7  A    between atoms: C7_8  and  C8_9 
REMARK    8  A    between atoms: C8_9  and  C9_10 
REMARK    9  A    between atoms: C9_10  and  C10_11 
ROOT
ATOM      1  C6  DKA d           9.660  -3.032   0.015  0.00  0.00    -0.065 C 
ATOM      2  H9  DKA d           9.160  -3.610  -0.777  0.00  0.00     0.033 H 
ATOM      3  H10 DKA d          10.098  -2.121  -0.418  0.00  0.00     0.033 H 
ENDROOT
BRANCH   1   4
ATOM      4  C5  DKA d          10.772  -3.878   0.620  0.00  0.00    -0.065 C 
ATOM      5  H7  DKA d          10.469  -4.230   1.617  0.00  0.00     0.033 H 
ATOM      6  H8  DKA d          10.975  -4.744  -0.028  0.00  0.00     0.033 H 
BRANCH   4   7
ATOM      7  C4  DKA d          12.024  -3.018   0.736  0.00  0.00    -0.065 C 
ATOM      8  H5  DKA d          11.735  -2.003   1.047  0.00  0.00     0.033 H 
ATOM      9  H6  DKA d          12.692  -3.458   1.493  0.00  0.00     0.033 H 
BRANCH   7  10
ATOM     10  C3  DKA d          12.763  -2.938  -0.588  0.00  0.00    -0.056 C 
ATOM     11  H3  DKA d          12.322  -3.655  -1.296  0.00  0.00     0.033 H 
ATOM     12  H4  DKA d          12.675  -1.919  -0.995  0.00  0.00     0.033 H 
BRANCH  10  13
ATOM     13  C2  DKA d          14.233  -3.274  -0.377  0.00  0.00     0.016 C 
ATOM     14  H1  DKA d          14.846  -2.639  -1.033  0.00  0.00     0.049 H 
ATOM     15  H2  DKA d          14.501  -3.083   0.673  0.00  0.00     0.049 H 
BRANCH  13  16
ATOM     16  C1  DKA d          14.497  -4.722  -0.700  0.00  0.00     0.172 C 
ATOM     17  O1  DKA d          15.029  -4.990  -1.802  0.00  0.00    -0.648 OA
ATOM     18  O2  DKA d          14.163  -5.588   0.140  0.00  0.00    -0.648 OA
ENDBRANCH  13  16
ENDBRANCH  10  13
ENDBRANCH   7  10
ENDBRANCH   4   7
ENDBRANCH   1   4
BRANCH   1  19
ATOM     19  C7  DKA d           8.632  -2.637   1.062  0.00  0.00    -0.065 C 
ATOM     20  H11 DKA d           8.849  -3.164   2.003  0.00  0.00     0.033 H 
ATOM     21  H12 DKA d           7.628  -2.913   0.710  0.00  0.00     0.033 H 
BRANCH  19  22
ATOM     22  C8  DKA d           8.689  -1.141   1.299  0.00  0.00    -0.065 C 
ATOM     23  H13 DKA d           9.633  -0.900   1.810  0.00  0.00     0.033 H 
ATOM     24  H14 DKA d           7.842  -0.852   1.939  0.00  0.00     0.033 H 
BRANCH  22  25
ATOM     25  C9  DKA d           8.618  -0.349   0.014  0.00  0.00    -0.069 C 
ATOM     26  H15 DKA d           9.266  -0.822  -0.738  0.00  0.00     0.032 H 
ATOM     27  H16 DKA d           8.964   0.678   0.203  0.00  0.00     0.032 H 
BRANCH  25  28
ATOM     28  C10 DKA d           7.199  -0.306  -0.510  0.00  0.00    -0.077 C 
ATOM     29  H17 DKA d           6.889   0.741  -0.641  0.00  0.00     0.027 H 
ATOM     30  H18 DKA d           6.527  -0.800   0.208  0.00  0.00     0.027 H 
ATOM     31  H19 DKA d           7.149  -0.827  -1.478  0.00  0.00     0.027 H 
ENDBRANCH  25  28
ENDBRANCH  22  25
ENDBRANCH  19  22
ENDBRANCH   1  19
TORSDOF 9
ENDMDL
MODEL 7
REMARK VINA RESULT:      -4.2      1.137      1.423
REMARK  9 active torsions:
REMARK  status: ('A' for Active; 'I' for Inactive)
REMARK    1  A    between atoms: C1_1  and  C2_3 
REMARK    2  A    between atoms: C2_3  and  C3_4 
REMARK    3  A    between atoms: C3_4  and  C4_5 
REMARK    4  A    between atoms: C4_5  and  C5_6 
REMARK    5  A    between atoms: C5_6  and  C6_7 
REMARK    6  A    between atoms: C6_7  and  C7_8 
REMARK    7  A    between atoms: C7_8  and  C8_9 
REMARK    8  A    between atoms: C8_9  and  C9_10 
REMARK    9  A    between atoms: C9_10  and  C10_11 
ROOT
ATOM      1  C6  DKA d          12.684  -4.080  -0.419  0.00  0.00    -0.065 C 
ATOM      2  H9  DKA d          12.698  -4.233  -1.508  0.00  0.00     0.033 H 
ATOM      3  H10 DKA d          11.775  -4.535   0.003  0.00  0.00     0.033 H 
ENDROOT
BRANCH   1   4
ATOM      4  C5  DKA d          12.671  -2.586  -0.127  0.00  0.00    -0.065 C 
ATOM      5  H7  DKA d          13.525  -2.326   0.515  0.00  0.00     0.033 H 
ATOM      6  H8  DKA d          12.737  -2.023  -1.070  0.00  0.00     0.033 H 
BRANCH   4   7
ATOM      7  C4  DKA d          11.368  -2.244   0.586  0.00  0.00    -0.065 C 
ATOM      8  H5  DKA d          11.512  -2.360   1.671  0.00  0.00     0.033 H 
ATOM      9  H6  DKA d          11.100  -1.201   0.361  0.00  0.00     0.033 H 
BRANCH   7  10
ATOM     10  C3  DKA d          10.238  -3.154   0.136  0.00  0.00    -0.056 C 
ATOM     11  H3  DKA d           9.812  -2.771  -0.803  0.00  0.00     0.033 H 
ATOM     12  H4  DKA d          10.629  -4.169  -0.026  0.00  0.00     0.033 H 
BRANCH  10  13
ATOM     13  C2  DKA d           9.154  -3.193   1.205  0.00  0.00     0.016 C 
ATOM     14  H1  DKA d           8.507  -4.065   1.032  0.00  0.00     0.049 H 
ATOM     15  H2  DKA d           9.626  -3.277   2.196  0.00  0.00     0.049 H 
BRANCH  13  16
ATOM     16  C1  DKA d           8.320  -1.939   1.159  0.00  0.00     0.172 C 
ATOM     17  O1  DKA d           8.803  -0.893   1.651  0.00  0.00    -0.648 OA
ATOM     18  O2  DKA d           7.181  -2.003   0.643  0.00  0.00    -0.648 OA
ENDBRANCH  13  16
ENDBRANCH  10  13
ENDBRANCH   7  10
ENDBRANCH   4   7
ENDBRANCH   1   4
BRANCH   1  19
ATOM     19  C7  DKA d          13.902  -4.753   0.191  0.00  0.00    -0.065 C 
ATOM     20  H11 DKA d          13.648  -5.785   0.470  0.00  0.00     0.033 H 
ATOM     21  H12 DKA d          14.216  -4.197   1.087  0.00  0.00     0.033 H 
BRANCH  19  22
ATOM     22  C8  DKA d          15.037  -4.768  -0.814  0.00  0.00    -0.065 C 
ATOM     23  H13 DKA d          15.519  -3.780  -0.816  0.00  0.00     0.033 H 
ATOM     24  H14 DKA d          14.623  -4.977  -1.811  0.00  0.00     0.033 H 
BRANCH  22  25
ATOM     25  C9  DKA d          16.079  -5.815  -0.493  0.00  0.00    -0.069 C 
ATOM     26  H15 DKA d          15.852  -6.733  -1.054  0.00  0.00     0.032 H 
ATOM     27  H16 DKA d          16.055  -6.029   0.586  0.00  0.00     0.032 H 
BRANCH  25  28
ATOM     28  C10 DKA d          17.460  -5.329  -0.873  0.00  0.00    -0.077 C 
ATOM     29  H17 DKA d          18.007  -6.138  -1.378  0.00  0.00     0.027 H 
ATOM     30  H18 DKA d          18.006  -5.029   0.034  0.00  0.00     0.027 H 
ATOM     31  H19 DKA d          17.372  -4.467  -1.550  0.00  0.00     0.027 H 
ENDBRANCH  25  28
ENDBRANCH  22  25
ENDBRANCH  19  22
ENDBRANCH   1  19
TORSDOF 9
ENDMDL
MODEL 8
REMARK VINA RESULT:      -4.0      3.221      6.286
REMARK  9 active torsions:
REMARK  status: ('A' for Active; 'I' for Inactive)
REMARK    1  A    between atoms: C1_1  and  C2_3 
REMARK    2  A    between atoms: C2_3  and  C3_4 
REMARK    3  A    between atoms: C3_4  and  C4_5 
REMARK    4  A    between atoms: C4_5  and  C5_6 
REMARK    5  A    between atoms: C5_6  and  C6_7 
REMARK    6  A    between atoms: C6_7  and  C7_8 
REMARK    7  A    between atoms: C7_8  and  C8_9 
REMARK    8  A    between atoms: C8_9  and  C9_10 
REMARK    9  A    between atoms: C9_10  and  C10_11 
ROOT
ATOM      1  C6  DKA d           9.544  -3.604   0.402  0.00  0.00    -0.065 C 
ATOM      2  H9  DKA d           8.837  -4.287  -0.090  0.00  0.00     0.033 H 
ATOM      3  H10 DKA d           9.811  -2.791  -0.289  0.00  0.00     0.033 H 
ENDROOT
BRANCH   1   4
ATOM      4  C5  DKA d          10.805  -4.375   0.770  0.00  0.00    -0.065 C 
ATOM      5  H7  DKA d          10.629  -4.958   1.686  0.00  0.00     0.033 H 
ATOM      6  H8  DKA d          11.077  -5.055  -0.051  0.00  0.00     0.033 H 
BRANCH   4   7
ATOM      7  C4  DKA d          11.931  -3.376   1.005  0.00  0.00    -0.065 C 
ATOM      8  H5  DKA d          11.523  -2.356   0.950  0.00  0.00     0.033 H 
ATOM      9  H6  DKA d          12.359  -3.547   2.004  0.00  0.00     0.033 H 
BRANCH   7  10
ATOM     10  C3  DKA d          13.027  -3.527  -0.035  0.00  0.00    -0.056 C 
ATOM     11  H3  DKA d          12.633  -3.251  -1.024  0.00  0.00     0.033 H 
ATOM     12  H4  DKA d          13.868  -2.865   0.222  0.00  0.00     0.033 H 
BRANCH  10  13
ATOM     13  C2  DKA d          13.510  -4.971  -0.066  0.00  0.00     0.016 C 
ATOM     14  H1  DKA d          13.550  -5.360   0.961  0.00  0.00     0.049 H 
ATOM     15  H2  DKA d          12.809  -5.574  -0.661  0.00  0.00     0.049 H 
BRANCH  13  16
ATOM     16  C1  DKA d          14.883  -5.056  -0.683  0.00  0.00     0.172 C 
ATOM     17  O1  DKA d          15.752  -5.737  -0.090  0.00  0.00    -0.648 OA
ATOM     18  O2  DKA d          15.094  -4.436  -1.749  0.00  0.00    -0.648 OA
ENDBRANCH  13  16
ENDBRANCH  10  13
ENDBRANCH   7  10
ENDBRANCH   4   7
ENDBRANCH   1   4
BRANCH   1  19
ATOM     19  C7  DKA d           8.881  -3.008   1.633  0.00  0.00    -0.065 C 
ATOM     20  H11 DKA d           9.494  -3.227   2.520  0.00  0.00     0.033 H 
ATOM     21  H12 DKA d           7.882  -3.450   1.760  0.00  0.00     0.033 H 
BRANCH  19  22
ATOM     22  C8  DKA d           8.751  -1.507   1.470  0.00  0.00    -0.065 C 
ATOM     23  H13 DKA d           9.545  -1.018   2.054  0.00  0.00     0.033 H 
ATOM     24  H14 DKA d           7.769  -1.194   1.854  0.00  0.00     0.033 H 
BRANCH  22  25
ATOM     25  C9  DKA d           8.870  -1.069   0.029  0.00  0.00    -0.069 C 
ATOM     26  H15 DKA d           8.034  -0.398  -0.215  0.00  0.00     0.032 H 
ATOM     27  H16 DKA d           8.832  -1.955  -0.622  0.00  0.00     0.032 H 
BRANCH  25  28
ATOM     28  C10 DKA d          10.176  -0.340  -0.203  0.00  0.00    -0.077 C 
ATOM     29  H17 DKA d          10.149   0.157  -1.183  0.00  0.00     0.027 H 
ATOM     30  H18 DKA d          11.007  -1.060  -0.180  0.00  0.00     0.027 H 
ATOM     31  H19 DKA d          10.321   0.413   0.587  0.00  0.00     0.027 H 
ENDBRANCH  25  28
ENDBRANCH  22  25
ENDBRANCH  19  22
ENDBRANCH   1  19
TORSDOF 9
ENDMDL
