MODEL 1
REMARK VINA RESULT:      -7.1      0.000      0.000
REMARK  23 active torsions:
REMARK  status: ('A' for Active; 'I' for Inactive)
REMARK    1  A    between atoms: N4B_18  and  C1A_1 
REMARK    2  A    between atoms: C2A_2  and  O2A_8 
REMARK    3  A    between atoms: C3A_3  and  O3A_9 
REMARK    4  A    between atoms: C4A_4  and  O4A_10 
REMARK    5  A    between atoms: C5A_5  and  C6A_6 
REMARK    6  A    between atoms: C6A_6  and  O6A_11 
REMARK    7  A    between atoms: O4C_30  and  C1B_12 
REMARK    8  A    between atoms: C2B_13  and  O2B_19 
REMARK    9  A    between atoms: C3B_14  and  O3B_20 
REMARK   10  A    between atoms: C4B_15  and  N4B_18 
REMARK   11  A    between atoms: C5B_16  and  C6B_17 
REMARK   12  A    between atoms: O4D_42  and  C1C_22 
REMARK   13  A    between atoms: C2C_23  and  O2C_28 
REMARK   14  A    between atoms: C3C_24  and  O3C_29 
REMARK   15  A    between atoms: C4C_25  and  O4C_30 
REMARK   16  A    between atoms: C5C_26  and  C6C_27 
REMARK   17  A    between atoms: C6C_27  and  O6C_32 
REMARK   18  A    between atoms: C1D_33  and  O1D_39 
REMARK   19  A    between atoms: C2D_34  and  O2D_40 
REMARK   20  A    between atoms: C3D_35  and  O3D_41 
REMARK   21  A    between atoms: C4D_36  and  O4D_42 
REMARK   22  A    between atoms: C5D_37  and  C6D_38 
REMARK   23  A    between atoms: C6D_38  and  O6D_44 
ROOT
ATOM      1  C1B ACR d         -18.076  -6.887  -5.334  0.00  0.00     0.159 C 
ATOM      2  C2B ACR d         -17.651  -5.698  -6.195  0.00  0.00     0.110 C 
ATOM      3  C3B ACR d         -18.783  -5.304  -7.157  0.00  0.00     0.094 C 
ATOM      4  C4B ACR d         -19.128  -6.484  -8.068  0.00  0.00     0.154 C 
ATOM      5  C5B ACR d         -19.529  -7.672  -7.168  0.00  0.00     0.068 C 
ATOM      6  O5B ACR d         -18.472  -7.945  -6.213  0.00  0.00    -0.351 OA
ATOM      7  H12 ACR d         -17.231  -7.219  -4.714  0.00  0.00     0.133 H 
ATOM      8  H13 ACR d         -16.755  -5.965  -6.774  0.00  0.00     0.094 H 
ATOM      9  H14 ACR d         -19.670  -5.019  -6.573  0.00  0.00     0.090 H 
ATOM     10  H15 ACR d         -18.205  -6.780  -8.588  0.00  0.00     0.092 H 
ATOM     11  H16 ACR d         -20.449  -7.404  -6.627  0.00  0.00     0.086 H 
ENDROOT
BRANCH   1  12
ATOM     12  O4C ACR d         -19.170  -6.498  -4.480  0.00  0.00    -0.348 OA
BRANCH  12  13
ATOM     13  C4C ACR d         -19.170  -7.041  -3.159  0.00  0.00     0.096 C 
ATOM     14  C3C ACR d         -18.795  -5.926  -2.183  0.00  0.00     0.092 C 
ATOM     15  C2C ACR d         -19.007  -6.306  -0.714  0.00  0.00     0.110 C 
ATOM     16  H26 ACR d         -19.448  -5.067  -2.395  0.00  0.00     0.091 H 
ATOM     17  C1C ACR d         -20.383  -6.919  -0.471  0.00  0.00     0.159 C 
ATOM     18  H25 ACR d         -18.225  -7.009  -0.391  0.00  0.00     0.094 H 
ATOM     19  O5C ACR d         -20.595  -7.981  -1.417  0.00  0.00    -0.348 OA
ATOM     20  H24 ACR d         -20.433  -7.320   0.552  0.00  0.00     0.133 H 
ATOM     21  C5C ACR d         -20.551  -7.609  -2.810  0.00  0.00     0.089 C 
ATOM     22  H28 ACR d         -21.299  -6.823  -2.993  0.00  0.00     0.090 H 
ATOM     23  H27 ACR d         -18.426  -7.849  -3.097  0.00  0.00     0.091 H 
BRANCH  14  24
ATOM     24  O3C ACR d         -17.439  -5.521  -2.413  0.00  0.00    -0.390 OA
ATOM     25  H32 ACR d         -17.369  -5.135  -3.278  0.00  0.00     0.210 HD
ENDBRANCH  14  24
BRANCH  15  26
ATOM     26  O2C ACR d         -18.938  -5.094   0.028  0.00  0.00    -0.388 OA
ATOM     27  H31 ACR d         -19.629  -5.083   0.680  0.00  0.00     0.210 HD
ENDBRANCH  15  26
BRANCH  17  28
ATOM     28  O4D ACR d         -21.389  -5.912  -0.639  0.00  0.00    -0.348 OA
BRANCH  28  29
ATOM     29  C4D ACR d         -22.522  -5.940   0.240  0.00  0.00     0.096 C 
ATOM     30  C3D ACR d         -22.319  -4.725   1.151  0.00  0.00     0.092 C 
ATOM     31  C2D ACR d         -23.495  -4.468   2.100  0.00  0.00     0.110 C 
ATOM     32  H36 ACR d         -22.233  -3.843   0.499  0.00  0.00     0.091 H 
ATOM     33  C1D ACR d         -24.878  -4.539   1.399  0.00  0.00     0.156 C 
ATOM     34  H35 ACR d         -23.483  -5.244   2.880  0.00  0.00     0.094 H 
ATOM     35  O5D ACR d         -24.977  -5.607   0.433  0.00  0.00    -0.349 OA
ATOM     36  H34 ACR d         -25.623  -4.738   2.183  0.00  0.00     0.133 H 
ATOM     37  C5D ACR d         -23.873  -5.759  -0.491  0.00  0.00     0.089 C 
ATOM     38  H38 ACR d         -23.793  -4.829  -1.075  0.00  0.00     0.090 H 
ATOM     39  H37 ACR d         -22.537  -6.878   0.815  0.00  0.00     0.091 H 
BRANCH  30  40
ATOM     40  O3D ACR d         -21.084  -4.845   1.887  0.00  0.00    -0.390 OA
ATOM     41  H43 ACR d         -21.106  -5.637   2.411  0.00  0.00     0.210 HD
ENDBRANCH  30  40
BRANCH  31  42
ATOM     42  O2D ACR d         -23.277  -3.187   2.725  0.00  0.00    -0.388 OA
ATOM     43  H42 ACR d         -22.349  -2.986   2.715  0.00  0.00     0.210 HD
ENDBRANCH  31  42
BRANCH  33  44
ATOM     44  O1D ACR d         -25.224  -3.289   0.776  0.00  0.00    -0.369 OA
ATOM     45  H41 ACR d         -24.924  -3.292  -0.125  0.00  0.00     0.212 HD
ENDBRANCH  33  44
BRANCH  37  46
ATOM     46  C6D ACR d         -24.220  -6.885  -1.470  0.00  0.00     0.043 C 
ATOM     47  H39 ACR d         -23.880  -6.612  -2.480  0.00  0.00     0.078 H 
ATOM     48  H40 ACR d         -25.308  -7.043  -1.479  0.00  0.00     0.078 H 
BRANCH  46  49
ATOM     49  O6D ACR d         -23.561  -8.093  -1.050  0.00  0.00    -0.398 OA
ATOM     50  H44 ACR d         -23.931  -8.384  -0.225  0.00  0.00     0.209 HD
ENDBRANCH  46  49
ENDBRANCH  37  46
ENDBRANCH  28  29
ENDBRANCH  17  28
BRANCH  21  51
ATOM     51  C6C ACR d         -20.918  -8.827  -3.652  0.00  0.00     0.043 C 
ATOM     52  H29 ACR d         -21.451  -8.499  -4.557  0.00  0.00     0.078 H 
ATOM     53  H30 ACR d         -21.567  -9.495  -3.066  0.00  0.00     0.078 H 
BRANCH  51  54
ATOM     54  O6C ACR d         -19.724  -9.529  -4.029  0.00  0.00    -0.398 OA
ATOM     55  H33 ACR d         -18.979  -9.150  -3.578  0.00  0.00     0.209 HD
ENDBRANCH  51  54
ENDBRANCH  21  51
ENDBRANCH  12  13
ENDBRANCH   1  12
BRANCH   2  56
ATOM     56  O2B ACR d         -17.361  -4.596  -5.338  0.00  0.00    -0.388 OA
ATOM     57  H22 ACR d         -16.720  -4.860  -4.688  0.00  0.00     0.210 HD
ENDBRANCH   2  56
BRANCH   3  58
ATOM     58  O3B ACR d         -18.383  -4.212  -7.977  0.00  0.00    -0.391 OA
ATOM     59  H23 ACR d         -17.478  -4.329  -8.241  0.00  0.00     0.210 HD
ENDBRANCH   3  58
BRANCH   5  60
ATOM     60  C6B ACR d         -19.779  -8.946  -7.967  0.00  0.00    -0.050 C 
ATOM     61  H17 ACR d         -19.402  -8.816  -8.992  0.00  0.00     0.031 H 
ATOM     62  H18 ACR d         -20.859  -9.154  -7.996  0.00  0.00     0.031 H 
ATOM     63  H19 ACR d         -19.256  -9.787  -7.489  0.00  0.00     0.031 H 
ENDBRANCH   5  60
BRANCH   4  64
ATOM     64  N4B ACR d         -20.088  -6.115  -9.130  0.00  0.00    -0.056 N 
ATOM     65  H20 ACR d         -20.825  -6.803  -9.118  0.00  0.00     0.278 HD
ATOM     66  H21 ACR d         -20.468  -5.213  -8.889  0.00  0.00     0.278 HD
BRANCH  64  67
ATOM     67  C1A ACR d         -19.593  -6.024 -10.530  0.00  0.00     0.146 C 
ATOM     68  C2A ACR d         -20.666  -5.709 -11.592  0.00  0.00     0.093 C 
ATOM     69  C3A ACR d         -21.573  -6.924 -11.787  0.00  0.00     0.091 C 
ATOM     70  H2  ACR d         -20.169  -5.469 -12.544  0.00  0.00     0.090 H 
ATOM     71  C4A ACR d         -20.761  -8.032 -12.429  0.00  0.00     0.086 C 
ATOM     72  H3  ACR d         -21.874  -7.264 -10.785  0.00  0.00     0.091 H 
ATOM     73  C5A ACR d         -19.428  -8.214 -11.732  0.00  0.00    -0.027 C 
ATOM     74  H4  ACR d         -20.578  -7.776 -13.482  0.00  0.00     0.094 H 
ATOM     75  C7A ACR d         -18.838  -7.270 -10.983  0.00  0.00    -0.064 C 
ATOM     76  H7  ACR d         -17.797  -7.396 -10.691  0.00  0.00     0.080 H 
ATOM     77  H1  ACR d         -18.879  -5.187 -10.541  0.00  0.00     0.095 H 
BRANCH  68  78
ATOM     78  O2A ACR d         -21.461  -4.602 -11.190  0.00  0.00    -0.390 OA
ATOM     79  H8  ACR d         -21.711  -4.706 -10.280  0.00  0.00     0.210 HD
ENDBRANCH  68  78
BRANCH  69  80
ATOM     80  O3A ACR d         -22.818  -6.680 -12.533  0.00  0.00    -0.390 OA
ATOM     81  H9  ACR d         -23.373  -7.449 -12.481  0.00  0.00     0.210 HD
ENDBRANCH  69  80
BRANCH  71  82
ATOM     82  O4A ACR d         -21.504  -9.249 -12.363  0.00  0.00    -0.388 OA
ATOM     83  H10 ACR d         -21.674  -9.467 -11.454  0.00  0.00     0.210 HD
ENDBRANCH  71  82
BRANCH  73  84
ATOM     84  C6A ACR d         -18.751  -9.530 -11.960  0.00  0.00     0.039 C 
ATOM     85  H5  ACR d         -19.433 -10.250 -12.434  0.00  0.00     0.081 H 
ATOM     86  H6  ACR d         -18.373  -9.949 -11.017  0.00  0.00     0.081 H 
BRANCH  84  87
ATOM     87  O6A ACR d         -17.668  -9.183 -12.844  0.00  0.00    -0.397 OA
ATOM     88  H11 ACR d         -17.887  -9.446 -13.731  0.00  0.00     0.209 HD
ENDBRANCH  84  87
ENDBRANCH  73  84
ENDBRANCH  64  67
ENDBRANCH   4  64
TORSDOF 23
ENDMDL
MODEL 2
REMARK VINA RESULT:      -6.9      1.022      2.052
REMARK  23 active torsions:
REMARK  status: ('A' for Active; 'I' for Inactive)
REMARK    1  A    between atoms: N4B_18  and  C1A_1 
REMARK    2  A    between atoms: C2A_2  and  O2A_8 
REMARK    3  A    between atoms: C3A_3  and  O3A_9 
REMARK    4  A    between atoms: C4A_4  and  O4A_10 
REMARK    5  A    between atoms: C5A_5  and  C6A_6 
REMARK    6  A    between atoms: C6A_6  and  O6A_11 
REMARK    7  A    between atoms: O4C_30  and  C1B_12 
REMARK    8  A    between atoms: C2B_13  and  O2B_19 
REMARK    9  A    between atoms: C3B_14  and  O3B_20 
REMARK   10  A    between atoms: C4B_15  and  N4B_18 
REMARK   11  A    between atoms: C5B_16  and  C6B_17 
REMARK   12  A    between atoms: O4D_42  and  C1C_22 
REMARK   13  A    between atoms: C2C_23  and  O2C_28 
REMARK   14  A    between atoms: C3C_24  and  O3C_29 
REMARK   15  A    between atoms: C4C_25  and  O4C_30 
REMARK   16  A    between atoms: C5C_26  and  C6C_27 
REMARK   17  A    between atoms: C6C_27  and  O6C_32 
REMARK   18  A    between atoms: C1D_33  and  O1D_39 
REMARK   19  A    between atoms: C2D_34  and  O2D_40 
REMARK   20  A    between atoms: C3D_35  and  O3D_41 
REMARK   21  A    between atoms: C4D_36  and  O4D_42 
REMARK   22  A    between atoms: C5D_37  and  C6D_38 
REMARK   23  A    between atoms: C6D_38  and  O6D_44 
ROOT
ATOM      1  C1B ACR d         -18.178  -6.822  -5.368  0.00  0.00     0.159 C 
ATOM      2  C2B ACR d         -17.690  -5.692  -6.274  0.00  0.00     0.110 C 
ATOM      3  C3B ACR d         -18.799  -5.280  -7.257  0.00  0.00     0.094 C 
ATOM      4  C4B ACR d         -19.202  -6.476  -8.120  0.00  0.00     0.154 C 
ATOM      5  C5B ACR d         -19.666  -7.604  -7.174  0.00  0.00     0.068 C 
ATOM      6  O5B ACR d         -18.626  -7.893  -6.205  0.00  0.00    -0.351 OA
ATOM      7  H12 ACR d         -17.352  -7.172  -4.732  0.00  0.00     0.133 H 
ATOM      8  H13 ACR d         -16.808  -6.028  -6.839  0.00  0.00     0.094 H 
ATOM      9  H14 ACR d         -19.671  -4.926  -6.688  0.00  0.00     0.090 H 
ATOM     10  H15 ACR d         -18.295  -6.840  -8.624  0.00  0.00     0.092 H 
ATOM     11  H16 ACR d         -20.572  -7.268  -6.649  0.00  0.00     0.086 H 
ENDROOT
BRANCH   1  12
ATOM     12  O4C ACR d         -19.252  -6.343  -4.535  0.00  0.00    -0.348 OA
BRANCH  12  13
ATOM     13  C4C ACR d         -19.297  -6.851  -3.201  0.00  0.00     0.096 C 
ATOM     14  C3C ACR d         -18.891  -5.728  -2.247  0.00  0.00     0.092 C 
ATOM     15  C2C ACR d         -19.144  -6.059  -0.773  0.00  0.00     0.110 C 
ATOM     16  H26 ACR d         -19.504  -4.847  -2.493  0.00  0.00     0.091 H 
ATOM     17  C1C ACR d         -20.548  -6.607  -0.538  0.00  0.00     0.159 C 
ATOM     18  H25 ACR d         -18.398  -6.786  -0.418  0.00  0.00     0.094 H 
ATOM     19  O5C ACR d         -20.789  -7.684  -1.460  0.00  0.00    -0.348 OA
ATOM     20  H24 ACR d         -20.632  -6.979   0.494  0.00  0.00     0.133 H 
ATOM     21  C5C ACR d         -20.706  -7.351  -2.862  0.00  0.00     0.089 C 
ATOM     22  H28 ACR d         -21.417  -6.540  -3.078  0.00  0.00     0.090 H 
ATOM     23  H27 ACR d         -18.589  -7.687  -3.105  0.00  0.00     0.091 H 
BRANCH  14  24
ATOM     24  O3C ACR d         -17.516  -5.386  -2.464  0.00  0.00    -0.390 OA
ATOM     25  H32 ACR d         -17.013  -5.594  -1.686  0.00  0.00     0.210 HD
ENDBRANCH  14  24
BRANCH  15  26
ATOM     26  O2C ACR d         -19.035  -4.832  -0.061  0.00  0.00    -0.388 OA
ATOM     27  H31 ACR d         -19.833  -4.682   0.433  0.00  0.00     0.210 HD
ENDBRANCH  15  26
BRANCH  17  28
ATOM     28  O4D ACR d         -21.508  -5.564  -0.750  0.00  0.00    -0.348 OA
BRANCH  28  29
ATOM     29  C4D ACR d         -22.711  -5.588   0.031  0.00  0.00     0.096 C 
ATOM     30  C3D ACR d         -23.662  -6.479  -0.774  0.00  0.00     0.092 C 
ATOM     31  C2D ACR d         -24.986  -6.766  -0.057  0.00  0.00     0.110 C 
ATOM     32  H36 ACR d         -23.156  -7.446  -0.916  0.00  0.00     0.091 H 
ATOM     33  C1D ACR d         -24.804  -7.174   1.429  0.00  0.00     0.156 C 
ATOM     34  H35 ACR d         -25.592  -5.848  -0.073  0.00  0.00     0.094 H 
ATOM     35  O5D ACR d         -23.787  -6.412   2.113  0.00  0.00    -0.349 OA
ATOM     36  H34 ACR d         -25.760  -6.972   1.935  0.00  0.00     0.133 H 
ATOM     37  C5D ACR d         -22.527  -6.234   1.424  0.00  0.00     0.089 C 
ATOM     38  H38 ACR d         -22.094  -7.231   1.255  0.00  0.00     0.090 H 
ATOM     39  H37 ACR d         -23.112  -4.570   0.146  0.00  0.00     0.091 H 
BRANCH  30  40
ATOM     40  O3D ACR d         -23.899  -5.916  -2.081  0.00  0.00    -0.390 OA
ATOM     41  H43 ACR d         -23.082  -5.884  -2.564  0.00  0.00     0.210 HD
ENDBRANCH  30  40
BRANCH  31  42
ATOM     42  O2D ACR d         -25.677  -7.784  -0.810  0.00  0.00    -0.388 OA
ATOM     43  H42 ACR d         -26.612  -7.702  -0.666  0.00  0.00     0.210 HD
ENDBRANCH  31  42
BRANCH  33  44
ATOM     44  O1D ACR d         -24.529  -8.579   1.566  0.00  0.00    -0.369 OA
ATOM     45  H41 ACR d         -23.624  -8.748   1.334  0.00  0.00     0.212 HD
ENDBRANCH  33  44
BRANCH  37  46
ATOM     46  C6D ACR d         -21.576  -5.475   2.354  0.00  0.00     0.043 C 
ATOM     47  H39 ACR d         -20.628  -6.027   2.442  0.00  0.00     0.078 H 
ATOM     48  H40 ACR d         -22.036  -5.374   3.349  0.00  0.00     0.078 H 
BRANCH  46  49
ATOM     49  O6D ACR d         -21.324  -4.169   1.805  0.00  0.00    -0.398 OA
ATOM     50  H44 ACR d         -22.006  -3.571   2.086  0.00  0.00     0.209 HD
ENDBRANCH  46  49
ENDBRANCH  37  46
ENDBRANCH  28  29
ENDBRANCH  17  28
BRANCH  21  51
ATOM     51  C6C ACR d         -21.110  -8.574  -3.678  0.00  0.00     0.043 C 
ATOM     52  H29 ACR d         -21.572  -8.248  -4.622  0.00  0.00     0.078 H 
ATOM     53  H30 ACR d         -21.832  -9.175  -3.105  0.00  0.00     0.078 H 
BRANCH  51  54
ATOM     54  O6C ACR d         -19.949  -9.368  -3.965  0.00  0.00    -0.398 OA
ATOM     55  H33 ACR d         -20.165 -10.015  -4.625  0.00  0.00     0.209 HD
ENDBRANCH  51  54
ENDBRANCH  21  51
ENDBRANCH  12  13
ENDBRANCH   1  12
BRANCH   2  56
ATOM     56  O2B ACR d         -17.346  -4.573  -5.461  0.00  0.00    -0.388 OA
ATOM     57  H22 ACR d         -16.453  -4.670  -5.151  0.00  0.00     0.210 HD
ENDBRANCH   2  56
BRANCH   3  58
ATOM     58  O3B ACR d         -18.342  -4.243  -8.118  0.00  0.00    -0.391 OA
ATOM     59  H23 ACR d         -17.477  -3.963  -7.843  0.00  0.00     0.210 HD
ENDBRANCH   3  58
BRANCH   5  60
ATOM     60  C6B ACR d         -19.980  -8.895  -7.923  0.00  0.00    -0.050 C 
ATOM     61  H17 ACR d         -21.069  -9.051  -7.944  0.00  0.00     0.031 H 
ATOM     62  H18 ACR d         -19.498  -9.742  -7.412  0.00  0.00     0.031 H 
ATOM     63  H19 ACR d         -19.601  -8.824  -8.953  0.00  0.00     0.031 H 
ENDBRANCH   5  60
BRANCH   4  64
ATOM     64  N4B ACR d         -20.141  -6.101  -9.200  0.00  0.00    -0.056 N 
ATOM     65  H20 ACR d         -20.888  -6.779  -9.194  0.00  0.00     0.278 HD
ATOM     66  H21 ACR d         -20.510  -5.192  -8.971  0.00  0.00     0.278 HD
BRANCH  64  67
ATOM     67  C1A ACR d         -19.622  -6.029 -10.593  0.00  0.00     0.146 C 
ATOM     68  C2A ACR d         -20.674  -5.710 -11.674  0.00  0.00     0.093 C 
ATOM     69  C3A ACR d         -21.593  -6.916 -11.874  0.00  0.00     0.091 C 
ATOM     70  H2  ACR d         -20.159  -5.484 -12.620  0.00  0.00     0.090 H 
ATOM     71  C4A ACR d         -20.783  -8.039 -12.493  0.00  0.00     0.086 C 
ATOM     72  H3  ACR d         -21.913  -7.243 -10.874  0.00  0.00     0.091 H 
ATOM     73  C5A ACR d         -19.465  -8.231 -11.774  0.00  0.00    -0.027 C 
ATOM     74  H4  ACR d         -20.581  -7.794 -13.546  0.00  0.00     0.094 H 
ATOM     75  C7A ACR d         -18.875  -7.288 -11.023  0.00  0.00    -0.064 C 
ATOM     76  H7  ACR d         -17.840  -7.424 -10.713  0.00  0.00     0.080 H 
ATOM     77  H1  ACR d         -18.898  -5.201 -10.599  0.00  0.00     0.095 H 
BRANCH  68  78
ATOM     78  O2A ACR d         -21.462  -4.590 -11.295  0.00  0.00    -0.390 OA
ATOM     79  H8  ACR d         -21.420  -3.928 -11.976  0.00  0.00     0.210 HD
ENDBRANCH  68  78
BRANCH  69  80
ATOM     80  O3A ACR d         -22.823  -6.663 -12.642  0.00  0.00    -0.390 OA
ATOM     81  H9  ACR d         -23.439  -7.371 -12.493  0.00  0.00     0.210 HD
ENDBRANCH  69  80
BRANCH  71  82
ATOM     82  O4A ACR d         -21.543  -9.246 -12.429  0.00  0.00    -0.388 OA
ATOM     83  H10 ACR d         -22.398  -9.102 -12.816  0.00  0.00     0.210 HD
ENDBRANCH  71  82
BRANCH  73  84
ATOM     84  C6A ACR d         -18.800  -9.556 -11.980  0.00  0.00     0.039 C 
ATOM     85  H5  ACR d         -19.450 -10.242 -12.542  0.00  0.00     0.081 H 
ATOM     86  H6  ACR d         -18.526 -10.015 -11.019  0.00  0.00     0.081 H 
BRANCH  84  87
ATOM     87  O6A ACR d         -17.628  -9.211 -12.743  0.00  0.00    -0.397 OA
ATOM     88  H11 ACR d         -17.891  -8.771 -13.543  0.00  0.00     0.209 HD
ENDBRANCH  84  87
ENDBRANCH  73  84
ENDBRANCH  64  67
ENDBRANCH   4  64
TORSDOF 23
ENDMDL
MODEL 3
REMARK VINA RESULT:      -6.2      1.978      2.574
REMARK  23 active torsions:
REMARK  status: ('A' for Active; 'I' for Inactive)
REMARK    1  A    between atoms: N4B_18  and  C1A_1 
REMARK    2  A    between atoms: C2A_2  and  O2A_8 
REMARK    3  A    between atoms: C3A_3  and  O3A_9 
REMARK    4  A    between atoms: C4A_4  and  O4A_10 
REMARK    5  A    between atoms: C5A_5  and  C6A_6 
REMARK    6  A    between atoms: C6A_6  and  O6A_11 
REMARK    7  A    between atoms: O4C_30  and  C1B_12 
REMARK    8  A    between atoms: C2B_13  and  O2B_19 
REMARK    9  A    between atoms: C3B_14  and  O3B_20 
REMARK   10  A    between atoms: C4B_15  and  N4B_18 
REMARK   11  A    between atoms: C5B_16  and  C6B_17 
REMARK   12  A    between atoms: O4D_42  and  C1C_22 
REMARK   13  A    between atoms: C2C_23  and  O2C_28 
REMARK   14  A    between atoms: C3C_24  and  O3C_29 
REMARK   15  A    between atoms: C4C_25  and  O4C_30 
REMARK   16  A    between atoms: C5C_26  and  C6C_27 
REMARK   17  A    between atoms: C6C_27  and  O6C_32 
REMARK   18  A    between atoms: C1D_33  and  O1D_39 
REMARK   19  A    between atoms: C2D_34  and  O2D_40 
REMARK   20  A    between atoms: C3D_35  and  O3D_41 
REMARK   21  A    between atoms: C4D_36  and  O4D_42 
REMARK   22  A    between atoms: C5D_37  and  C6D_38 
REMARK   23  A    between atoms: C6D_38  and  O6D_44 
ROOT
ATOM      1  C1B ACR d         -18.075  -6.874  -5.401  0.00  0.00     0.159 C 
ATOM      2  C2B ACR d         -17.738  -5.640  -6.237  0.00  0.00     0.110 C 
ATOM      3  C3B ACR d         -18.896  -5.309  -7.191  0.00  0.00     0.094 C 
ATOM      4  C4B ACR d         -19.157  -6.491  -8.126  0.00  0.00     0.154 C 
ATOM      5  C5B ACR d         -19.471  -7.723  -7.250  0.00  0.00     0.068 C 
ATOM      6  O5B ACR d         -18.396  -7.939  -6.301  0.00  0.00    -0.351 OA
ATOM      7  H12 ACR d         -17.208  -7.158  -4.788  0.00  0.00     0.133 H 
ATOM      8  H13 ACR d         -16.825  -5.831  -6.822  0.00  0.00     0.094 H 
ATOM      9  H14 ACR d         -19.801  -5.100  -6.601  0.00  0.00     0.090 H 
ATOM     10  H15 ACR d         -18.216  -6.709  -8.652  0.00  0.00     0.092 H 
ATOM     11  H16 ACR d         -20.407  -7.533  -6.705  0.00  0.00     0.086 H 
ENDROOT
BRANCH   1  12
ATOM     12  O4C ACR d         -19.193  -6.582  -4.539  0.00  0.00    -0.348 OA
BRANCH  12  13
ATOM     13  C4C ACR d         -18.968  -6.720  -3.136  0.00  0.00     0.096 C 
ATOM     14  C3C ACR d         -19.659  -5.556  -2.424  0.00  0.00     0.092 C 
ATOM     15  C2C ACR d         -19.714  -5.720  -0.902  0.00  0.00     0.110 C 
ATOM     16  H26 ACR d         -20.697  -5.517  -2.786  0.00  0.00     0.091 H 
ATOM     17  C1C ACR d         -20.218  -7.099  -0.489  0.00  0.00     0.159 C 
ATOM     18  H25 ACR d         -18.719  -5.544  -0.468  0.00  0.00     0.094 H 
ATOM     19  O5C ACR d         -19.460  -8.102  -1.188  0.00  0.00    -0.348 OA
ATOM     20  H24 ACR d         -20.091  -7.230   0.596  0.00  0.00     0.133 H 
ATOM     21  C5C ACR d         -19.522  -8.056  -2.629  0.00  0.00     0.089 C 
ATOM     22  H28 ACR d         -20.573  -8.130  -2.943  0.00  0.00     0.090 H 
ATOM     23  H27 ACR d         -17.887  -6.682  -2.935  0.00  0.00     0.091 H 
BRANCH  14  24
ATOM     24  O3C ACR d         -19.018  -4.325  -2.781  0.00  0.00    -0.390 OA
ATOM     25  H32 ACR d         -19.466  -3.602  -2.358  0.00  0.00     0.210 HD
ENDBRANCH  14  24
BRANCH  15  26
ATOM     26  O2C ACR d         -20.651  -4.759  -0.429  0.00  0.00    -0.388 OA
ATOM     27  H31 ACR d         -20.253  -3.896  -0.446  0.00  0.00     0.210 HD
ENDBRANCH  15  26
BRANCH  17  28
ATOM     28  O4D ACR d         -21.607  -7.220  -0.825  0.00  0.00    -0.348 OA
BRANCH  28  29
ATOM     29  C4D ACR d         -22.148  -8.538  -0.987  0.00  0.00     0.096 C 
ATOM     30  C3D ACR d         -22.601  -8.932   0.422  0.00  0.00     0.092 C 
ATOM     31  C2D ACR d         -23.347 -10.271   0.474  0.00  0.00     0.110 C 
ATOM     32  H36 ACR d         -23.304  -8.158   0.764  0.00  0.00     0.091 H 
ATOM     33  C1D ACR d         -24.430 -10.412  -0.628  0.00  0.00     0.156 C 
ATOM     34  H35 ACR d         -22.616 -11.078   0.320  0.00  0.00     0.094 H 
ATOM     35  O5D ACR d         -24.019  -9.887  -1.908  0.00  0.00    -0.349 OA
ATOM     36  H34 ACR d         -24.612 -11.489  -0.760  0.00  0.00     0.133 H 
ATOM     37  C5D ACR d         -23.388  -8.585  -1.910  0.00  0.00     0.089 C 
ATOM     38  H38 ACR d         -24.110  -7.861  -1.505  0.00  0.00     0.090 H 
ATOM     39  H37 ACR d         -21.377  -9.223  -1.369  0.00  0.00     0.091 H 
BRANCH  30  40
ATOM     40  O3D ACR d         -21.481  -8.936   1.332  0.00  0.00    -0.390 OA
ATOM     41  H43 ACR d         -21.801  -8.949   2.226  0.00  0.00     0.210 HD
ENDBRANCH  30  40
BRANCH  31  42
ATOM     42  O2D ACR d         -23.907 -10.405   1.795  0.00  0.00    -0.388 OA
ATOM     43  H42 ACR d         -23.220 -10.292   2.442  0.00  0.00     0.210 HD
ENDBRANCH  31  42
BRANCH  33  44
ATOM     44  O1D ACR d         -25.674  -9.806  -0.234  0.00  0.00    -0.369 OA
ATOM     45  H41 ACR d         -25.528  -8.890  -0.031  0.00  0.00     0.212 HD
ENDBRANCH  33  44
BRANCH  37  46
ATOM     46  C6D ACR d         -23.111  -8.190  -3.364  0.00  0.00     0.043 C 
ATOM     47  H39 ACR d         -22.417  -7.337  -3.387  0.00  0.00     0.078 H 
ATOM     48  H40 ACR d         -24.054  -7.909  -3.855  0.00  0.00     0.078 H 
BRANCH  46  49
ATOM     49  O6D ACR d         -22.523  -9.308  -4.053  0.00  0.00    -0.398 OA
ATOM     50  H44 ACR d         -22.415  -9.091  -4.971  0.00  0.00     0.209 HD
ENDBRANCH  46  49
ENDBRANCH  37  46
ENDBRANCH  28  29
ENDBRANCH  17  28
BRANCH  21  51
ATOM     51  C6C ACR d         -18.767  -9.257  -3.188  0.00  0.00     0.043 C 
ATOM     52  H29 ACR d         -18.683 -10.031  -2.411  0.00  0.00     0.078 H 
ATOM     53  H30 ACR d         -17.761  -8.943  -3.504  0.00  0.00     0.078 H 
BRANCH  51  54
ATOM     54  O6C ACR d         -19.477  -9.790  -4.316  0.00  0.00    -0.398 OA
ATOM     55  H33 ACR d         -18.883  -9.871  -5.053  0.00  0.00     0.209 HD
ENDBRANCH  51  54
ENDBRANCH  21  51
ENDBRANCH  12  13
ENDBRANCH   1  12
BRANCH   2  56
ATOM     56  O2B ACR d         -17.526  -4.538  -5.357  0.00  0.00    -0.388 OA
ATOM     57  H22 ACR d         -16.603  -4.313  -5.349  0.00  0.00     0.210 HD
ENDBRANCH   2  56
BRANCH   3  58
ATOM     58  O3B ACR d         -18.577  -4.174  -7.988  0.00  0.00    -0.391 OA
ATOM     59  H23 ACR d         -19.359  -3.650  -8.119  0.00  0.00     0.210 HD
ENDBRANCH   3  58
BRANCH   5  60
ATOM     60  C6B ACR d         -19.631  -8.995  -8.076  0.00  0.00    -0.050 C 
ATOM     61  H17 ACR d         -18.790  -9.083  -8.780  0.00  0.00     0.031 H 
ATOM     62  H18 ACR d         -20.576  -8.952  -8.636  0.00  0.00     0.031 H 
ATOM     63  H19 ACR d         -19.640  -9.868  -7.406  0.00  0.00     0.031 H 
ENDBRANCH   5  60
BRANCH   4  64
ATOM     64  N4B ACR d         -20.143  -6.170  -9.180  0.00  0.00    -0.056 N 
ATOM     65  H20 ACR d         -20.835  -6.904  -9.176  0.00  0.00     0.278 HD
ATOM     66  H21 ACR d         -20.578  -5.297  -8.926  0.00  0.00     0.278 HD
BRANCH  64  67
ATOM     67  C1A ACR d         -19.660  -6.029 -10.580  0.00  0.00     0.146 C 
ATOM     68  C2A ACR d         -20.735  -5.641 -11.616  0.00  0.00     0.093 C 
ATOM     69  C3A ACR d         -21.674  -6.824 -11.854  0.00  0.00     0.091 C 
ATOM     70  H2  ACR d         -20.241  -5.371 -12.561  0.00  0.00     0.090 H 
ATOM     71  C4A ACR d         -20.895  -7.921 -12.553  0.00  0.00     0.086 C 
ATOM     72  H3  ACR d         -21.973  -7.200 -10.865  0.00  0.00     0.091 H 
ATOM     73  C5A ACR d         -19.561  -8.166 -11.881  0.00  0.00    -0.027 C 
ATOM     74  H4  ACR d         -20.717  -7.623 -13.597  0.00  0.00     0.094 H 
ATOM     75  C7A ACR d         -18.940  -7.272 -11.096  0.00  0.00    -0.064 C 
ATOM     76  H7  ACR d         -17.899  -7.436 -10.822  0.00  0.00     0.080 H 
ATOM     77  H1  ACR d         -18.925  -5.210 -10.562  0.00  0.00     0.095 H 
BRANCH  68  78
ATOM     78  O2A ACR d         -21.498  -4.533 -11.156  0.00  0.00    -0.390 OA
ATOM     79  H8  ACR d         -21.649  -4.619 -10.222  0.00  0.00     0.210 HD
ENDBRANCH  68  78
BRANCH  69  80
ATOM     80  O3A ACR d         -22.920  -6.516 -12.575  0.00  0.00    -0.390 OA
ATOM     81  H9  ACR d         -23.402  -7.320 -12.730  0.00  0.00     0.210 HD
ENDBRANCH  69  80
BRANCH  71  82
ATOM     82  O4A ACR d         -21.668  -9.121 -12.534  0.00  0.00    -0.388 OA
ATOM     83  H10 ACR d         -22.086  -9.242 -13.379  0.00  0.00     0.210 HD
ENDBRANCH  71  82
BRANCH  73  84
ATOM     84  C6A ACR d         -18.919  -9.487 -12.174  0.00  0.00     0.039 C 
ATOM     85  H5  ACR d         -18.533  -9.519 -13.203  0.00  0.00     0.081 H 
ATOM     86  H6  ACR d         -19.626 -10.314 -12.021  0.00  0.00     0.081 H 
BRANCH  84  87
ATOM     87  O6A ACR d         -17.844  -9.539 -11.216  0.00  0.00    -0.397 OA
ATOM     88  H11 ACR d         -18.151  -9.960 -10.421  0.00  0.00     0.209 HD
ENDBRANCH  84  87
ENDBRANCH  73  84
ENDBRANCH  64  67
ENDBRANCH   4  64
TORSDOF 23
ENDMDL
MODEL 4
REMARK VINA RESULT:      -5.2      2.252      4.107
REMARK  23 active torsions:
REMARK  status: ('A' for Active; 'I' for Inactive)
REMARK    1  A    between atoms: N4B_18  and  C1A_1 
REMARK    2  A    between atoms: C2A_2  and  O2A_8 
REMARK    3  A    between atoms: C3A_3  and  O3A_9 
REMARK    4  A    between atoms: C4A_4  and  O4A_10 
REMARK    5  A    between atoms: C5A_5  and  C6A_6 
REMARK    6  A    between atoms: C6A_6  and  O6A_11 
REMARK    7  A    between atoms: O4C_30  and  C1B_12 
REMARK    8  A    between atoms: C2B_13  and  O2B_19 
REMARK    9  A    between atoms: C3B_14  and  O3B_20 
REMARK   10  A    between atoms: C4B_15  and  N4B_18 
REMARK   11  A    between atoms: C5B_16  and  C6B_17 
REMARK   12  A    between atoms: O4D_42  and  C1C_22 
REMARK   13  A    between atoms: C2C_23  and  O2C_28 
REMARK   14  A    between atoms: C3C_24  and  O3C_29 
REMARK   15  A    between atoms: C4C_25  and  O4C_30 
REMARK   16  A    between atoms: C5C_26  and  C6C_27 
REMARK   17  A    between atoms: C6C_27  and  O6C_32 
REMARK   18  A    between atoms: C1D_33  and  O1D_39 
REMARK   19  A    between atoms: C2D_34  and  O2D_40 
REMARK   20  A    between atoms: C3D_35  and  O3D_41 
REMARK   21  A    between atoms: C4D_36  and  O4D_42 
REMARK   22  A    between atoms: C5D_37  and  C6D_38 
REMARK   23  A    between atoms: C6D_38  and  O6D_44 
ROOT
ATOM      1  C1B ACR d         -18.980  -6.107  -4.630  0.00  0.00     0.159 C 
ATOM      2  C2B ACR d         -18.284  -5.293  -5.719  0.00  0.00     0.110 C 
ATOM      3  C3B ACR d         -19.202  -5.143  -6.943  0.00  0.00     0.094 C 
ATOM      4  C4B ACR d         -19.560  -6.521  -7.499  0.00  0.00     0.154 C 
ATOM      5  C5B ACR d         -20.239  -7.323  -6.369  0.00  0.00     0.068 C 
ATOM      6  O5B ACR d         -19.377  -7.357  -5.202  0.00  0.00    -0.351 OA
ATOM      7  H12 ACR d         -18.286  -6.286  -3.797  0.00  0.00     0.133 H 
ATOM      8  H13 ACR d         -17.355  -5.799  -6.019  0.00  0.00     0.094 H 
ATOM      9  H14 ACR d         -20.121  -4.618  -6.642  0.00  0.00     0.090 H 
ATOM     10  H15 ACR d         -18.617  -7.038  -7.731  0.00  0.00     0.092 H 
ATOM     11  H16 ACR d         -21.185  -6.827  -6.109  0.00  0.00     0.086 H 
ENDROOT
BRANCH   1  12
ATOM     12  O4C ACR d         -20.128  -5.382  -4.145  0.00  0.00    -0.348 OA
BRANCH  12  13
ATOM     13  C4C ACR d         -20.445  -5.543  -2.762  0.00  0.00     0.096 C 
ATOM     14  C3C ACR d         -21.597  -6.543  -2.649  0.00  0.00     0.092 C 
ATOM     15  C2C ACR d         -21.866  -7.002  -1.213  0.00  0.00     0.110 C 
ATOM     16  H26 ACR d         -21.319  -7.435  -3.230  0.00  0.00     0.091 H 
ATOM     17  C1C ACR d         -20.589  -7.430  -0.496  0.00  0.00     0.159 C 
ATOM     18  H25 ACR d         -22.357  -6.197  -0.646  0.00  0.00     0.094 H 
ATOM     19  O5C ACR d         -19.606  -6.390  -0.635  0.00  0.00    -0.348 OA
ATOM     20  H24 ACR d         -20.801  -7.597   0.570  0.00  0.00     0.133 H 
ATOM     21  C5C ACR d         -19.225  -6.050  -1.985  0.00  0.00     0.089 C 
ATOM     22  H28 ACR d         -18.852  -6.954  -2.488  0.00  0.00     0.090 H 
ATOM     23  H27 ACR d         -20.758  -4.575  -2.344  0.00  0.00     0.091 H 
BRANCH  14  24
ATOM     24  O3C ACR d         -22.779  -5.983  -3.234  0.00  0.00    -0.390 OA
ATOM     25  H32 ACR d         -22.541  -5.474  -4.000  0.00  0.00     0.210 HD
ENDBRANCH  14  24
BRANCH  15  26
ATOM     26  O2C ACR d         -22.710  -8.144  -1.308  0.00  0.00    -0.388 OA
ATOM     27  H31 ACR d         -23.608  -7.862  -1.443  0.00  0.00     0.210 HD
ENDBRANCH  15  26
BRANCH  17  28
ATOM     28  O4D ACR d         -20.097  -8.643  -1.081  0.00  0.00    -0.348 OA
BRANCH  28  29
ATOM     29  C4D ACR d         -19.481  -9.606  -0.215  0.00  0.00     0.096 C 
ATOM     30  C3D ACR d         -18.033  -9.122  -0.088  0.00  0.00     0.092 C 
ATOM     31  C2D ACR d         -17.203  -9.933   0.914  0.00  0.00     0.110 C 
ATOM     32  H36 ACR d         -18.069  -8.088   0.285  0.00  0.00     0.091 H 
ATOM     33  C1D ACR d         -17.934 -10.177   2.261  0.00  0.00     0.156 C 
ATOM     34  H35 ACR d         -16.994 -10.917   0.471  0.00  0.00     0.094 H 
ATOM     35  O5D ACR d         -19.337 -10.480   2.106  0.00  0.00    -0.349 OA
ATOM     36  H34 ACR d         -17.460 -11.055   2.726  0.00  0.00     0.133 H 
ATOM     37  C5D ACR d         -20.093  -9.637   1.205  0.00  0.00     0.089 C 
ATOM     38  H38 ACR d         -20.047  -8.607   1.591  0.00  0.00     0.090 H 
ATOM     39  H37 ACR d         -19.534 -10.610  -0.662  0.00  0.00     0.091 H 
BRANCH  30  40
ATOM     40  O3D ACR d         -17.392  -9.097  -1.380  0.00  0.00    -0.390 OA
ATOM     41  H43 ACR d         -18.007  -8.780  -2.031  0.00  0.00     0.210 HD
ENDBRANCH  30  40
BRANCH  31  42
ATOM     42  O2D ACR d         -15.952  -9.240   1.102  0.00  0.00    -0.388 OA
ATOM     43  H42 ACR d         -16.008  -8.694   1.878  0.00  0.00     0.210 HD
ENDBRANCH  31  42
BRANCH  33  44
ATOM     44  O1D ACR d         -17.775  -9.068   3.163  0.00  0.00    -0.369 OA
ATOM     45  H41 ACR d         -18.278  -8.328   2.844  0.00  0.00     0.212 HD
ENDBRANCH  33  44
BRANCH  37  46
ATOM     46  C6D ACR d         -21.559 -10.078   1.254  0.00  0.00     0.043 C 
ATOM     47  H39 ACR d         -22.194  -9.219   1.517  0.00  0.00     0.078 H 
ATOM     48  H40 ACR d         -21.681 -10.869   2.008  0.00  0.00     0.078 H 
BRANCH  46  49
ATOM     49  O6D ACR d         -21.942 -10.582  -0.039  0.00  0.00    -0.398 OA
ATOM     50  H44 ACR d         -21.240 -11.118  -0.389  0.00  0.00     0.209 HD
ENDBRANCH  46  49
ENDBRANCH  37  46
ENDBRANCH  28  29
ENDBRANCH  17  28
BRANCH  21  51
ATOM     51  C6C ACR d         -18.094  -5.029  -1.931  0.00  0.00     0.043 C 
ATOM     52  H29 ACR d         -17.298  -5.327  -2.627  0.00  0.00     0.078 H 
ATOM     53  H30 ACR d         -17.690  -4.984  -0.908  0.00  0.00     0.078 H 
BRANCH  51  54
ATOM     54  O6C ACR d         -18.594  -3.736  -2.304  0.00  0.00    -0.398 OA
ATOM     55  H33 ACR d         -18.049  -3.063  -1.914  0.00  0.00     0.209 HD
ENDBRANCH  51  54
ENDBRANCH  21  51
ENDBRANCH  12  13
ENDBRANCH   1  12
BRANCH   2  56
ATOM     56  O2B ACR d         -17.982  -3.999  -5.199  0.00  0.00    -0.388 OA
ATOM     57  H22 ACR d         -18.644  -3.753  -4.563  0.00  0.00     0.210 HD
ENDBRANCH   2  56
BRANCH   3  58
ATOM     58  O3B ACR d         -18.549  -4.404  -7.969  0.00  0.00    -0.391 OA
ATOM     59  H23 ACR d         -17.741  -4.843  -8.208  0.00  0.00     0.210 HD
ENDBRANCH   3  58
BRANCH   5  60
ATOM     60  C6B ACR d         -20.532  -8.764  -6.776  0.00  0.00    -0.050 C 
ATOM     61  H17 ACR d         -19.961  -9.012  -7.683  0.00  0.00     0.031 H 
ATOM     62  H18 ACR d         -21.608  -8.875  -6.977  0.00  0.00     0.031 H 
ATOM     63  H19 ACR d         -20.239  -9.442  -5.961  0.00  0.00     0.031 H 
ENDBRANCH   5  60
BRANCH   4  64
ATOM     64  N4B ACR d         -20.299  -6.439  -8.778  0.00  0.00    -0.056 N 
ATOM     65  H20 ACR d         -20.794  -7.310  -8.892  0.00  0.00     0.278 HD
ATOM     66  H21 ACR d         -20.961  -5.685  -8.691  0.00  0.00     0.278 HD
BRANCH  64  67
ATOM     67  C1A ACR d         -19.525  -6.205 -10.027  0.00  0.00     0.146 C 
ATOM     68  C2A ACR d         -20.365  -5.822 -11.263  0.00  0.00     0.093 C 
ATOM     69  C3A ACR d         -21.153  -7.039 -11.750  0.00  0.00     0.091 C 
ATOM     70  H2  ACR d         -19.690  -5.481 -12.062  0.00  0.00     0.090 H 
ATOM     71  C4A ACR d         -20.172  -8.059 -12.295  0.00  0.00     0.086 C 
ATOM     72  H3  ACR d         -21.641  -7.478 -10.868  0.00  0.00     0.091 H 
ATOM     73  C5A ACR d         -19.009  -8.268 -11.349  0.00  0.00    -0.027 C 
ATOM     74  H4  ACR d         -19.784  -7.701 -13.260  0.00  0.00     0.094 H 
ATOM     75  C7A ACR d         -18.634  -7.382 -10.412  0.00  0.00    -0.064 C 
ATOM     76  H7  ACR d         -17.673  -7.506  -9.917  0.00  0.00     0.080 H 
ATOM     77  H1  ACR d         -18.864  -5.351  -9.814  0.00  0.00     0.095 H 
BRANCH  68  78
ATOM     78  O2A ACR d         -21.277  -4.780 -10.948  0.00  0.00    -0.390 OA
ATOM     79  H8  ACR d         -20.883  -4.197 -10.309  0.00  0.00     0.210 HD
ENDBRANCH  68  78
BRANCH  69  80
ATOM     80  O3A ACR d         -22.223  -6.761 -12.721  0.00  0.00    -0.390 OA
ATOM     81  H9  ACR d         -23.017  -6.524 -12.256  0.00  0.00     0.210 HD
ENDBRANCH  69  80
BRANCH  71  82
ATOM     82  O4A ACR d         -20.855  -9.297 -12.494  0.00  0.00    -0.388 OA
ATOM     83  H10 ACR d         -20.336  -9.857 -13.059  0.00  0.00     0.210 HD
ENDBRANCH  71  82
BRANCH  73  84
ATOM     84  C6A ACR d         -18.238  -9.538 -11.538  0.00  0.00     0.039 C 
ATOM     85  H5  ACR d         -18.886 -10.417 -11.410  0.00  0.00     0.081 H 
ATOM     86  H6  ACR d         -17.396  -9.598 -10.834  0.00  0.00     0.081 H 
BRANCH  84  87
ATOM     87  O6A ACR d         -17.772  -9.429 -12.897  0.00  0.00    -0.397 OA
ATOM     88  H11 ACR d         -16.889  -9.078 -12.900  0.00  0.00     0.209 HD
ENDBRANCH  84  87
ENDBRANCH  73  84
ENDBRANCH  64  67
ENDBRANCH   4  64
TORSDOF 23
ENDMDL
MODEL 5
REMARK VINA RESULT:      -4.9      2.110      4.318
REMARK  23 active torsions:
REMARK  status: ('A' for Active; 'I' for Inactive)
REMARK    1  A    between atoms: N4B_18  and  C1A_1 
REMARK    2  A    between atoms: C2A_2  and  O2A_8 
REMARK    3  A    between atoms: C3A_3  and  O3A_9 
REMARK    4  A    between atoms: C4A_4  and  O4A_10 
REMARK    5  A    between atoms: C5A_5  and  C6A_6 
REMARK    6  A    between atoms: C6A_6  and  O6A_11 
REMARK    7  A    between atoms: O4C_30  and  C1B_12 
REMARK    8  A    between atoms: C2B_13  and  O2B_19 
REMARK    9  A    between atoms: C3B_14  and  O3B_20 
REMARK   10  A    between atoms: C4B_15  and  N4B_18 
REMARK   11  A    between atoms: C5B_16  and  C6B_17 
REMARK   12  A    between atoms: O4D_42  and  C1C_22 
REMARK   13  A    between atoms: C2C_23  and  O2C_28 
REMARK   14  A    between atoms: C3C_24  and  O3C_29 
REMARK   15  A    between atoms: C4C_25  and  O4C_30 
REMARK   16  A    between atoms: C5C_26  and  C6C_27 
REMARK   17  A    between atoms: C6C_27  and  O6C_32 
REMARK   18  A    between atoms: C1D_33  and  O1D_39 
REMARK   19  A    between atoms: C2D_34  and  O2D_40 
REMARK   20  A    between atoms: C3D_35  and  O3D_41 
REMARK   21  A    between atoms: C4D_36  and  O4D_42 
REMARK   22  A    between atoms: C5D_37  and  C6D_38 
REMARK   23  A    between atoms: C6D_38  and  O6D_44 
ROOT
ATOM      1  C1B ACR d         -19.578  -6.196  -4.940  0.00  0.00     0.159 C 
ATOM      2  C2B ACR d         -18.432  -5.536  -5.706  0.00  0.00     0.110 C 
ATOM      3  C3B ACR d         -18.728  -5.539  -7.215  0.00  0.00     0.094 C 
ATOM      4  C4B ACR d         -18.901  -6.975  -7.710  0.00  0.00     0.154 C 
ATOM      5  C5B ACR d         -20.047  -7.618  -6.901  0.00  0.00     0.068 C 
ATOM      6  O5B ACR d         -19.770  -7.507  -5.481  0.00  0.00    -0.351 OA
ATOM      7  H12 ACR d         -19.318  -6.272  -3.874  0.00  0.00     0.133 H 
ATOM      8  H13 ACR d         -17.498  -6.085  -5.516  0.00  0.00     0.094 H 
ATOM      9  H14 ACR d         -19.652  -4.971  -7.401  0.00  0.00     0.090 H 
ATOM     10  H15 ACR d         -17.984  -7.525  -7.452  0.00  0.00     0.092 H 
ATOM     11  H16 ACR d         -20.980  -7.084  -7.134  0.00  0.00     0.086 H 
ENDROOT
BRANCH   1  12
ATOM     12  O4C ACR d         -20.774  -5.405  -5.083  0.00  0.00    -0.348 OA
BRANCH  12  13
ATOM     13  C4C ACR d         -21.580  -5.252  -3.915  0.00  0.00     0.096 C 
ATOM     14  C3C ACR d         -22.019  -6.641  -3.451  0.00  0.00     0.092 C 
ATOM     15  C2C ACR d         -22.673  -6.643  -2.066  0.00  0.00     0.110 C 
ATOM     16  H26 ACR d         -21.118  -7.269  -3.386  0.00  0.00     0.091 H 
ATOM     17  C1C ACR d         -21.852  -5.867  -1.041  0.00  0.00     0.159 C 
ATOM     18  H25 ACR d         -23.686  -6.218  -2.128  0.00  0.00     0.094 H 
ATOM     19  O5C ACR d         -21.546  -4.568  -1.574  0.00  0.00    -0.348 OA
ATOM     20  H24 ACR d         -22.430  -5.758  -0.111  0.00  0.00     0.133 H 
ATOM     21  C5C ACR d         -20.792  -4.547  -2.805  0.00  0.00     0.089 C 
ATOM     22  H28 ACR d         -19.850  -5.095  -2.655  0.00  0.00     0.090 H 
ATOM     23  H27 ACR d         -22.467  -4.650  -4.160  0.00  0.00     0.091 H 
BRANCH  14  24
ATOM     24  O3C ACR d         -22.894  -7.220  -4.428  0.00  0.00    -0.390 OA
ATOM     25  H32 ACR d         -22.377  -7.596  -5.130  0.00  0.00     0.210 HD
ENDBRANCH  14  24
BRANCH  15  26
ATOM     26  O2C ACR d         -22.718  -8.001  -1.645  0.00  0.00    -0.388 OA
ATOM     27  H31 ACR d         -22.829  -8.035  -0.701  0.00  0.00     0.210 HD
ENDBRANCH  15  26
BRANCH  17  28
ATOM     28  O4D ACR d         -20.637  -6.577  -0.767  0.00  0.00    -0.348 OA
BRANCH  28  29
ATOM     29  C4D ACR d         -20.121  -6.537   0.570  0.00  0.00     0.096 C 
ATOM     30  C3D ACR d         -20.102  -8.005   1.008  0.00  0.00     0.092 C 
ATOM     31  C2D ACR d         -19.450  -8.226   2.378  0.00  0.00     0.110 C 
ATOM     32  H36 ACR d         -19.498  -8.555   0.272  0.00  0.00     0.091 H 
ATOM     33  C1D ACR d         -18.104  -7.474   2.547  0.00  0.00     0.156 C 
ATOM     34  H35 ACR d         -20.136  -7.848   3.151  0.00  0.00     0.094 H 
ATOM     35  O5D ACR d         -18.114  -6.146   1.981  0.00  0.00    -0.349 OA
ATOM     36  H34 ACR d         -17.931  -7.367   3.628  0.00  0.00     0.133 H 
ATOM     37  C5D ACR d         -18.671  -6.003   0.654  0.00  0.00     0.089 C 
ATOM     38  H38 ACR d         -18.069  -6.618  -0.031  0.00  0.00     0.090 H 
ATOM     39  H37 ACR d         -20.775  -5.932   1.214  0.00  0.00     0.091 H 
BRANCH  30  40
ATOM     40  O3D ACR d         -21.434  -8.558   0.981  0.00  0.00    -0.390 OA
ATOM     41  H43 ACR d         -21.804  -8.446   0.113  0.00  0.00     0.210 HD
ENDBRANCH  30  40
BRANCH  31  42
ATOM     42  O2D ACR d         -19.295  -9.648   2.561  0.00  0.00    -0.388 OA
ATOM     43  H42 ACR d         -19.419  -9.863   3.478  0.00  0.00     0.210 HD
ENDBRANCH  31  42
BRANCH  33  44
ATOM     44  O1D ACR d         -17.003  -8.223   2.002  0.00  0.00    -0.369 OA
ATOM     45  H41 ACR d         -17.326  -9.038   1.637  0.00  0.00     0.212 HD
ENDBRANCH  33  44
BRANCH  37  46
ATOM     46  C6D ACR d         -18.508  -4.543   0.220  0.00  0.00     0.043 C 
ATOM     47  H39 ACR d         -18.345  -4.498  -0.867  0.00  0.00     0.078 H 
ATOM     48  H40 ACR d         -17.646  -4.099   0.740  0.00  0.00     0.078 H 
BRANCH  46  49
ATOM     49  O6D ACR d         -19.703  -3.815   0.558  0.00  0.00    -0.398 OA
ATOM     50  H44 ACR d         -19.608  -3.438   1.425  0.00  0.00     0.209 HD
ENDBRANCH  46  49
ENDBRANCH  37  46
ENDBRANCH  28  29
ENDBRANCH  17  28
BRANCH  21  51
ATOM     51  C6C ACR d         -20.457  -3.099  -3.148  0.00  0.00     0.043 C 
ATOM     52  H29 ACR d         -19.370  -2.950  -3.080  0.00  0.00     0.078 H 
ATOM     53  H30 ACR d         -20.965  -2.428  -2.438  0.00  0.00     0.078 H 
BRANCH  51  54
ATOM     54  O6C ACR d         -20.897  -2.806  -4.482  0.00  0.00    -0.398 OA
ATOM     55  H33 ACR d         -20.658  -1.914  -4.704  0.00  0.00     0.209 HD
ENDBRANCH  51  54
ENDBRANCH  21  51
ENDBRANCH  12  13
ENDBRANCH   1  12
BRANCH   2  56
ATOM     56  O2B ACR d         -18.301  -4.189  -5.257  0.00  0.00    -0.388 OA
ATOM     57  H22 ACR d         -18.321  -3.603  -6.005  0.00  0.00     0.210 HD
ENDBRANCH   2  56
BRANCH   3  58
ATOM     58  O3B ACR d         -17.654  -4.945  -7.935  0.00  0.00    -0.391 OA
ATOM     59  H23 ACR d         -17.739  -3.999  -7.906  0.00  0.00     0.210 HD
ENDBRANCH   3  58
BRANCH   5  60
ATOM     60  C6B ACR d         -20.229  -9.096  -7.229  0.00  0.00    -0.050 C 
ATOM     61  H17 ACR d         -21.287  -9.292  -7.460  0.00  0.00     0.031 H 
ATOM     62  H18 ACR d         -19.924  -9.703  -6.364  0.00  0.00     0.031 H 
ATOM     63  H19 ACR d         -19.610  -9.358  -8.099  0.00  0.00     0.031 H 
ENDBRANCH   5  60
BRANCH   4  64
ATOM     64  N4B ACR d         -19.016  -7.053  -9.183  0.00  0.00    -0.056 N 
ATOM     65  H20 ACR d         -19.349  -6.157  -9.504  0.00  0.00     0.278 HD
ATOM     66  H21 ACR d         -18.091  -7.218  -9.546  0.00  0.00     0.278 HD
BRANCH  64  67
ATOM     67  C1A ACR d         -19.909  -8.090  -9.767  0.00  0.00     0.146 C 
ATOM     68  C2A ACR d         -19.279  -8.958 -10.876  0.00  0.00     0.093 C 
ATOM     69  C3A ACR d         -19.097  -8.124 -12.144  0.00  0.00     0.091 C 
ATOM     70  H2  ACR d         -19.947  -9.806 -11.090  0.00  0.00     0.090 H 
ATOM     71  C4A ACR d         -20.468  -7.788 -12.699  0.00  0.00     0.086 C 
ATOM     72  H3  ACR d         -18.616  -7.182 -11.842  0.00  0.00     0.091 H 
ATOM     73  C5A ACR d         -21.394  -7.281 -11.613  0.00  0.00    -0.027 C 
ATOM     74  H4  ACR d         -20.905  -8.694 -13.143  0.00  0.00     0.094 H 
ATOM     75  C7A ACR d         -21.220  -7.522 -10.304  0.00  0.00    -0.064 C 
ATOM     76  H7  ACR d         -22.030  -7.306  -9.610  0.00  0.00     0.080 H 
ATOM     77  H1  ACR d         -20.163  -8.767  -8.938  0.00  0.00     0.095 H 
BRANCH  68  78
ATOM     78  O2A ACR d         -18.013  -9.454 -10.466  0.00  0.00    -0.390 OA
ATOM     79  H8  ACR d         -17.901 -10.340 -10.791  0.00  0.00     0.210 HD
ENDBRANCH  68  78
BRANCH  69  80
ATOM     80  O3A ACR d         -18.237  -8.716 -13.181  0.00  0.00    -0.390 OA
ATOM     81  H9  ACR d         -17.341  -8.424 -13.052  0.00  0.00     0.210 HD
ENDBRANCH  69  80
BRANCH  71  82
ATOM     82  O4A ACR d         -20.327  -6.790 -13.710  0.00  0.00    -0.388 OA
ATOM     83  H10 ACR d         -19.522  -6.941 -14.192  0.00  0.00     0.210 HD
ENDBRANCH  71  82
BRANCH  73  84
ATOM     84  C6A ACR d         -22.585  -6.506 -12.085  0.00  0.00     0.039 C 
ATOM     85  H5  ACR d         -23.476  -6.743 -11.485  0.00  0.00     0.081 H 
ATOM     86  H6  ACR d         -22.794  -6.707 -13.146  0.00  0.00     0.081 H 
BRANCH  84  87
ATOM     87  O6A ACR d         -22.175  -5.139 -11.887  0.00  0.00    -0.397 OA
ATOM     88  H11 ACR d         -21.311  -5.123 -11.493  0.00  0.00     0.209 HD
ENDBRANCH  84  87
ENDBRANCH  73  84
ENDBRANCH  64  67
ENDBRANCH   4  64
TORSDOF 23
ENDMDL
MODEL 6
REMARK VINA RESULT:      -4.9      2.238      4.505
REMARK  23 active torsions:
REMARK  status: ('A' for Active; 'I' for Inactive)
REMARK    1  A    between atoms: N4B_18  and  C1A_1 
REMARK    2  A    between atoms: C2A_2  and  O2A_8 
REMARK    3  A    between atoms: C3A_3  and  O3A_9 
REMARK    4  A    between atoms: C4A_4  and  O4A_10 
REMARK    5  A    between atoms: C5A_5  and  C6A_6 
REMARK    6  A    between atoms: C6A_6  and  O6A_11 
REMARK    7  A    between atoms: O4C_30  and  C1B_12 
REMARK    8  A    between atoms: C2B_13  and  O2B_19 
REMARK    9  A    between atoms: C3B_14  and  O3B_20 
REMARK   10  A    between atoms: C4B_15  and  N4B_18 
REMARK   11  A    between atoms: C5B_16  and  C6B_17 
REMARK   12  A    between atoms: O4D_42  and  C1C_22 
REMARK   13  A    between atoms: C2C_23  and  O2C_28 
REMARK   14  A    between atoms: C3C_24  and  O3C_29 
REMARK   15  A    between atoms: C4C_25  and  O4C_30 
REMARK   16  A    between atoms: C5C_26  and  C6C_27 
REMARK   17  A    between atoms: C6C_27  and  O6C_32 
REMARK   18  A    between atoms: C1D_33  and  O1D_39 
REMARK   19  A    between atoms: C2D_34  and  O2D_40 
REMARK   20  A    between atoms: C3D_35  and  O3D_41 
REMARK   21  A    between atoms: C4D_36  and  O4D_42 
REMARK   22  A    between atoms: C5D_37  and  C6D_38 
REMARK   23  A    between atoms: C6D_38  and  O6D_44 
ROOT
ATOM      1  C1B ACR d         -19.033  -5.798  -4.501  0.00  0.00     0.159 C 
ATOM      2  C2B ACR d         -18.167  -5.303  -5.658  0.00  0.00     0.110 C 
ATOM      3  C3B ACR d         -19.007  -5.179  -6.939  0.00  0.00     0.094 C 
ATOM      4  C4B ACR d         -19.603  -6.538  -7.306  0.00  0.00     0.154 C 
ATOM      5  C5B ACR d         -20.452  -7.019  -6.109  0.00  0.00     0.068 C 
ATOM      6  O5B ACR d         -19.643  -7.028  -4.904  0.00  0.00    -0.351 OA
ATOM      7  H12 ACR d         -18.408  -5.971  -3.613  0.00  0.00     0.133 H 
ATOM      8  H13 ACR d         -17.342  -6.011  -5.828  0.00  0.00     0.094 H 
ATOM      9  H14 ACR d         -19.818  -4.455  -6.769  0.00  0.00     0.090 H 
ATOM     10  H15 ACR d         -18.769  -7.248  -7.406  0.00  0.00     0.092 H 
ATOM     11  H16 ACR d         -21.294  -6.324  -5.978  0.00  0.00     0.086 H 
ENDROOT
BRANCH   1  12
ATOM     12  O4C ACR d         -20.036  -4.810  -4.191  0.00  0.00    -0.348 OA
BRANCH  12  13
ATOM     13  C4C ACR d         -20.421  -4.701  -2.820  0.00  0.00     0.096 C 
ATOM     14  C3C ACR d         -21.101  -6.008  -2.409  0.00  0.00     0.092 C 
ATOM     15  C2C ACR d         -21.334  -6.125  -0.900  0.00  0.00     0.110 C 
ATOM     16  H26 ACR d         -20.436  -6.834  -2.702  0.00  0.00     0.091 H 
ATOM     17  C1C ACR d         -20.081  -5.788  -0.097  0.00  0.00     0.159 C 
ATOM     18  H25 ACR d         -22.159  -5.466  -0.594  0.00  0.00     0.094 H 
ATOM     19  O5C ACR d         -19.568  -4.521  -0.543  0.00  0.00    -0.348 OA
ATOM     20  H24 ACR d         -20.332  -5.729   0.973  0.00  0.00     0.133 H 
ATOM     21  C5C ACR d         -19.198  -4.440  -1.935  0.00  0.00     0.089 C 
ATOM     22  H28 ACR d         -18.449  -5.217  -2.151  0.00  0.00     0.090 H 
ATOM     23  H27 ACR d         -21.130  -3.868  -2.706  0.00  0.00     0.091 H 
BRANCH  14  24
ATOM     24  O3C ACR d         -22.333  -6.155  -3.127  0.00  0.00    -0.390 OA
ATOM     25  H32 ACR d         -22.599  -7.067  -3.114  0.00  0.00     0.210 HD
ENDBRANCH  14  24
BRANCH  15  26
ATOM     26  O2C ACR d         -21.653  -7.489  -0.648  0.00  0.00    -0.388 OA
ATOM     27  H31 ACR d         -21.190  -8.041  -1.268  0.00  0.00     0.210 HD
ENDBRANCH  15  26
BRANCH  17  28
ATOM     28  O4D ACR d         -19.096  -6.809  -0.300  0.00  0.00    -0.348 OA
BRANCH  28  29
ATOM     29  C4D ACR d         -18.263  -7.171   0.810  0.00  0.00     0.096 C 
ATOM     30  C3D ACR d         -18.767  -8.560   1.218  0.00  0.00     0.092 C 
ATOM     31  C2D ACR d         -17.924  -9.218   2.317  0.00  0.00     0.110 C 
ATOM     32  H36 ACR d         -18.695  -9.203   0.329  0.00  0.00     0.091 H 
ATOM     33  C1D ACR d         -16.396  -9.122   2.060  0.00  0.00     0.156 C 
ATOM     34  H35 ACR d         -18.130  -8.699   3.265  0.00  0.00     0.094 H 
ATOM     35  O5D ACR d         -15.983  -7.845   1.529  0.00  0.00    -0.349 OA
ATOM     36  H34 ACR d         -15.901  -9.247   3.034  0.00  0.00     0.133 H 
ATOM     37  C5D ACR d         -16.767  -7.303   0.441  0.00  0.00     0.089 C 
ATOM     38  H38 ACR d         -16.711  -8.012  -0.399  0.00  0.00     0.090 H 
ATOM     39  H37 ACR d         -18.379  -6.444   1.628  0.00  0.00     0.091 H 
BRANCH  30  40
ATOM     40  O3D ACR d         -20.155  -8.502   1.604  0.00  0.00    -0.390 OA
ATOM     41  H43 ACR d         -20.279  -8.991   2.409  0.00  0.00     0.210 HD
ENDBRANCH  30  40
BRANCH  31  42
ATOM     42  O2D ACR d         -18.361 -10.586   2.439  0.00  0.00    -0.388 OA
ATOM     43  H42 ACR d         -17.838 -11.136   1.868  0.00  0.00     0.210 HD
ENDBRANCH  31  42
BRANCH  33  44
ATOM     44  O1D ACR d         -15.934 -10.177   1.199  0.00  0.00    -0.369 OA
ATOM     45  H41 ACR d         -14.990 -10.121   1.110  0.00  0.00     0.212 HD
ENDBRANCH  33  44
BRANCH  37  46
ATOM     46  C6D ACR d         -16.111  -5.998  -0.019  0.00  0.00     0.043 C 
ATOM     47  H39 ACR d         -15.041  -6.012   0.238  0.00  0.00     0.078 H 
ATOM     48  H40 ACR d         -16.597  -5.146   0.481  0.00  0.00     0.078 H 
BRANCH  46  49
ATOM     49  O6D ACR d         -16.262  -5.870  -1.444  0.00  0.00    -0.398 OA
ATOM     50  H44 ACR d         -17.083  -6.267  -1.711  0.00  0.00     0.209 HD
ENDBRANCH  46  49
ENDBRANCH  37  46
ENDBRANCH  28  29
ENDBRANCH  17  28
BRANCH  21  51
ATOM     51  C6C ACR d         -18.564  -3.077  -2.193  0.00  0.00     0.043 C 
ATOM     52  H29 ACR d         -18.547  -2.499  -1.258  0.00  0.00     0.078 H 
ATOM     53  H30 ACR d         -19.154  -2.536  -2.949  0.00  0.00     0.078 H 
BRANCH  51  54
ATOM     54  O6C ACR d         -17.221  -3.252  -2.670  0.00  0.00    -0.398 OA
ATOM     55  H33 ACR d         -16.626  -3.287  -1.931  0.00  0.00     0.209 HD
ENDBRANCH  51  54
ENDBRANCH  21  51
ENDBRANCH  12  13
ENDBRANCH   1  12
BRANCH   2  56
ATOM     56  O2B ACR d         -17.641  -4.022  -5.317  0.00  0.00    -0.388 OA
ATOM     57  H22 ACR d         -18.331  -3.485  -4.945  0.00  0.00     0.210 HD
ENDBRANCH   2  56
BRANCH   3  58
ATOM     58  O3B ACR d         -18.199  -4.739  -8.025  0.00  0.00    -0.391 OA
ATOM     59  H23 ACR d         -17.284  -4.891  -7.819  0.00  0.00     0.210 HD
ENDBRANCH   3  58
BRANCH   5  60
ATOM     60  C6B ACR d         -21.001  -8.426  -6.316  0.00  0.00    -0.050 C 
ATOM     61  H17 ACR d         -21.560  -8.466  -7.262  0.00  0.00     0.031 H 
ATOM     62  H18 ACR d         -21.671  -8.684  -5.483  0.00  0.00     0.031 H 
ATOM     63  H19 ACR d         -20.167  -9.143  -6.352  0.00  0.00     0.031 H 
ENDBRANCH   5  60
BRANCH   4  64
ATOM     64  N4B ACR d         -20.279  -6.521  -8.621  0.00  0.00    -0.056 N 
ATOM     65  H20 ACR d         -20.713  -7.423  -8.745  0.00  0.00     0.278 HD
ATOM     66  H21 ACR d         -20.991  -5.809  -8.581  0.00  0.00     0.278 HD
BRANCH  64  67
ATOM     67  C1A ACR d         -19.458  -6.256  -9.833  0.00  0.00     0.146 C 
ATOM     68  C2A ACR d         -20.241  -5.763 -11.068  0.00  0.00     0.093 C 
ATOM     69  C3A ACR d         -21.072  -6.909 -11.645  0.00  0.00     0.091 C 
ATOM     70  H2  ACR d         -19.527  -5.412 -11.827  0.00  0.00     0.090 H 
ATOM     71  C4A ACR d         -20.127  -7.945 -12.221  0.00  0.00     0.086 C 
ATOM     72  H3  ACR d         -21.607  -7.373 -10.803  0.00  0.00     0.091 H 
ATOM     73  C5A ACR d         -19.004  -8.265 -11.257  0.00  0.00    -0.027 C 
ATOM     74  H4  ACR d         -19.693  -7.553 -13.153  0.00  0.00     0.094 H 
ATOM     75  C7A ACR d         -18.614  -7.453 -10.262  0.00  0.00    -0.064 C 
ATOM     76  H7  ACR d         -17.675  -7.653  -9.748  0.00  0.00     0.080 H 
ATOM     77  H1  ACR d         -18.764  -5.450  -9.554  0.00  0.00     0.095 H 
BRANCH  68  78
ATOM     78  O2A ACR d         -21.111  -4.695 -10.717  0.00  0.00    -0.390 OA
ATOM     79  H8  ACR d         -21.928  -5.049 -10.386  0.00  0.00     0.210 HD
ENDBRANCH  68  78
BRANCH  69  80
ATOM     80  O3A ACR d         -22.099  -6.523 -12.627  0.00  0.00    -0.390 OA
ATOM     81  H9  ACR d         -22.279  -7.259 -13.200  0.00  0.00     0.210 HD
ENDBRANCH  69  80
BRANCH  71  82
ATOM     82  O4A ACR d         -20.863  -9.134 -12.509  0.00  0.00    -0.388 OA
ATOM     83  H10 ACR d         -20.524  -9.850 -11.984  0.00  0.00     0.210 HD
ENDBRANCH  71  82
BRANCH  73  84
ATOM     84  C6A ACR d         -18.290  -9.559 -11.498  0.00  0.00     0.039 C 
ATOM     85  H5  ACR d         -18.971 -10.415 -11.381  0.00  0.00     0.081 H 
ATOM     86  H6  ACR d         -17.436  -9.674 -10.815  0.00  0.00     0.081 H 
BRANCH  84  87
ATOM     87  O6A ACR d         -17.849  -9.431 -12.864  0.00  0.00    -0.397 OA
ATOM     88  H11 ACR d         -17.041  -8.931 -12.888  0.00  0.00     0.209 HD
ENDBRANCH  84  87
ENDBRANCH  73  84
ENDBRANCH  64  67
ENDBRANCH   4  64
TORSDOF 23
ENDMDL
MODEL 7
REMARK VINA RESULT:      -4.6      1.938      3.641
REMARK  23 active torsions:
REMARK  status: ('A' for Active; 'I' for Inactive)
REMARK    1  A    between atoms: N4B_18  and  C1A_1 
REMARK    2  A    between atoms: C2A_2  and  O2A_8 
REMARK    3  A    between atoms: C3A_3  and  O3A_9 
REMARK    4  A    between atoms: C4A_4  and  O4A_10 
REMARK    5  A    between atoms: C5A_5  and  C6A_6 
REMARK    6  A    between atoms: C6A_6  and  O6A_11 
REMARK    7  A    between atoms: O4C_30  and  C1B_12 
REMARK    8  A    between atoms: C2B_13  and  O2B_19 
REMARK    9  A    between atoms: C3B_14  and  O3B_20 
REMARK   10  A    between atoms: C4B_15  and  N4B_18 
REMARK   11  A    between atoms: C5B_16  and  C6B_17 
REMARK   12  A    between atoms: O4D_42  and  C1C_22 
REMARK   13  A    between atoms: C2C_23  and  O2C_28 
REMARK   14  A    between atoms: C3C_24  and  O3C_29 
REMARK   15  A    between atoms: C4C_25  and  O4C_30 
REMARK   16  A    between atoms: C5C_26  and  C6C_27 
REMARK   17  A    between atoms: C6C_27  and  O6C_32 
REMARK   18  A    between atoms: C1D_33  and  O1D_39 
REMARK   19  A    between atoms: C2D_34  and  O2D_40 
REMARK   20  A    between atoms: C3D_35  and  O3D_41 
REMARK   21  A    between atoms: C4D_36  and  O4D_42 
REMARK   22  A    between atoms: C5D_37  and  C6D_38 
REMARK   23  A    between atoms: C6D_38  and  O6D_44 
ROOT
ATOM      1  C1B ACR d         -19.618  -6.248  -4.965  0.00  0.00     0.159 C 
ATOM      2  C2B ACR d         -18.558  -5.462  -5.735  0.00  0.00     0.110 C 
ATOM      3  C3B ACR d         -18.863  -5.489  -7.241  0.00  0.00     0.094 C 
ATOM      4  C4B ACR d         -18.879  -6.932  -7.745  0.00  0.00     0.154 C 
ATOM      5  C5B ACR d         -19.941  -7.703  -6.932  0.00  0.00     0.068 C 
ATOM      6  O5B ACR d         -19.668  -7.569  -5.513  0.00  0.00    -0.351 OA
ATOM      7  H12 ACR d         -19.344  -6.300  -3.901  0.00  0.00     0.133 H 
ATOM      8  H13 ACR d         -17.568  -5.905  -5.554  0.00  0.00     0.094 H 
ATOM      9  H14 ACR d         -19.845  -5.026  -7.419  0.00  0.00     0.090 H 
ATOM     10  H15 ACR d         -17.906  -7.380  -7.495  0.00  0.00     0.092 H 
ATOM     11  H16 ACR d         -20.929  -7.274  -7.155  0.00  0.00     0.086 H 
ENDROOT
BRANCH   1  12
ATOM     12  O4C ACR d         -20.896  -5.593  -5.096  0.00  0.00    -0.348 OA
BRANCH  12  13
ATOM     13  C4C ACR d         -21.725  -5.576  -3.933  0.00  0.00     0.096 C 
ATOM     14  C3C ACR d         -21.842  -7.008  -3.409  0.00  0.00     0.092 C 
ATOM     15  C2C ACR d         -22.490  -7.098  -2.024  0.00  0.00     0.110 C 
ATOM     16  H26 ACR d         -20.823  -7.413  -3.319  0.00  0.00     0.091 H 
ATOM     17  C1C ACR d         -21.874  -6.114  -1.035  0.00  0.00     0.159 C 
ATOM     18  H25 ACR d         -23.573  -6.915  -2.103  0.00  0.00     0.094 H 
ATOM     19  O5C ACR d         -21.864  -4.803  -1.625  0.00  0.00    -0.348 OA
ATOM     20  H24 ACR d         -22.468  -6.098  -0.109  0.00  0.00     0.133 H 
ATOM     21  C5C ACR d         -21.125  -4.665  -2.857  0.00  0.00     0.089 C 
ATOM     22  H28 ACR d         -20.085  -4.979  -2.685  0.00  0.00     0.090 H 
ATOM     23  H27 ACR d         -22.723  -5.201  -4.203  0.00  0.00     0.091 H 
BRANCH  14  24
ATOM     24  O3C ACR d         -22.556  -7.810  -4.359  0.00  0.00    -0.390 OA
ATOM     25  H32 ACR d         -22.291  -8.717  -4.267  0.00  0.00     0.210 HD
ENDBRANCH  14  24
BRANCH  15  26
ATOM     26  O2C ACR d         -22.231  -8.412  -1.545  0.00  0.00    -0.388 OA
ATOM     27  H31 ACR d         -21.306  -8.606  -1.642  0.00  0.00     0.210 HD
ENDBRANCH  15  26
BRANCH  17  28
ATOM     28  O4D ACR d         -20.532  -6.520  -0.734  0.00  0.00    -0.348 OA
BRANCH  28  29
ATOM     29  C4D ACR d         -19.982  -6.136   0.534  0.00  0.00     0.096 C 
ATOM     30  C3D ACR d         -19.302  -4.791   0.255  0.00  0.00     0.092 C 
ATOM     31  C2D ACR d         -18.751  -4.111   1.514  0.00  0.00     0.110 C 
ATOM     32  H36 ACR d         -20.069  -4.123  -0.163  0.00  0.00     0.091 H 
ATOM     33  C1D ACR d         -19.753  -4.107   2.698  0.00  0.00     0.156 C 
ATOM     34  H35 ACR d         -17.859  -4.665   1.841  0.00  0.00     0.094 H 
ATOM     35  O5D ACR d         -20.488  -5.342   2.833  0.00  0.00    -0.349 OA
ATOM     36  H34 ACR d         -19.161  -3.977   3.617  0.00  0.00     0.133 H 
ATOM     37  C5D ACR d         -21.053  -5.904   1.625  0.00  0.00     0.089 C 
ATOM     38  H38 ACR d         -21.766  -5.172   1.216  0.00  0.00     0.090 H 
ATOM     39  H37 ACR d         -19.259  -6.889   0.881  0.00  0.00     0.091 H 
BRANCH  30  40
ATOM     40  O3D ACR d         -18.267  -4.944  -0.739  0.00  0.00    -0.390 OA
ATOM     41  H43 ACR d         -18.663  -5.137  -1.580  0.00  0.00     0.210 HD
ENDBRANCH  30  40
BRANCH  31  42
ATOM     42  O2D ACR d         -18.351  -2.776   1.146  0.00  0.00    -0.388 OA
ATOM     43  H42 ACR d         -18.994  -2.154   1.469  0.00  0.00     0.210 HD
ENDBRANCH  31  42
BRANCH  33  44
ATOM     44  O1D ACR d         -20.673  -3.004   2.614  0.00  0.00    -0.369 OA
ATOM     45  H41 ACR d         -20.187  -2.194   2.516  0.00  0.00     0.212 HD
ENDBRANCH  33  44
BRANCH  37  46
ATOM     46  C6D ACR d         -21.850  -7.155   2.006  0.00  0.00     0.043 C 
ATOM     47  H39 ACR d         -22.882  -7.061   1.636  0.00  0.00     0.078 H 
ATOM     48  H40 ACR d         -21.862  -7.265   3.101  0.00  0.00     0.078 H 
BRANCH  46  49
ATOM     49  O6D ACR d         -21.229  -8.309   1.412  0.00  0.00    -0.398 OA
ATOM     50  H44 ACR d         -20.776  -8.805   2.084  0.00  0.00     0.209 HD
ENDBRANCH  46  49
ENDBRANCH  37  46
ENDBRANCH  28  29
ENDBRANCH  17  28
BRANCH  21  51
ATOM     51  C6C ACR d         -21.122  -3.195  -3.262  0.00  0.00     0.043 C 
ATOM     52  H29 ACR d         -20.088  -2.821  -3.274  0.00  0.00     0.078 H 
ATOM     53  H30 ACR d         -21.715  -2.615  -2.539  0.00  0.00     0.078 H 
BRANCH  51  54
ATOM     54  O6C ACR d         -21.695  -3.055  -4.571  0.00  0.00    -0.398 OA
ATOM     55  H33 ACR d         -22.224  -3.819  -4.767  0.00  0.00     0.209 HD
ENDBRANCH  51  54
ENDBRANCH  21  51
ENDBRANCH  12  13
ENDBRANCH   1  12
BRANCH   2  56
ATOM     56  O2B ACR d         -18.573  -4.110  -5.279  0.00  0.00    -0.388 OA
ATOM     57  H22 ACR d         -17.986  -4.020  -4.537  0.00  0.00     0.210 HD
ENDBRANCH   2  56
BRANCH   3  58
ATOM     58  O3B ACR d         -17.865  -4.776  -7.965  0.00  0.00    -0.391 OA
ATOM     59  H23 ACR d         -17.479  -4.116  -7.402  0.00  0.00     0.210 HD
ENDBRANCH   3  58
BRANCH   5  60
ATOM     60  C6B ACR d         -19.962  -9.190  -7.267  0.00  0.00    -0.050 C 
ATOM     61  H17 ACR d         -19.089  -9.681  -6.810  0.00  0.00     0.031 H 
ATOM     62  H18 ACR d         -19.927  -9.320  -8.358  0.00  0.00     0.031 H 
ATOM     63  H19 ACR d         -20.883  -9.642  -6.872  0.00  0.00     0.031 H 
ENDBRANCH   5  60
BRANCH   4  64
ATOM     64  N4B ACR d         -18.995  -7.015  -9.217  0.00  0.00    -0.056 N 
ATOM     65  H20 ACR d         -19.328  -6.120  -9.541  0.00  0.00     0.278 HD
ATOM     66  H21 ACR d         -18.070  -7.182  -9.580  0.00  0.00     0.278 HD
BRANCH  64  67
ATOM     67  C1A ACR d         -19.890  -8.053  -9.797  0.00  0.00     0.146 C 
ATOM     68  C2A ACR d         -19.278  -8.891 -10.938  0.00  0.00     0.093 C 
ATOM     69  C3A ACR d         -19.141  -8.031 -12.195  0.00  0.00     0.091 C 
ATOM     70  H2  ACR d         -19.939  -9.744 -11.151  0.00  0.00     0.090 H 
ATOM     71  C4A ACR d         -20.530  -7.704 -12.707  0.00  0.00     0.086 C 
ATOM     72  H3  ACR d         -18.664  -7.088 -11.888  0.00  0.00     0.091 H 
ATOM     73  C5A ACR d         -21.434  -7.231 -11.588  0.00  0.00    -0.027 C 
ATOM     74  H4  ACR d         -20.966  -8.608 -13.156  0.00  0.00     0.094 H 
ATOM     75  C7A ACR d         -21.221  -7.493 -10.289  0.00  0.00    -0.064 C 
ATOM     76  H7  ACR d         -22.016  -7.302  -9.570  0.00  0.00     0.080 H 
ATOM     77  H1  ACR d         -20.112  -8.750  -8.975  0.00  0.00     0.095 H 
BRANCH  68  78
ATOM     78  O2A ACR d         -17.994  -9.378 -10.572  0.00  0.00    -0.390 OA
ATOM     79  H8  ACR d         -17.326  -8.789 -10.904  0.00  0.00     0.210 HD
ENDBRANCH  68  78
BRANCH  69  80
ATOM     80  O3A ACR d         -18.300  -8.592 -13.265  0.00  0.00    -0.390 OA
ATOM     81  H9  ACR d         -17.385  -8.433 -13.063  0.00  0.00     0.210 HD
ENDBRANCH  69  80
BRANCH  71  82
ATOM     82  O4A ACR d         -20.429  -6.686 -13.702  0.00  0.00    -0.388 OA
ATOM     83  H10 ACR d         -19.695  -6.118 -13.499  0.00  0.00     0.210 HD
ENDBRANCH  71  82
BRANCH  73  84
ATOM     84  C6A ACR d         -22.647  -6.464 -12.014  0.00  0.00     0.039 C 
ATOM     85  H5  ACR d         -23.488  -6.638 -11.326  0.00  0.00     0.081 H 
ATOM     86  H6  ACR d         -22.948  -6.733 -13.036  0.00  0.00     0.081 H 
BRANCH  84  87
ATOM     87  O6A ACR d         -22.199  -5.096 -11.947  0.00  0.00    -0.397 OA
ATOM     88  H11 ACR d         -22.091  -4.843 -11.038  0.00  0.00     0.209 HD
ENDBRANCH  84  87
ENDBRANCH  73  84
ENDBRANCH  64  67
ENDBRANCH   4  64
TORSDOF 23
ENDMDL
MODEL 8
REMARK VINA RESULT:      -4.6      1.804      3.115
REMARK  23 active torsions:
REMARK  status: ('A' for Active; 'I' for Inactive)
REMARK    1  A    between atoms: N4B_18  and  C1A_1 
REMARK    2  A    between atoms: C2A_2  and  O2A_8 
REMARK    3  A    between atoms: C3A_3  and  O3A_9 
REMARK    4  A    between atoms: C4A_4  and  O4A_10 
REMARK    5  A    between atoms: C5A_5  and  C6A_6 
REMARK    6  A    between atoms: C6A_6  and  O6A_11 
REMARK    7  A    between atoms: O4C_30  and  C1B_12 
REMARK    8  A    between atoms: C2B_13  and  O2B_19 
REMARK    9  A    between atoms: C3B_14  and  O3B_20 
REMARK   10  A    between atoms: C4B_15  and  N4B_18 
REMARK   11  A    between atoms: C5B_16  and  C6B_17 
REMARK   12  A    between atoms: O4D_42  and  C1C_22 
REMARK   13  A    between atoms: C2C_23  and  O2C_28 
REMARK   14  A    between atoms: C3C_24  and  O3C_29 
REMARK   15  A    between atoms: C4C_25  and  O4C_30 
REMARK   16  A    between atoms: C5C_26  and  C6C_27 
REMARK   17  A    between atoms: C6C_27  and  O6C_32 
REMARK   18  A    between atoms: C1D_33  and  O1D_39 
REMARK   19  A    between atoms: C2D_34  and  O2D_40 
REMARK   20  A    between atoms: C3D_35  and  O3D_41 
REMARK   21  A    between atoms: C4D_36  and  O4D_42 
REMARK   22  A    between atoms: C5D_37  and  C6D_38 
REMARK   23  A    between atoms: C6D_38  and  O6D_44 
ROOT
ATOM      1  C1B ACR d         -18.855  -7.082  -3.565  0.00  0.00     0.159 C 
ATOM      2  C2B ACR d         -18.262  -8.264  -4.329  0.00  0.00     0.110 C 
ATOM      3  C3B ACR d         -18.473  -8.083  -5.841  0.00  0.00     0.094 C 
ATOM      4  C4B ACR d         -19.967  -7.985  -6.152  0.00  0.00     0.154 C 
ATOM      5  C5B ACR d         -20.538  -6.798  -5.347  0.00  0.00     0.068 C 
ATOM      6  O5B ACR d         -20.232  -6.964  -3.939  0.00  0.00    -0.351 OA
ATOM      7  H12 ACR d         -18.782  -7.262  -2.483  0.00  0.00     0.133 H 
ATOM      8  H13 ACR d         -18.748  -9.195  -4.001  0.00  0.00     0.094 H 
ATOM      9  H14 ACR d         -17.968  -7.161  -6.167  0.00  0.00     0.090 H 
ATOM     10  H15 ACR d         -20.446  -8.893  -5.757  0.00  0.00     0.092 H 
ATOM     11  H16 ACR d         -20.073  -5.872  -5.715  0.00  0.00     0.086 H 
ENDROOT
BRANCH   1  12
ATOM     12  O4C ACR d         -18.133  -5.879  -3.898  0.00  0.00    -0.348 OA
BRANCH  12  13
ATOM     13  C4C ACR d         -18.188  -4.818  -2.944  0.00  0.00     0.096 C 
ATOM     14  C3C ACR d         -19.508  -4.070  -3.137  0.00  0.00     0.092 C 
ATOM     15  C2C ACR d         -19.811  -3.072  -2.016  0.00  0.00     0.110 C 
ATOM     16  H26 ACR d         -20.315  -4.817  -3.136  0.00  0.00     0.091 H 
ATOM     17  C1C ACR d         -19.635  -3.689  -0.632  0.00  0.00     0.159 C 
ATOM     18  H25 ACR d         -19.163  -2.188  -2.113  0.00  0.00     0.094 H 
ATOM     19  O5C ACR d         -18.343  -4.317  -0.563  0.00  0.00    -0.348 OA
ATOM     20  H24 ACR d         -19.705  -2.904   0.136  0.00  0.00     0.133 H 
ATOM     21  C5C ACR d         -18.096  -5.371  -1.517  0.00  0.00     0.089 C 
ATOM     22  H28 ACR d         -18.869  -6.145  -1.401  0.00  0.00     0.090 H 
ATOM     23  H27 ACR d         -17.348  -4.130  -3.115  0.00  0.00     0.091 H 
BRANCH  14  24
ATOM     24  O3C ACR d         -19.508  -3.417  -4.413  0.00  0.00    -0.390 OA
ATOM     25  H32 ACR d         -19.505  -4.072  -5.102  0.00  0.00     0.210 HD
ENDBRANCH  14  24
BRANCH  15  26
ATOM     26  O2C ACR d         -21.181  -2.715  -2.157  0.00  0.00    -0.388 OA
ATOM     27  H31 ACR d         -21.665  -3.012  -1.394  0.00  0.00     0.210 HD
ENDBRANCH  15  26
BRANCH  17  28
ATOM     28  O4D ACR d         -20.661  -4.666  -0.411  0.00  0.00    -0.348 OA
BRANCH  28  29
ATOM     29  C4D ACR d         -21.172  -4.816   0.920  0.00  0.00     0.096 C 
ATOM     30  C3D ACR d         -22.559  -4.167   0.864  0.00  0.00     0.092 C 
ATOM     31  C2D ACR d         -23.364  -4.330   2.159  0.00  0.00     0.110 C 
ATOM     32  H36 ACR d         -23.122  -4.677   0.068  0.00  0.00     0.091 H 
ATOM     33  C1D ACR d         -23.337  -5.776   2.721  0.00  0.00     0.156 C 
ATOM     34  H35 ACR d         -22.922  -3.673   2.923  0.00  0.00     0.094 H 
ATOM     35  O5D ACR d         -22.045  -6.410   2.614  0.00  0.00    -0.349 OA
ATOM     36  H34 ACR d         -23.580  -5.707   3.792  0.00  0.00     0.133 H 
ATOM     37  C5D ACR d         -21.360  -6.291   1.345  0.00  0.00     0.089 C 
ATOM     38  H38 ACR d         -21.991  -6.762   0.577  0.00  0.00     0.090 H 
ATOM     39  H37 ACR d         -20.517  -4.304   1.641  0.00  0.00     0.091 H 
BRANCH  30  40
ATOM     40  O3D ACR d         -22.453  -2.776   0.499  0.00  0.00    -0.390 OA
ATOM     41  H43 ACR d         -22.732  -2.236   1.230  0.00  0.00     0.210 HD
ENDBRANCH  30  40
BRANCH  31  42
ATOM     42  O2D ACR d         -24.709  -3.884   1.893  0.00  0.00    -0.388 OA
ATOM     43  H42 ACR d         -24.696  -3.252   1.184  0.00  0.00     0.210 HD
ENDBRANCH  31  42
BRANCH  33  44
ATOM     44  O1D ACR d         -24.336  -6.607   2.101  0.00  0.00    -0.369 OA
ATOM     45  H41 ACR d         -24.509  -6.290   1.223  0.00  0.00     0.212 HD
ENDBRANCH  33  44
BRANCH  37  46
ATOM     46  C6D ACR d         -20.060  -7.097   1.426  0.00  0.00     0.043 C 
ATOM     47  H39 ACR d         -20.246  -8.046   1.950  0.00  0.00     0.078 H 
ATOM     48  H40 ACR d         -19.301  -6.518   1.974  0.00  0.00     0.078 H 
BRANCH  46  49
ATOM     49  O6D ACR d         -19.589  -7.367   0.093  0.00  0.00    -0.398 OA
ATOM     50  H44 ACR d         -18.980  -6.687  -0.170  0.00  0.00     0.209 HD
ENDBRANCH  46  49
ENDBRANCH  37  46
ENDBRANCH  28  29
ENDBRANCH  17  28
BRANCH  21  51
ATOM     51  C6C ACR d         -16.739  -5.996  -1.213  0.00  0.00     0.043 C 
ATOM     52  H29 ACR d         -16.882  -7.029  -0.865  0.00  0.00     0.078 H 
ATOM     53  H30 ACR d         -16.233  -5.411  -0.430  0.00  0.00     0.078 H 
BRANCH  51  54
ATOM     54  O6C ACR d         -15.934  -6.001  -2.402  0.00  0.00    -0.398 OA
ATOM     55  H33 ACR d         -16.473  -6.234  -3.148  0.00  0.00     0.209 HD
ENDBRANCH  51  54
ENDBRANCH  21  51
ENDBRANCH  12  13
ENDBRANCH   1  12
BRANCH   2  56
ATOM     56  O2B ACR d         -16.864  -8.327  -4.056  0.00  0.00    -0.388 OA
ATOM     57  H22 ACR d         -16.589  -9.236  -4.021  0.00  0.00     0.210 HD
ENDBRANCH   2  56
BRANCH   3  58
ATOM     58  O3B ACR d         -17.941  -9.193  -6.556  0.00  0.00    -0.391 OA
ATOM     59  H23 ACR d         -17.717  -8.922  -7.438  0.00  0.00     0.210 HD
ENDBRANCH   3  58
BRANCH   5  60
ATOM     60  C6B ACR d         -22.052  -6.678  -5.486  0.00  0.00    -0.050 C 
ATOM     61  H17 ACR d         -22.356  -5.637  -5.303  0.00  0.00     0.031 H 
ATOM     62  H18 ACR d         -22.541  -7.338  -4.755  0.00  0.00     0.031 H 
ATOM     63  H19 ACR d         -22.351  -6.973  -6.503  0.00  0.00     0.031 H 
ENDBRANCH   5  60
BRANCH   4  64
ATOM     64  N4B ACR d         -20.242  -7.983  -7.605  0.00  0.00    -0.056 N 
ATOM     65  H20 ACR d         -20.578  -8.903  -7.846  0.00  0.00     0.278 HD
ATOM     66  H21 ACR d         -20.970  -7.306  -7.769  0.00  0.00     0.278 HD
BRANCH  64  67
ATOM     67  C1A ACR d         -19.125  -7.664  -8.534  0.00  0.00     0.146 C 
ATOM     68  C2A ACR d         -19.193  -6.273  -9.198  0.00  0.00     0.093 C 
ATOM     69  C3A ACR d         -20.318  -6.249 -10.234  0.00  0.00     0.091 C 
ATOM     70  H2  ACR d         -18.235  -6.067  -9.697  0.00  0.00     0.090 H 
ATOM     71  C4A ACR d         -19.936  -7.166 -11.380  0.00  0.00     0.086 C 
ATOM     72  H3  ACR d         -21.210  -6.672  -9.748  0.00  0.00     0.091 H 
ATOM     73  C5A ACR d         -19.431  -8.501 -10.874  0.00  0.00    -0.027 C 
ATOM     74  H4  ACR d         -19.141  -6.687 -11.970  0.00  0.00     0.094 H 
ATOM     75  C7A ACR d         -18.947  -8.702  -9.639  0.00  0.00    -0.064 C 
ATOM     76  H7  ACR d         -18.415  -9.626  -9.419  0.00  0.00     0.080 H 
ATOM     77  H1  ACR d         -18.212  -7.680  -7.921  0.00  0.00     0.095 H 
BRANCH  68  78
ATOM     78  O2A ACR d         -19.440  -5.265  -8.228  0.00  0.00    -0.390 OA
ATOM     79  H8  ACR d         -19.966  -5.626  -7.524  0.00  0.00     0.210 HD
ENDBRANCH  68  78
BRANCH  69  80
ATOM     80  O3A ACR d         -20.705  -4.918 -10.726  0.00  0.00    -0.390 OA
ATOM     81  H9  ACR d         -21.177  -4.454 -10.044  0.00  0.00     0.210 HD
ENDBRANCH  69  80
BRANCH  71  82
ATOM     82  O4A ACR d         -21.079  -7.371 -12.210  0.00  0.00    -0.388 OA
ATOM     83  H10 ACR d         -21.628  -6.596 -12.187  0.00  0.00     0.210 HD
ENDBRANCH  71  82
BRANCH  73  84
ATOM     84  C6A ACR d         -19.457  -9.623 -11.866  0.00  0.00     0.039 C 
ATOM     85  H5  ACR d         -20.235  -9.461 -12.626  0.00  0.00     0.081 H 
ATOM     86  H6  ACR d         -19.627 -10.588 -11.368  0.00  0.00     0.081 H 
BRANCH  84  87
ATOM     87  O6A ACR d         -18.141  -9.564 -12.449  0.00  0.00    -0.397 OA
ATOM     88  H11 ACR d         -18.213  -9.621 -13.395  0.00  0.00     0.209 HD
ENDBRANCH  84  87
ENDBRANCH  73  84
ENDBRANCH  64  67
ENDBRANCH   4  64
TORSDOF 23
ENDMDL
MODEL 9
REMARK VINA RESULT:      -4.3      2.411     10.106
REMARK  23 active torsions:
REMARK  status: ('A' for Active; 'I' for Inactive)
REMARK    1  A    between atoms: N4B_18  and  C1A_1 
REMARK    2  A    between atoms: C2A_2  and  O2A_8 
REMARK    3  A    between atoms: C3A_3  and  O3A_9 
REMARK    4  A    between atoms: C4A_4  and  O4A_10 
REMARK    5  A    between atoms: C5A_5  and  C6A_6 
REMARK    6  A    between atoms: C6A_6  and  O6A_11 
REMARK    7  A    between atoms: O4C_30  and  C1B_12 
REMARK    8  A    between atoms: C2B_13  and  O2B_19 
REMARK    9  A    between atoms: C3B_14  and  O3B_20 
REMARK   10  A    between atoms: C4B_15  and  N4B_18 
REMARK   11  A    between atoms: C5B_16  and  C6B_17 
REMARK   12  A    between atoms: O4D_42  and  C1C_22 
REMARK   13  A    between atoms: C2C_23  and  O2C_28 
REMARK   14  A    between atoms: C3C_24  and  O3C_29 
REMARK   15  A    between atoms: C4C_25  and  O4C_30 
REMARK   16  A    between atoms: C5C_26  and  C6C_27 
REMARK   17  A    between atoms: C6C_27  and  O6C_32 
REMARK   18  A    between atoms: C1D_33  and  O1D_39 
REMARK   19  A    between atoms: C2D_34  and  O2D_40 
REMARK   20  A    between atoms: C3D_35  and  O3D_41 
REMARK   21  A    between atoms: C4D_36  and  O4D_42 
REMARK   22  A    between atoms: C5D_37  and  C6D_38 
REMARK   23  A    between atoms: C6D_38  and  O6D_44 
ROOT
ATOM      1  C1B ACR d         -22.700  -8.428  -3.590  0.00  0.00     0.159 C 
ATOM      2  C2B ACR d         -23.675  -7.253  -3.649  0.00  0.00     0.110 C 
ATOM      3  C3B ACR d         -23.952  -6.718  -2.235  0.00  0.00     0.094 C 
ATOM      4  C4B ACR d         -24.552  -7.824  -1.366  0.00  0.00     0.154 C 
ATOM      5  C5B ACR d         -23.554  -9.002  -1.347  0.00  0.00     0.068 C 
ATOM      6  O5B ACR d         -23.249  -9.410  -2.705  0.00  0.00    -0.351 OA
ATOM      7  H12 ACR d         -22.577  -8.862  -4.593  0.00  0.00     0.133 H 
ATOM      8  H13 ACR d         -24.619  -7.582  -4.107  0.00  0.00     0.094 H 
ATOM      9  H14 ACR d         -23.008  -6.372  -1.790  0.00  0.00     0.090 H 
ATOM     10  H15 ACR d         -25.458  -8.187  -1.873  0.00  0.00     0.092 H 
ATOM     11  H16 ACR d         -22.632  -8.668  -0.850  0.00  0.00     0.086 H 
ENDROOT
BRANCH   1  12
ATOM     12  O4C ACR d         -21.420  -7.969  -3.111  0.00  0.00    -0.348 OA
BRANCH  12  13
ATOM     13  C4C ACR d         -20.271  -8.423  -3.828  0.00  0.00     0.096 C 
ATOM     14  C3C ACR d         -20.735  -9.415  -4.895  0.00  0.00     0.092 C 
ATOM     15  C2C ACR d         -19.640  -9.784  -5.901  0.00  0.00     0.110 C 
ATOM     16  H26 ACR d         -21.550  -8.937  -5.460  0.00  0.00     0.091 H 
ATOM     17  C1C ACR d         -18.928  -8.553  -6.453  0.00  0.00     0.159 C 
ATOM     18  H25 ACR d         -18.908 -10.457  -5.430  0.00  0.00     0.094 H 
ATOM     19  O5C ACR d         -18.501  -7.729  -5.354  0.00  0.00    -0.348 OA
ATOM     20  H24 ACR d         -18.053  -8.865  -7.042  0.00  0.00     0.133 H 
ATOM     21  C5C ACR d         -19.543  -7.244  -4.481  0.00  0.00     0.089 C 
ATOM     22  H28 ACR d         -20.274  -6.680  -5.078  0.00  0.00     0.090 H 
ATOM     23  H27 ACR d         -19.584  -8.928  -3.133  0.00  0.00     0.091 H 
BRANCH  14  24
ATOM     24  O3C ACR d         -21.263 -10.589  -4.264  0.00  0.00    -0.390 OA
ATOM     25  H32 ACR d         -21.988 -10.924  -4.777  0.00  0.00     0.210 HD
ENDBRANCH  14  24
BRANCH  15  26
ATOM     26  O2C ACR d         -20.295 -10.427  -6.988  0.00  0.00    -0.388 OA
ATOM     27  H31 ACR d         -20.357  -9.824  -7.720  0.00  0.00     0.210 HD
ENDBRANCH  15  26
BRANCH  17  28
ATOM     28  O4D ACR d         -19.829  -7.816  -7.290  0.00  0.00    -0.348 OA
BRANCH  28  29
ATOM     29  C4D ACR d         -19.335  -7.330  -8.545  0.00  0.00     0.096 C 
ATOM     30  C3D ACR d         -20.354  -7.837  -9.570  0.00  0.00     0.092 C 
ATOM     31  C2D ACR d         -20.104  -7.317 -10.991  0.00  0.00     0.110 C 
ATOM     32  H36 ACR d         -21.340  -7.461  -9.259  0.00  0.00     0.091 H 
ATOM     33  C1D ACR d         -19.821  -5.793 -11.046  0.00  0.00     0.156 C 
ATOM     34  H35 ACR d         -19.219  -7.831 -11.394  0.00  0.00     0.094 H 
ATOM     35  O5D ACR d         -18.979  -5.326  -9.971  0.00  0.00    -0.349 OA
ATOM     36  H34 ACR d         -19.284  -5.602 -11.988  0.00  0.00     0.133 H 
ATOM     37  C5D ACR d         -19.304  -5.786  -8.638  0.00  0.00     0.089 C 
ATOM     38  H38 ACR d         -20.319  -5.435  -8.400  0.00  0.00     0.090 H 
ATOM     39  H37 ACR d         -18.330  -7.732  -8.743  0.00  0.00     0.091 H 
BRANCH  30  40
ATOM     40  O3D ACR d         -20.413  -9.278  -9.556  0.00  0.00    -0.390 OA
ATOM     41  H43 ACR d         -19.579  -9.630  -9.845  0.00  0.00     0.210 HD
ENDBRANCH  30  40
BRANCH  31  42
ATOM     42  O2D ACR d         -21.247  -7.679 -11.793  0.00  0.00    -0.388 OA
ATOM     43  H42 ACR d         -21.963  -7.936 -11.223  0.00  0.00     0.210 HD
ENDBRANCH  31  42
BRANCH  33  44
ATOM     44  O1D ACR d         -21.037  -5.025 -11.076  0.00  0.00    -0.369 OA
ATOM     45  H41 ACR d         -20.934  -4.249 -10.538  0.00  0.00     0.212 HD
ENDBRANCH  33  44
BRANCH  37  46
ATOM     46  C6D ACR d         -18.345  -5.112  -7.652  0.00  0.00     0.043 C 
ATOM     47  H39 ACR d         -17.731  -4.370  -8.184  0.00  0.00     0.078 H 
ATOM     48  H40 ACR d         -17.691  -5.871  -7.197  0.00  0.00     0.078 H 
BRANCH  46  49
ATOM     49  O6D ACR d         -19.109  -4.457  -6.624  0.00  0.00    -0.398 OA
ATOM     50  H44 ACR d         -19.719  -3.848  -7.023  0.00  0.00     0.209 HD
ENDBRANCH  46  49
ENDBRANCH  37  46
ENDBRANCH  28  29
ENDBRANCH  17  28
BRANCH  21  51
ATOM     51  C6C ACR d         -18.922  -6.296  -3.461  0.00  0.00     0.043 C 
ATOM     52  H29 ACR d         -17.845  -6.501  -3.379  0.00  0.00     0.078 H 
ATOM     53  H30 ACR d         -19.400  -6.448  -2.481  0.00  0.00     0.078 H 
BRANCH  51  54
ATOM     54  O6C ACR d         -19.118  -4.938  -3.883  0.00  0.00    -0.398 OA
ATOM     55  H33 ACR d         -18.439  -4.699  -4.502  0.00  0.00     0.209 HD
ENDBRANCH  51  54
ENDBRANCH  21  51
ENDBRANCH  12  13
ENDBRANCH   1  12
BRANCH   2  56
ATOM     56  O2B ACR d         -23.092  -6.217  -4.436  0.00  0.00    -0.388 OA
ATOM     57  H22 ACR d         -22.690  -5.574  -3.864  0.00  0.00     0.210 HD
ENDBRANCH   2  56
BRANCH   3  58
ATOM     58  O3B ACR d         -24.878  -5.638  -2.283  0.00  0.00    -0.391 OA
ATOM     59  H23 ACR d         -25.506  -5.729  -1.577  0.00  0.00     0.210 HD
ENDBRANCH   3  58
BRANCH   5  60
ATOM     60  C6B ACR d         -24.104 -10.215  -0.605  0.00  0.00    -0.050 C 
ATOM     61  H17 ACR d         -23.717 -11.135  -1.070  0.00  0.00     0.031 H 
ATOM     62  H18 ACR d         -25.202 -10.211  -0.659  0.00  0.00     0.031 H 
ATOM     63  H19 ACR d         -23.787 -10.176   0.447  0.00  0.00     0.031 H 
ENDBRANCH   5  60
BRANCH   4  64
ATOM     64  N4B ACR d         -25.000  -7.325  -0.048  0.00  0.00    -0.056 N 
ATOM     65  H20 ACR d         -25.431  -6.426  -0.200  0.00  0.00     0.278 HD
ATOM     66  H21 ACR d         -25.690  -7.974   0.298  0.00  0.00     0.278 HD
BRANCH  64  67
ATOM     67  C1A ACR d         -23.983  -7.151   1.024  0.00  0.00     0.146 C 
ATOM     68  C2A ACR d         -24.371  -6.172   2.151  0.00  0.00     0.093 C 
ATOM     69  C3A ACR d         -24.340  -4.738   1.622  0.00  0.00     0.091 C 
ATOM     70  H2  ACR d         -23.649  -6.272   2.976  0.00  0.00     0.090 H 
ATOM     71  C4A ACR d         -22.901  -4.368   1.317  0.00  0.00     0.086 C 
ATOM     72  H3  ACR d         -24.898  -4.734   0.674  0.00  0.00     0.091 H 
ATOM     73  C5A ACR d         -22.208  -5.457   0.527  0.00  0.00    -0.027 C 
ATOM     74  H4  ACR d         -22.363  -4.220   2.264  0.00  0.00     0.094 H 
ATOM     75  C7A ACR d         -22.614  -6.736   0.493  0.00  0.00    -0.064 C 
ATOM     76  H7  ACR d         -21.953  -7.495   0.077  0.00  0.00     0.080 H 
ATOM     77  H1  ACR d         -23.866  -8.142   1.489  0.00  0.00     0.095 H 
BRANCH  68  78
ATOM     78  O2A ACR d         -25.676  -6.456   2.637  0.00  0.00    -0.390 OA
ATOM     79  H8  ACR d         -26.303  -6.363   1.929  0.00  0.00     0.210 HD
ENDBRANCH  68  78
BRANCH  69  80
ATOM     80  O3A ACR d         -24.976  -3.726   2.481  0.00  0.00    -0.390 OA
ATOM     81  H9  ACR d         -24.438  -2.943   2.498  0.00  0.00     0.210 HD
ENDBRANCH  69  80
BRANCH  71  82
ATOM     82  O4A ACR d         -22.884  -3.151   0.571  0.00  0.00    -0.388 OA
ATOM     83  H10 ACR d         -23.740  -3.005   0.186  0.00  0.00     0.210 HD
ENDBRANCH  71  82
BRANCH  73  84
ATOM     84  C6A ACR d         -20.975  -5.038  -0.212  0.00  0.00     0.039 C 
ATOM     85  H5  ACR d         -20.275  -5.879  -0.324  0.00  0.00     0.081 H 
ATOM     86  H6  ACR d         -20.470  -4.207   0.300  0.00  0.00     0.081 H 
BRANCH  84  87
ATOM     87  O6A ACR d         -21.493  -4.623  -1.490  0.00  0.00    -0.397 OA
ATOM     88  H11 ACR d         -21.598  -3.678  -1.496  0.00  0.00     0.209 HD
ENDBRANCH  84  87
ENDBRANCH  73  84
ENDBRANCH  64  67
ENDBRANCH   4  64
TORSDOF 23
ENDMDL
MODEL 10
REMARK VINA RESULT:      -4.3      2.141      4.372
REMARK  23 active torsions:
REMARK  status: ('A' for Active; 'I' for Inactive)
REMARK    1  A    between atoms: N4B_18  and  C1A_1 
REMARK    2  A    between atoms: C2A_2  and  O2A_8 
REMARK    3  A    between atoms: C3A_3  and  O3A_9 
REMARK    4  A    between atoms: C4A_4  and  O4A_10 
REMARK    5  A    between atoms: C5A_5  and  C6A_6 
REMARK    6  A    between atoms: C6A_6  and  O6A_11 
REMARK    7  A    between atoms: O4C_30  and  C1B_12 
REMARK    8  A    between atoms: C2B_13  and  O2B_19 
REMARK    9  A    between atoms: C3B_14  and  O3B_20 
REMARK   10  A    between atoms: C4B_15  and  N4B_18 
REMARK   11  A    between atoms: C5B_16  and  C6B_17 
REMARK   12  A    between atoms: O4D_42  and  C1C_22 
REMARK   13  A    between atoms: C2C_23  and  O2C_28 
REMARK   14  A    between atoms: C3C_24  and  O3C_29 
REMARK   15  A    between atoms: C4C_25  and  O4C_30 
REMARK   16  A    between atoms: C5C_26  and  C6C_27 
REMARK   17  A    between atoms: C6C_27  and  O6C_32 
REMARK   18  A    between atoms: C1D_33  and  O1D_39 
REMARK   19  A    between atoms: C2D_34  and  O2D_40 
REMARK   20  A    between atoms: C3D_35  and  O3D_41 
REMARK   21  A    between atoms: C4D_36  and  O4D_42 
REMARK   22  A    between atoms: C5D_37  and  C6D_38 
REMARK   23  A    between atoms: C6D_38  and  O6D_44 
ROOT
ATOM      1  C1B ACR d         -19.391  -6.203  -4.886  0.00  0.00     0.159 C 
ATOM      2  C2B ACR d         -18.400  -5.380  -5.707  0.00  0.00     0.110 C 
ATOM      3  C3B ACR d         -18.752  -5.455  -7.201  0.00  0.00     0.094 C 
ATOM      4  C4B ACR d         -18.708  -6.908  -7.675  0.00  0.00     0.154 C 
ATOM      5  C5B ACR d         -19.702  -7.715  -6.812  0.00  0.00     0.068 C 
ATOM      6  O5B ACR d         -19.390  -7.536  -5.406  0.00  0.00    -0.351 OA
ATOM      7  H12 ACR d         -19.081  -6.218  -3.831  0.00  0.00     0.133 H 
ATOM      8  H13 ACR d         -17.382  -5.767  -5.551  0.00  0.00     0.094 H 
ATOM      9  H14 ACR d         -19.762  -5.048  -7.355  0.00  0.00     0.090 H 
ATOM     10  H15 ACR d         -17.705  -7.299  -7.450  0.00  0.00     0.092 H 
ATOM     11  H16 ACR d         -20.718  -7.343  -7.010  0.00  0.00     0.086 H 
ENDROOT
BRANCH   1  12
ATOM     12  O4C ACR d         -20.705  -5.618  -4.987  0.00  0.00    -0.348 OA
BRANCH  12  13
ATOM     13  C4C ACR d         -21.385  -5.364  -3.758  0.00  0.00     0.096 C 
ATOM     14  C3C ACR d         -21.391  -6.654  -2.938  0.00  0.00     0.092 C 
ATOM     15  C2C ACR d         -21.860  -6.457  -1.494  0.00  0.00     0.110 C 
ATOM     16  H26 ACR d         -20.356  -7.025  -2.897  0.00  0.00     0.091 H 
ATOM     17  C1C ACR d         -21.159  -5.284  -0.816  0.00  0.00     0.159 C 
ATOM     18  H25 ACR d         -22.949  -6.302  -1.470  0.00  0.00     0.094 H 
ATOM     19  O5C ACR d         -21.265  -4.125  -1.661  0.00  0.00    -0.348 OA
ATOM     20  H24 ACR d         -21.635  -5.078   0.154  0.00  0.00     0.133 H 
ATOM     21  C5C ACR d         -20.687  -4.244  -2.978  0.00  0.00     0.089 C 
ATOM     22  H28 ACR d         -19.624  -4.508  -2.878  0.00  0.00     0.090 H 
ATOM     23  H27 ACR d         -22.420  -5.060  -3.970  0.00  0.00     0.091 H 
BRANCH  14  24
ATOM     24  O3C ACR d         -22.189  -7.642  -3.602  0.00  0.00    -0.390 OA
ATOM     25  H32 ACR d         -21.641  -8.378  -3.848  0.00  0.00     0.210 HD
ENDBRANCH  14  24
BRANCH  15  26
ATOM     26  O2C ACR d         -21.501  -7.639  -0.789  0.00  0.00    -0.388 OA
ATOM     27  H31 ACR d         -22.193  -7.865  -0.177  0.00  0.00     0.210 HD
ENDBRANCH  15  26
BRANCH  17  28
ATOM     28  O4D ACR d         -19.778  -5.609  -0.610  0.00  0.00    -0.348 OA
BRANCH  28  29
ATOM     29  C4D ACR d         -18.868  -4.535  -0.335  0.00  0.00     0.096 C 
ATOM     30  C3D ACR d         -19.053  -4.261   1.160  0.00  0.00     0.092 C 
ATOM     31  C2D ACR d         -18.069  -3.226   1.719  0.00  0.00     0.110 C 
ATOM     32  H36 ACR d         -18.861  -5.206   1.689  0.00  0.00     0.091 H 
ATOM     33  C1D ACR d         -16.603  -3.469   1.273  0.00  0.00     0.156 C 
ATOM     34  H35 ACR d         -18.365  -2.234   1.347  0.00  0.00     0.094 H 
ATOM     35  O5D ACR d         -16.483  -3.877  -0.106  0.00  0.00    -0.349 OA
ATOM     36  H34 ACR d         -16.075  -2.509   1.377  0.00  0.00     0.133 H 
ATOM     37  C5D ACR d         -17.385  -4.912  -0.564  0.00  0.00     0.089 C 
ATOM     38  H38 ACR d         -17.193  -5.814   0.035  0.00  0.00     0.090 H 
ATOM     39  H37 ACR d         -19.123  -3.654  -0.942  0.00  0.00     0.091 H 
BRANCH  30  40
ATOM     40  O3D ACR d         -20.415  -3.875   1.440  0.00  0.00    -0.390 OA
ATOM     41  H43 ACR d         -20.455  -2.935   1.572  0.00  0.00     0.210 HD
ENDBRANCH  30  40
BRANCH  31  42
ATOM     42  O2D ACR d         -18.200  -3.234   3.155  0.00  0.00    -0.388 OA
ATOM     43  H42 ACR d         -17.471  -2.763   3.541  0.00  0.00     0.210 HD
ENDBRANCH  31  42
BRANCH  33  44
ATOM     44  O1D ACR d         -15.940  -4.424   2.120  0.00  0.00    -0.369 OA
ATOM     45  H41 ACR d         -15.408  -3.965   2.759  0.00  0.00     0.212 HD
ENDBRANCH  33  44
BRANCH  37  46
ATOM     46  C6D ACR d         -17.033  -5.245  -2.017  0.00  0.00     0.043 C 
ATOM     47  H39 ACR d         -17.690  -6.049  -2.380  0.00  0.00     0.078 H 
ATOM     48  H40 ACR d         -15.984  -5.573  -2.076  0.00  0.00     0.078 H 
BRANCH  46  49
ATOM     49  O6D ACR d         -17.217  -4.070  -2.828  0.00  0.00    -0.398 OA
ATOM     50  H44 ACR d         -17.025  -3.296  -2.310  0.00  0.00     0.209 HD
ENDBRANCH  46  49
ENDBRANCH  37  46
ENDBRANCH  28  29
ENDBRANCH  17  28
BRANCH  21  51
ATOM     51  C6C ACR d         -20.783  -2.891  -3.676  0.00  0.00     0.043 C 
ATOM     52  H29 ACR d         -19.782  -2.441  -3.739  0.00  0.00     0.078 H 
ATOM     53  H30 ACR d         -21.448  -2.228  -3.101  0.00  0.00     0.078 H 
BRANCH  51  54
ATOM     54  O6C ACR d         -21.311  -3.068  -4.999  0.00  0.00    -0.398 OA
ATOM     55  H33 ACR d         -20.596  -3.105  -5.622  0.00  0.00     0.209 HD
ENDBRANCH  51  54
ENDBRANCH  21  51
ENDBRANCH  12  13
ENDBRANCH   1  12
BRANCH   2  56
ATOM     56  O2B ACR d         -18.471  -4.022  -5.278  0.00  0.00    -0.388 OA
ATOM     57  H22 ACR d         -17.593  -3.693  -5.123  0.00  0.00     0.210 HD
ENDBRANCH   2  56
BRANCH   3  58
ATOM     58  O3B ACR d         -17.817  -4.708  -7.972  0.00  0.00    -0.391 OA
ATOM     59  H23 ACR d         -16.997  -5.185  -8.023  0.00  0.00     0.210 HD
ENDBRANCH   3  58
BRANCH   5  60
ATOM     60  C6B ACR d         -19.655  -9.208  -7.116  0.00  0.00    -0.050 C 
ATOM     61  H17 ACR d         -20.360  -9.439  -7.928  0.00  0.00     0.031 H 
ATOM     62  H18 ACR d         -19.934  -9.775  -6.216  0.00  0.00     0.031 H 
ATOM     63  H19 ACR d         -18.637  -9.488  -7.425  0.00  0.00     0.031 H 
ENDBRANCH   5  60
BRANCH   4  64
ATOM     64  N4B ACR d         -18.868  -7.029  -9.140  0.00  0.00    -0.056 N 
ATOM     65  H20 ACR d         -19.291  -6.173  -9.466  0.00  0.00     0.278 HD
ATOM     66  H21 ACR d         -17.945  -7.119  -9.535  0.00  0.00     0.278 HD
BRANCH  64  67
ATOM     67  C1A ACR d         -19.685  -8.153  -9.671  0.00  0.00     0.146 C 
ATOM     68  C2A ACR d         -18.974  -9.063 -10.694  0.00  0.00     0.093 C 
ATOM     69  C3A ACR d         -18.796  -8.314 -12.015  0.00  0.00     0.091 C 
ATOM     70  H2  ACR d         -19.588  -9.960 -10.864  0.00  0.00     0.090 H 
ATOM     71  C4A ACR d         -20.164  -8.096 -12.632  0.00  0.00     0.086 C 
ATOM     72  H3  ACR d         -18.376  -7.327 -11.770  0.00  0.00     0.091 H 
ATOM     73  C5A ACR d         -21.151  -7.565 -11.614  0.00  0.00    -0.027 C 
ATOM     74  H4  ACR d         -20.537  -9.055 -13.020  0.00  0.00     0.094 H 
ATOM     75  C7A ACR d         -21.006  -7.699 -10.287  0.00  0.00    -0.064 C 
ATOM     76  H7  ACR d         -21.849  -7.480  -9.634  0.00  0.00     0.080 H 
ATOM     77  H1  ACR d         -19.929  -8.782  -8.802  0.00  0.00     0.095 H 
BRANCH  68  78
ATOM     78  O2A ACR d         -17.697  -9.458 -10.213  0.00  0.00    -0.390 OA
ATOM     79  H8  ACR d         -17.231  -9.924 -10.898  0.00  0.00     0.210 HD
ENDBRANCH  68  78
BRANCH  69  80
ATOM     80  O3A ACR d         -17.871  -8.931 -12.980  0.00  0.00    -0.390 OA
ATOM     81  H9  ACR d         -18.114  -8.670 -13.861  0.00  0.00     0.210 HD
ENDBRANCH  69  80
BRANCH  71  82
ATOM     82  O4A ACR d         -20.043  -7.168 -13.710  0.00  0.00    -0.388 OA
ATOM     83  H10 ACR d         -20.870  -6.717 -13.833  0.00  0.00     0.210 HD
ENDBRANCH  71  82
BRANCH  73  84
ATOM     84  C6A ACR d         -22.365  -6.893 -12.176  0.00  0.00     0.039 C 
ATOM     85  H5  ACR d         -23.276  -7.222 -11.656  0.00  0.00     0.081 H 
ATOM     86  H6  ACR d         -22.465  -7.091 -13.253  0.00  0.00     0.081 H 
BRANCH  84  87
ATOM     87  O6A ACR d         -22.102  -5.498 -11.928  0.00  0.00    -0.397 OA
ATOM     88  H11 ACR d         -21.838  -5.383 -11.022  0.00  0.00     0.209 HD
ENDBRANCH  84  87
ENDBRANCH  73  84
ENDBRANCH  64  67
ENDBRANCH   4  64
TORSDOF 23
ENDMDL
