MODEL 1
REMARK VINA RESULT:      -9.4      0.000      0.000
REMARK  5 active torsions:
REMARK  status: ('A' for Active; 'I' for Inactive)
REMARK    1  A    between atoms: C_2  and  CA_4 
REMARK    2  A    between atoms: CA_4  and  N_5 
REMARK    3  A    between atoms: CA_4  and  CB_6 
REMARK    4  A    between atoms: CB_6  and  CAS_7 
REMARK    5  A    between atoms: CAS_7  and  CAN_9 
ROOT
ATOM      1  CAS MS8 d           1.203  44.322   2.602  0.00  0.00     0.154 C 
ATOM      2  CAJ MS8 d           2.667  44.762   2.712  0.00  0.00     0.000 C 
ATOM      3  OAL MS8 d           1.158  43.019   3.196  0.00  0.00    -0.361 OA
ATOM      4  CAR MS8 d           2.402  42.440   2.784  0.00  0.00     0.065 C 
ATOM      5  CAQ MS8 d           3.365  43.516   3.259  0.00  0.00     0.066 C 
ATOM      6  CAH MS8 d           2.637  41.113   3.506  0.00  0.00    -0.036 C 
ATOM      7  CAP MS8 d           2.759  41.328   5.015  0.00  0.00    -0.043 C 
ATOM      8  CAG MS8 d           3.830  42.384   5.290  0.00  0.00     0.020 C 
ATOM      9  OAK MS8 d           3.400  43.616   4.692  0.00  0.00    -0.383 OA
ATOM     10  H7  MS8 d           2.773  45.610   3.405  0.00  0.00     0.042 H 
ATOM     11  H8  MS8 d           3.071  45.041   1.728  0.00  0.00     0.042 H 
ATOM     12  H9  MS8 d           2.454  42.291   1.696  0.00  0.00     0.087 H 
ATOM     13  H10 MS8 d           4.378  43.376   2.854  0.00  0.00     0.087 H 
ATOM     14  H11 MS8 d           3.566  40.658   3.131  0.00  0.00     0.036 H 
ATOM     15  H12 MS8 d           1.791  40.439   3.306  0.00  0.00     0.036 H 
ATOM     16  H13 MS8 d           3.043  40.383   5.500  0.00  0.00     0.036 H 
ATOM     17  H14 MS8 d           1.794  41.671   5.416  0.00  0.00     0.036 H 
ATOM     18  H15 MS8 d           4.787  42.069   4.849  0.00  0.00     0.074 H 
ATOM     19  H16 MS8 d           3.952  42.518   6.375  0.00  0.00     0.074 H 
ENDROOT
BRANCH   1  20
ATOM     20  CB  MS8 d           0.830  44.241   1.120  0.00  0.00     0.010 C 
ATOM     21  H5  MS8 d           0.848  45.253   0.690  0.00  0.00     0.042 H 
ATOM     22  H6  MS8 d           1.564  43.608   0.600  0.00  0.00     0.042 H 
BRANCH  20  23
ATOM     23  CA  MS8 d          -0.567  43.643   0.933  0.00  0.00     0.185 C 
ATOM     24  H1  MS8 d          -1.248  44.076   1.680  0.00  0.00     0.101 H 
BRANCH  23  25
ATOM     25  C   MS8 d          -1.059  44.004  -0.469  0.00  0.00     0.204 C 
ATOM     26  O   MS8 d          -1.017  45.214  -0.777  0.00  0.00    -0.646 OA
ATOM     27  OXT MS8 d          -1.453  43.067  -1.198  0.00  0.00    -0.646 OA
ENDBRANCH  23  25
BRANCH  23  28
ATOM     28  N   MS8 d          -0.544  42.183   1.105  0.00  0.00    -0.065 N 
ATOM     29  H2  MS8 d          -1.139  41.926   1.877  0.00  0.00     0.275 HD
ATOM     30  H3  MS8 d           0.398  41.881   1.293  0.00  0.00     0.275 HD
ATOM     31  H4  MS8 d          -0.877  41.740   0.263  0.00  0.00     0.275 HD
ENDBRANCH  23  28
ENDBRANCH  20  23
ENDBRANCH   1  20
BRANCH   1  32
ATOM     32  CAN MS8 d           0.278  45.295   3.334  0.00  0.00     0.209 C 
ATOM     33  OAC MS8 d          -0.417  46.062   2.633  0.00  0.00    -0.646 OA
ATOM     34  OAE MS8 d           0.297  45.264   4.584  0.00  0.00    -0.646 OA
ENDBRANCH   1  32
TORSDOF 5
ENDMDL
MODEL 2
REMARK VINA RESULT:      -7.0      1.728      2.004
REMARK  5 active torsions:
REMARK  status: ('A' for Active; 'I' for Inactive)
REMARK    1  A    between atoms: C_2  and  CA_4 
REMARK    2  A    between atoms: CA_4  and  N_5 
REMARK    3  A    between atoms: CA_4  and  CB_6 
REMARK    4  A    between atoms: CB_6  and  CAS_7 
REMARK    5  A    between atoms: CAS_7  and  CAN_9 
ROOT
ATOM      1  CAS MS8 d           1.920  44.324   3.633  0.00  0.00     0.154 C 
ATOM      2  CAJ MS8 d           3.406  43.947   3.647  0.00  0.00     0.000 C 
ATOM      3  OAL MS8 d           1.221  43.085   3.468  0.00  0.00    -0.361 OA
ATOM      4  CAR MS8 d           2.069  42.360   2.568  0.00  0.00     0.065 C 
ATOM      5  CAQ MS8 d           3.389  42.453   3.316  0.00  0.00     0.066 C 
ATOM      6  CAH MS8 d           1.595  40.912   2.438  0.00  0.00    -0.036 C 
ATOM      7  CAP MS8 d           1.694  40.184   3.778  0.00  0.00    -0.043 C 
ATOM      8  CAG MS8 d           3.113  40.326   4.327  0.00  0.00     0.020 C 
ATOM      9  OAK MS8 d           3.363  41.722   4.553  0.00  0.00    -0.383 OA
ATOM     10  H7  MS8 d           3.850  44.127   4.638  0.00  0.00     0.042 H 
ATOM     11  H8  MS8 d           3.964  44.513   2.887  0.00  0.00     0.042 H 
ATOM     12  H9  MS8 d           2.123  42.830   1.575  0.00  0.00     0.087 H 
ATOM     13  H10 MS8 d           4.242  42.138   2.696  0.00  0.00     0.087 H 
ATOM     14  H11 MS8 d           2.222  40.392   1.699  0.00  0.00     0.036 H 
ATOM     15  H12 MS8 d           0.547  40.905   2.101  0.00  0.00     0.036 H 
ATOM     16  H13 MS8 d           1.460  39.119   3.637  0.00  0.00     0.036 H 
ATOM     17  H14 MS8 d           0.979  40.625   4.489  0.00  0.00     0.036 H 
ATOM     18  H15 MS8 d           3.836  39.931   3.598  0.00  0.00     0.074 H 
ATOM     19  H16 MS8 d           3.205  39.773   5.274  0.00  0.00     0.074 H 
ENDROOT
BRANCH   1  20
ATOM     20  CB  MS8 d           1.663  45.241   2.437  0.00  0.00     0.010 C 
ATOM     21  H5  MS8 d           2.159  46.207   2.612  0.00  0.00     0.042 H 
ATOM     22  H6  MS8 d           2.078  44.775   1.531  0.00  0.00     0.042 H 
BRANCH  20  23
ATOM     23  CA  MS8 d           0.164  45.479   2.234  0.00  0.00     0.185 C 
ATOM     24  H1  MS8 d          -0.010  46.549   2.046  0.00  0.00     0.101 H 
BRANCH  23  25
ATOM     25  C   MS8 d          -0.288  44.673   1.016  0.00  0.00     0.204 C 
ATOM     26  O   MS8 d           0.022  45.135  -0.103  0.00  0.00    -0.646 OA
ATOM     27  OXT MS8 d          -0.921  43.614   1.231  0.00  0.00    -0.646 OA
ENDBRANCH  23  25
BRANCH  23  28
ATOM     28  N   MS8 d          -0.601  45.078   3.423  0.00  0.00    -0.065 N 
ATOM     29  H2  MS8 d          -0.115  45.381   4.253  0.00  0.00     0.275 HD
ATOM     30  H3  MS8 d          -0.698  44.075   3.439  0.00  0.00     0.275 HD
ATOM     31  H4  MS8 d          -1.515  45.503   3.395  0.00  0.00     0.275 HD
ENDBRANCH  23  28
ENDBRANCH  20  23
ENDBRANCH   1  20
BRANCH   1  32
ATOM     32  CAN MS8 d           1.516  45.016   4.936  0.00  0.00     0.209 C 
ATOM     33  OAC MS8 d           1.782  46.233   5.044  0.00  0.00    -0.646 OA
ATOM     34  OAE MS8 d           0.963  44.309   5.806  0.00  0.00    -0.646 OA
ENDBRANCH   1  32
TORSDOF 5
ENDMDL
MODEL 3
REMARK VINA RESULT:      -6.5      1.088      1.486
REMARK  5 active torsions:
REMARK  status: ('A' for Active; 'I' for Inactive)
REMARK    1  A    between atoms: C_2  and  CA_4 
REMARK    2  A    between atoms: CA_4  and  N_5 
REMARK    3  A    between atoms: CA_4  and  CB_6 
REMARK    4  A    between atoms: CB_6  and  CAS_7 
REMARK    5  A    between atoms: CAS_7  and  CAN_9 
ROOT
ATOM      1  CAS MS8 d           0.972  43.860   3.019  0.00  0.00     0.154 C 
ATOM      2  CAJ MS8 d           2.363  44.244   2.501  0.00  0.00     0.000 C 
ATOM      3  OAL MS8 d           1.202  42.813   3.968  0.00  0.00    -0.361 OA
ATOM      4  CAR MS8 d           2.278  42.077   3.372  0.00  0.00     0.065 C 
ATOM      5  CAQ MS8 d           3.275  43.200   3.147  0.00  0.00     0.066 C 
ATOM      6  CAH MS8 d           2.815  41.032   4.352  0.00  0.00    -0.036 C 
ATOM      7  CAP MS8 d           3.408  41.702   5.591  0.00  0.00    -0.043 C 
ATOM      8  CAG MS8 d           4.444  42.739   5.158  0.00  0.00     0.020 C 
ATOM      9  OAK MS8 d           3.769  43.742   4.383  0.00  0.00    -0.383 OA
ATOM     10  H7  MS8 d           2.637  45.261   2.822  0.00  0.00     0.042 H 
ATOM     11  H8  MS8 d           2.407  44.182   1.404  0.00  0.00     0.042 H 
ATOM     12  H9  MS8 d           1.981  41.592   2.430  0.00  0.00     0.087 H 
ATOM     13  H10 MS8 d           4.108  42.893   2.497  0.00  0.00     0.087 H 
ATOM     14  H11 MS8 d           3.597  40.440   3.854  0.00  0.00     0.036 H 
ATOM     15  H12 MS8 d           1.992  40.369   4.659  0.00  0.00     0.036 H 
ATOM     16  H13 MS8 d           3.891  40.943   6.224  0.00  0.00     0.036 H 
ATOM     17  H14 MS8 d           2.607  42.197   6.159  0.00  0.00     0.036 H 
ATOM     18  H15 MS8 d           5.222  42.257   4.548  0.00  0.00     0.074 H 
ATOM     19  H16 MS8 d           4.904  43.200   6.045  0.00  0.00     0.074 H 
ENDROOT
BRANCH   1  20
ATOM     20  CB  MS8 d           0.143  43.338   1.844  0.00  0.00     0.010 C 
ATOM     21  H5  MS8 d           0.392  42.281   1.671  0.00  0.00     0.042 H 
ATOM     22  H6  MS8 d          -0.925  43.428   2.091  0.00  0.00     0.042 H 
BRANCH  20  23
ATOM     23  CA  MS8 d           0.430  44.134   0.567  0.00  0.00     0.185 C 
ATOM     24  H1  MS8 d           1.281  43.678   0.041  0.00  0.00     0.101 H 
BRANCH  23  25
ATOM     25  C   MS8 d          -0.810  44.068  -0.326  0.00  0.00     0.204 C 
ATOM     26  O   MS8 d          -1.306  42.936  -0.505  0.00  0.00    -0.646 OA
ATOM     27  OXT MS8 d          -1.235  45.147  -0.797  0.00  0.00    -0.646 OA
ENDBRANCH  23  25
BRANCH  23  28
ATOM     28  N   MS8 d           0.761  45.532   0.879  0.00  0.00    -0.065 N 
ATOM     29  H2  MS8 d           0.267  45.817   1.710  0.00  0.00     0.275 HD
ATOM     30  H3  MS8 d           0.490  46.121   0.108  0.00  0.00     0.275 HD
ATOM     31  H4  MS8 d           1.754  45.616   1.032  0.00  0.00     0.275 HD
ENDBRANCH  23  28
ENDBRANCH  20  23
ENDBRANCH   1  20
BRANCH   1  32
ATOM     32  CAN MS8 d           0.279  45.056   3.673  0.00  0.00     0.209 C 
ATOM     33  OAC MS8 d           0.876  45.619   4.617  0.00  0.00    -0.646 OA
ATOM     34  OAE MS8 d          -0.845  45.373   3.228  0.00  0.00    -0.646 OA
ENDBRANCH   1  32
TORSDOF 5
ENDMDL
