MODEL 1
REMARK VINA RESULT:      -8.0      0.000      0.000
REMARK  3 active torsions:
REMARK  status: ('A' for Active; 'I' for Inactive)
REMARK    1  A    between atoms: C1'_19  and  C2_1 
REMARK    2  A    between atoms: C6_5  and  O5_12 
REMARK    3  A    between atoms: C8_7  and  O7_13 
ROOT
ATOM      1  C2  MOL d          21.455  -0.260  -5.874  0.00  0.00     0.090 A 
ATOM      2  C3  MOL d          21.838  -1.426  -6.526  0.00  0.00    -0.000 A 
ATOM      3  C4  MOL d          21.860  -1.463  -7.910  0.00  0.00     0.190 A 
ATOM      4  C5  MOL d          21.495  -0.326  -8.610  0.00  0.00     0.081 A 
ATOM      5  C6  MOL d          21.508  -0.336 -10.001  0.00  0.00     0.085 A 
ATOM      6  C7  MOL d          21.143   0.803 -10.708  0.00  0.00    -0.018 A 
ATOM      7  C8  MOL d          20.766   1.951 -10.022  0.00  0.00     0.071 A 
ATOM      8  C9  MOL d          20.754   1.957  -8.632  0.00  0.00    -0.017 A 
ATOM      9  C10 MOL d          21.118   0.821  -7.919  0.00  0.00     0.095 A 
ATOM     10  O1  MOL d          21.093   0.870  -6.554  0.00  0.00    -0.309 OA
ATOM     11  O4  MOL d          22.195  -2.486  -8.504  0.00  0.00    -0.287 OA
ATOM     12  H1  MOL d          22.120  -2.306  -5.951  0.00  0.00     0.094 H 
ATOM     13  H2  MOL d          21.151   0.795 -11.792  0.00  0.00     0.092 H 
ATOM     14  H3  MOL d          20.459   2.855  -8.101  0.00  0.00     0.092 H 
ENDROOT
BRANCH   1  15
ATOM     15  C1' MOL d          21.440  -0.241  -4.484  0.00  0.00    -0.002 A 
ATOM     16  C2' MOL d          20.573   0.612  -3.810  0.00  0.00    -0.070 A 
ATOM     17  C3' MOL d          20.558   0.631  -2.420  0.00  0.00    -0.082 A 
ATOM     18  H6  MOL d          19.909   1.262  -4.369  0.00  0.00     0.084 H 
ATOM     19  C4' MOL d          21.410  -0.202  -1.704  0.00  0.00    -0.083 A 
ATOM     20  H7  MOL d          19.882   1.296  -1.895  0.00  0.00     0.083 H 
ATOM     21  C5' MOL d          22.277  -1.055  -2.378  0.00  0.00    -0.082 A 
ATOM     22  H8  MOL d          21.399  -0.187  -0.620  0.00  0.00     0.083 H 
ATOM     23  C6' MOL d          22.292  -1.074  -3.768  0.00  0.00    -0.070 A 
ATOM     24  H9  MOL d          22.941  -1.704  -1.820  0.00  0.00     0.083 H 
ATOM     25  H10 MOL d          22.968  -1.738  -4.293  0.00  0.00     0.084 H 
ENDBRANCH   1  15
BRANCH   5  26
ATOM     26  O5  MOL d          21.877  -1.462 -10.668  0.00  0.00    -0.360 OA
ATOM     27  H4  MOL d          21.256  -2.157 -10.482  0.00  0.00     0.217 HD
ENDBRANCH   5  26
BRANCH   7  28
ATOM     28  O7  MOL d          20.408   3.068 -10.711  0.00  0.00    -0.361 OA
ATOM     29  H5  MOL d          20.088   2.819 -11.571  0.00  0.00     0.217 HD
ENDBRANCH   7  28
TORSDOF 3
ENDMDL
MODEL 2
REMARK VINA RESULT:      -7.8      1.128      2.735
REMARK  3 active torsions:
REMARK  status: ('A' for Active; 'I' for Inactive)
REMARK    1  A    between atoms: C1'_19  and  C2_1 
REMARK    2  A    between atoms: C6_5  and  O5_12 
REMARK    3  A    between atoms: C8_7  and  O7_13 
ROOT
ATOM      1  C2  MOL d          21.065   0.321  -5.881  0.00  0.00     0.090 A 
ATOM      2  C3  MOL d          20.673   1.493  -6.518  0.00  0.00    -0.000 A 
ATOM      3  C4  MOL d          20.652   1.549  -7.900  0.00  0.00     0.190 A 
ATOM      4  C5  MOL d          21.025   0.424  -8.617  0.00  0.00     0.081 A 
ATOM      5  C6  MOL d          21.012   0.453 -10.007  0.00  0.00     0.085 A 
ATOM      6  C7  MOL d          21.387  -0.673 -10.730  0.00  0.00    -0.018 A 
ATOM      7  C8  MOL d          21.772  -1.827 -10.059  0.00  0.00     0.071 A 
ATOM      8  C9  MOL d          21.784  -1.853  -8.670  0.00  0.00    -0.017 A 
ATOM      9  C10 MOL d          21.411  -0.729  -7.941  0.00  0.00     0.095 A 
ATOM     10  O1  MOL d          21.436  -0.796  -6.576  0.00  0.00    -0.309 OA
ATOM     11  O4  MOL d          20.308   2.577  -8.481  0.00  0.00    -0.287 OA
ATOM     12  H1  MOL d          20.384   2.363  -5.931  0.00  0.00     0.094 H 
ATOM     13  H2  MOL d          21.379  -0.650 -11.813  0.00  0.00     0.092 H 
ATOM     14  H3  MOL d          22.085  -2.755  -8.151  0.00  0.00     0.092 H 
ENDROOT
BRANCH   1  15
ATOM     15  C1' MOL d          21.080   0.283  -4.492  0.00  0.00    -0.002 A 
ATOM     16  C2' MOL d          20.307   1.180  -3.764  0.00  0.00    -0.070 A 
ATOM     17  C3' MOL d          20.322   1.142  -2.374  0.00  0.00    -0.082 A 
ATOM     18  H6  MOL d          19.692   1.909  -4.280  0.00  0.00     0.084 H 
ATOM     19  C4' MOL d          21.111   0.208  -1.712  0.00  0.00    -0.083 A 
ATOM     20  H7  MOL d          19.719   1.841  -1.807  0.00  0.00     0.083 H 
ATOM     21  C5' MOL d          21.884  -0.688  -2.441  0.00  0.00    -0.082 A 
ATOM     22  H8  MOL d          21.123   0.179  -0.629  0.00  0.00     0.083 H 
ATOM     23  C6' MOL d          21.869  -0.650  -3.830  0.00  0.00    -0.070 A 
ATOM     24  H9  MOL d          22.499  -1.417  -1.926  0.00  0.00     0.083 H 
ATOM     25  H10 MOL d          22.472  -1.349  -4.398  0.00  0.00     0.084 H 
ENDBRANCH   1  15
BRANCH   5  26
ATOM     26  O5  MOL d          20.635   1.585 -10.659  0.00  0.00    -0.360 OA
ATOM     27  H4  MOL d          21.348   2.213 -10.639  0.00  0.00     0.217 HD
ENDBRANCH   5  26
BRANCH   7  28
ATOM     28  O7  MOL d          22.139  -2.932 -10.763  0.00  0.00    -0.361 OA
ATOM     29  H5  MOL d          22.659  -2.669 -11.515  0.00  0.00     0.217 HD
ENDBRANCH   7  28
TORSDOF 3
ENDMDL
MODEL 3
REMARK VINA RESULT:      -7.7      2.519      6.970
REMARK  3 active torsions:
REMARK  status: ('A' for Active; 'I' for Inactive)
REMARK    1  A    between atoms: C1'_19  and  C2_1 
REMARK    2  A    between atoms: C6_5  and  O5_12 
REMARK    3  A    between atoms: C8_7  and  O7_13 
ROOT
ATOM      1  C2  MOL d          21.199  -0.073  -5.714  0.00  0.00     0.090 A 
ATOM      2  C3  MOL d          20.361   0.846  -5.093  0.00  0.00    -0.000 A 
ATOM      3  C4  MOL d          20.314   0.907  -3.711  0.00  0.00     0.190 A 
ATOM      4  C5  MOL d          21.112   0.042  -2.980  0.00  0.00     0.081 A 
ATOM      5  C6  MOL d          21.085   0.083  -1.591  0.00  0.00     0.085 A 
ATOM      6  C7  MOL d          21.883  -0.783  -0.854  0.00  0.00    -0.018 A 
ATOM      7  C8  MOL d          22.709  -1.688  -1.509  0.00  0.00     0.071 A 
ATOM      8  C9  MOL d          22.734  -1.726  -2.899  0.00  0.00    -0.017 A 
ATOM      9  C10 MOL d          21.937  -0.862  -3.642  0.00  0.00     0.095 A 
ATOM     10  O1  MOL d          21.991  -0.932  -5.005  0.00  0.00    -0.309 OA
ATOM     11  O4  MOL d          19.579   1.713  -3.143  0.00  0.00    -0.287 OA
ATOM     12  H1  MOL d          19.744   1.514  -5.690  0.00  0.00     0.094 H 
ATOM     13  H2  MOL d          21.861  -0.753   0.230  0.00  0.00     0.092 H 
ATOM     14  H3  MOL d          23.379  -2.433  -3.406  0.00  0.00     0.092 H 
ENDROOT
BRANCH   1  15
ATOM     15  C1' MOL d          21.233  -0.120  -7.103  0.00  0.00    -0.002 A 
ATOM     16  C2' MOL d          22.238  -0.829  -7.750  0.00  0.00    -0.070 A 
ATOM     17  C3' MOL d          22.272  -0.876  -9.139  0.00  0.00    -0.082 A 
ATOM     18  H6  MOL d          22.995  -1.346  -7.171  0.00  0.00     0.084 H 
ATOM     19  C4' MOL d          21.301  -0.212  -9.881  0.00  0.00    -0.083 A 
ATOM     20  H7  MOL d          23.055  -1.429  -9.643  0.00  0.00     0.083 H 
ATOM     21  C5' MOL d          20.296   0.497  -9.234  0.00  0.00    -0.082 A 
ATOM     22  H8  MOL d          21.328  -0.248 -10.964  0.00  0.00     0.083 H 
ATOM     23  C6' MOL d          20.262   0.544  -7.845  0.00  0.00    -0.070 A 
ATOM     24  H9  MOL d          19.539   1.014  -9.812  0.00  0.00     0.083 H 
ATOM     25  H10 MOL d          19.479   1.097  -7.340  0.00  0.00     0.084 H 
ENDBRANCH   1  15
BRANCH   5  26
ATOM     26  O5  MOL d          20.274   0.969  -0.953  0.00  0.00    -0.360 OA
ATOM     27  H4  MOL d          19.900   1.568  -1.588  0.00  0.00     0.217 HD
ENDBRANCH   5  26
BRANCH   7  28
ATOM     28  O7  MOL d          23.493  -2.537  -0.791  0.00  0.00    -0.361 OA
ATOM     29  H5  MOL d          23.244  -2.496   0.126  0.00  0.00     0.217 HD
ENDBRANCH   7  28
TORSDOF 3
ENDMDL
MODEL 4
REMARK VINA RESULT:      -7.5      2.515      6.448
REMARK  3 active torsions:
REMARK  status: ('A' for Active; 'I' for Inactive)
REMARK    1  A    between atoms: C1'_19  and  C2_1 
REMARK    2  A    between atoms: C6_5  and  O5_12 
REMARK    3  A    between atoms: C8_7  and  O7_13 
ROOT
ATOM      1  C2  MOL d          21.276  -0.091  -5.753  0.00  0.00     0.090 A 
ATOM      2  C3  MOL d          21.960  -1.146  -5.161  0.00  0.00    -0.000 A 
ATOM      3  C4  MOL d          22.035  -1.227  -3.781  0.00  0.00     0.190 A 
ATOM      4  C5  MOL d          21.419  -0.245  -3.023  0.00  0.00     0.081 A 
ATOM      5  C6  MOL d          21.479  -0.304  -1.636  0.00  0.00     0.085 A 
ATOM      6  C7  MOL d          20.863   0.680  -0.871  0.00  0.00    -0.018 A 
ATOM      7  C8  MOL d          20.187   1.719  -1.497  0.00  0.00     0.071 A 
ATOM      8  C9  MOL d          20.130   1.775  -2.885  0.00  0.00    -0.017 A 
ATOM      9  C10 MOL d          20.744   0.794  -3.655  0.00  0.00     0.095 A 
ATOM     10  O1  MOL d          20.664   0.885  -5.016  0.00  0.00    -0.309 OA
ATOM     11  O4  MOL d          22.636  -2.154  -3.240  0.00  0.00    -0.287 OA
ATOM     12  H1  MOL d          22.435  -1.905  -5.780  0.00  0.00     0.094 H 
ATOM     13  H2  MOL d          20.911   0.636   0.211  0.00  0.00     0.092 H 
ATOM     14  H3  MOL d          19.602   2.587  -3.370  0.00  0.00     0.092 H 
ENDROOT
BRANCH   1  15
ATOM     15  C1' MOL d          21.211  -0.025  -7.140  0.00  0.00    -0.002 A 
ATOM     16  C2' MOL d          22.147  -0.703  -7.912  0.00  0.00    -0.070 A 
ATOM     17  C3' MOL d          22.082  -0.638  -9.299  0.00  0.00    -0.082 A 
ATOM     18  H6  MOL d          22.927  -1.283  -7.432  0.00  0.00     0.084 H 
ATOM     19  C4' MOL d          21.081   0.107  -9.914  0.00  0.00    -0.083 A 
ATOM     20  H7  MOL d          22.812  -1.166  -9.901  0.00  0.00     0.083 H 
ATOM     21  C5' MOL d          20.145   0.784  -9.141  0.00  0.00    -0.082 A 
ATOM     22  H8  MOL d          21.031   0.158 -10.996  0.00  0.00     0.083 H 
ATOM     23  C6' MOL d          20.210   0.719  -7.754  0.00  0.00    -0.070 A 
ATOM     24  H9  MOL d          19.365   1.364  -9.620  0.00  0.00     0.083 H 
ATOM     25  H10 MOL d          19.481   1.248  -7.153  0.00  0.00     0.084 H 
ENDBRANCH   1  15
BRANCH   5  26
ATOM     26  O5  MOL d          22.142  -1.323  -1.026  0.00  0.00    -0.360 OA
ATOM     27  H4  MOL d          21.602  -2.104  -1.041  0.00  0.00     0.217 HD
ENDBRANCH   5  26
BRANCH   7  28
ATOM     28  O7  MOL d          19.583   2.684  -0.752  0.00  0.00    -0.361 OA
ATOM     29  H5  MOL d          19.633   3.515  -1.211  0.00  0.00     0.217 HD
ENDBRANCH   7  28
TORSDOF 3
ENDMDL
MODEL 5
REMARK VINA RESULT:      -7.4      1.210      2.943
REMARK  3 active torsions:
REMARK  status: ('A' for Active; 'I' for Inactive)
REMARK    1  A    between atoms: C1'_19  and  C2_1 
REMARK    2  A    between atoms: C6_5  and  O5_12 
REMARK    3  A    between atoms: C8_7  and  O7_13 
ROOT
ATOM      1  C2  MOL d          21.345  -0.257  -5.444  0.00  0.00     0.090 A 
ATOM      2  C3  MOL d          20.813   0.939  -5.911  0.00  0.00    -0.000 A 
ATOM      3  C4  MOL d          20.636   1.128  -7.270  0.00  0.00     0.190 A 
ATOM      4  C5  MOL d          20.998   0.109  -8.135  0.00  0.00     0.081 A 
ATOM      5  C6  MOL d          20.830   0.272  -9.505  0.00  0.00     0.085 A 
ATOM      6  C7  MOL d          21.192  -0.747 -10.377  0.00  0.00    -0.018 A 
ATOM      7  C8  MOL d          21.720  -1.930  -9.874  0.00  0.00     0.071 A 
ATOM      8  C9  MOL d          21.887  -2.090  -8.504  0.00  0.00    -0.017 A 
ATOM      9  C10 MOL d          21.527  -1.073  -7.627  0.00  0.00     0.095 A 
ATOM     10  O1  MOL d          21.707  -1.271  -6.287  0.00  0.00    -0.309 OA
ATOM     11  O4  MOL d          20.167   2.180  -7.701  0.00  0.00    -0.287 OA
ATOM     12  H1  MOL d          20.537   1.725  -5.209  0.00  0.00     0.094 H 
ATOM     13  H2  MOL d          21.063  -0.620 -11.445  0.00  0.00     0.092 H 
ATOM     14  H3  MOL d          22.300  -3.014  -8.116  0.00  0.00     0.092 H 
ENDROOT
BRANCH   1  15
ATOM     15  C1' MOL d          21.516  -0.429  -4.075  0.00  0.00    -0.002 A 
ATOM     16  C2' MOL d          22.379  -1.409  -3.600  0.00  0.00    -0.070 A 
ATOM     17  C3' MOL d          22.549  -1.581  -2.231  0.00  0.00    -0.082 A 
ATOM     18  H6  MOL d          22.919  -2.040  -4.297  0.00  0.00     0.084 H 
ATOM     19  C4' MOL d          21.856  -0.773  -1.337  0.00  0.00    -0.083 A 
ATOM     20  H7  MOL d          23.223  -2.345  -1.861  0.00  0.00     0.083 H 
ATOM     21  C5' MOL d          20.993   0.208  -1.813  0.00  0.00    -0.082 A 
ATOM     22  H8  MOL d          21.989  -0.907  -0.270  0.00  0.00     0.083 H 
ATOM     23  C6' MOL d          20.823   0.379  -3.182  0.00  0.00    -0.070 A 
ATOM     24  H9  MOL d          20.453   0.838  -1.116  0.00  0.00     0.083 H 
ATOM     25  H10 MOL d          20.150   1.144  -3.552  0.00  0.00     0.084 H 
ENDBRANCH   1  15
BRANCH   5  26
ATOM     26  O5  MOL d          20.313   1.432  -9.993  0.00  0.00    -0.360 OA
ATOM     27  H4  MOL d          19.377   1.332 -10.118  0.00  0.00     0.217 HD
ENDBRANCH   5  26
BRANCH   7  28
ATOM     28  O7  MOL d          22.075  -2.932 -10.724  0.00  0.00    -0.361 OA
ATOM     29  H5  MOL d          21.375  -3.572 -10.767  0.00  0.00     0.217 HD
ENDBRANCH   7  28
TORSDOF 3
ENDMDL
MODEL 6
REMARK VINA RESULT:      -6.3      0.892      1.404
REMARK  3 active torsions:
REMARK  status: ('A' for Active; 'I' for Inactive)
REMARK    1  A    between atoms: C1'_19  and  C2_1 
REMARK    2  A    between atoms: C6_5  and  O5_12 
REMARK    3  A    between atoms: C8_7  and  O7_13 
ROOT
ATOM      1  C2  MOL d          21.417  -0.603  -5.590  0.00  0.00     0.090 A 
ATOM      2  C3  MOL d          21.035  -1.758  -6.262  0.00  0.00    -0.000 A 
ATOM      3  C4  MOL d          20.858  -1.727  -7.635  0.00  0.00     0.190 A 
ATOM      4  C5  MOL d          21.069  -0.533  -8.304  0.00  0.00     0.081 A 
ATOM      5  C6  MOL d          20.899  -0.475  -9.683  0.00  0.00     0.085 A 
ATOM      6  C7  MOL d          21.109   0.721 -10.360  0.00  0.00    -0.018 A 
ATOM      7  C8  MOL d          21.491   1.855  -9.655  0.00  0.00     0.071 A 
ATOM      8  C9  MOL d          21.660   1.793  -8.277  0.00  0.00    -0.017 A 
ATOM      9  C10 MOL d          21.451   0.600  -7.594  0.00  0.00     0.095 A 
ATOM     10  O1  MOL d          21.628   0.582  -6.239  0.00  0.00    -0.309 OA
ATOM     11  O4  MOL d          20.521  -2.739  -8.246  0.00  0.00    -0.287 OA
ATOM     12  H1  MOL d          20.876  -2.683  -5.711  0.00  0.00     0.094 H 
ATOM     13  H2  MOL d          20.975   0.768 -11.434  0.00  0.00     0.092 H 
ATOM     14  H3  MOL d          21.957   2.680  -7.730  0.00  0.00     0.092 H 
ENDROOT
BRANCH   1  15
ATOM     15  C1' MOL d          21.590  -0.653  -4.211  0.00  0.00    -0.002 A 
ATOM     16  C2' MOL d          22.719  -1.261  -3.675  0.00  0.00    -0.070 A 
ATOM     17  C3' MOL d          22.891  -1.311  -2.296  0.00  0.00    -0.082 A 
ATOM     18  H6  MOL d          23.464  -1.695  -4.331  0.00  0.00     0.084 H 
ATOM     19  C4' MOL d          21.935  -0.754  -1.454  0.00  0.00    -0.083 A 
ATOM     20  H7  MOL d          23.772  -1.784  -1.878  0.00  0.00     0.083 H 
ATOM     21  C5' MOL d          20.806  -0.147  -1.992  0.00  0.00    -0.082 A 
ATOM     22  H8  MOL d          22.070  -0.794  -0.380  0.00  0.00     0.083 H 
ATOM     23  C6' MOL d          20.633  -0.096  -3.370  0.00  0.00    -0.070 A 
ATOM     24  H9  MOL d          20.061   0.288  -1.336  0.00  0.00     0.083 H 
ATOM     25  H10 MOL d          19.753   0.377  -3.789  0.00  0.00     0.084 H 
ENDBRANCH   1  15
BRANCH   5  26
ATOM     26  O5  MOL d          20.525  -1.588 -10.370  0.00  0.00    -0.360 OA
ATOM     27  H4  MOL d          19.644  -1.834 -10.114  0.00  0.00     0.217 HD
ENDBRANCH   5  26
BRANCH   7  28
ATOM     28  O7  MOL d          21.698   3.028 -10.314  0.00  0.00    -0.361 OA
ATOM     29  H5  MOL d          20.900   3.544 -10.298  0.00  0.00     0.217 HD
ENDBRANCH   7  28
TORSDOF 3
ENDMDL
