MODEL 1
REMARK VINA RESULT:     -10.7      0.000      0.000
REMARK  12 active torsions:
REMARK  status: ('A' for Active; 'I' for Inactive)
REMARK    1  A    between atoms: C6_6  and  O19_13 
REMARK    2  A    between atoms: C10_7  and  C13_10 
REMARK    3  A    between atoms: C11_8  and  C14_11 
REMARK    4  A    between atoms: N12_9  and  C18_12 
REMARK    5  A    between atoms: C18_12  and  C24_18 
REMARK    6  A    between atoms: O19_13  and  C20_14 
REMARK    7  A    between atoms: C28_20  and  O36_25 
REMARK    8  A    between atoms: O36_25  and  C37_26 
REMARK    9  A    between atoms: C37_26  and  C38_27 
REMARK   10  A    between atoms: C37_26  and  C42_28 
REMARK   11  A    between atoms: C51_36  and  O57_39 
REMARK   12  A    between atoms: O57_39  and  C58_40 
ROOT
ATOM      1  C1  C03 d          15.360   5.016  15.701  0.00  0.00    -0.050 A 
ATOM      2  C2  C03 d          14.269   4.922  14.838  0.00  0.00    -0.067 A 
ATOM      3  C3  C03 d          14.546   4.854  13.313  0.00  0.00     0.005 A 
ATOM      4  C4  C03 d          15.789   4.892  12.798  0.00  0.00     0.049 A 
ATOM      5  C5  C03 d          16.905   4.990  13.693  0.00  0.00    -0.024 A 
ATOM      6  C6  C03 d          16.694   5.049  15.149  0.00  0.00     0.080 A 
ATOM      7  C10 C03 d          13.496   4.748  12.344  0.00  0.00     0.031 A 
ATOM      8  C11 C03 d          14.259   4.732  11.151  0.00  0.00     0.022 A 
ATOM      9  N12 C03 d          15.675   4.821  11.394  0.00  0.00    -0.345 N 
ATOM     10  H1  C03 d          15.208   5.064  16.773  0.00  0.00     0.087 H 
ATOM     11  H2  C03 d          13.255   4.898  15.223  0.00  0.00     0.085 H 
ATOM     12  H3  C03 d          17.913   5.020  13.294  0.00  0.00     0.091 H 
ENDROOT
BRANCH   9  13
ATOM     13  C18 C03 d          16.821   4.840  10.436  0.00  0.00     0.025 C 
ATOM     14  H7  C03 d          16.525   4.280   9.537  0.00  0.00     0.072 H 
ATOM     15  H8  C03 d          17.676   4.341  10.915  0.00  0.00     0.072 H 
BRANCH  13  16
ATOM     16  C24 C03 d          17.274   6.265   9.995  0.00  0.00    -0.016 A 
ATOM     17  C27 C03 d          16.515   7.447  10.414  0.00  0.00    -0.041 A 
ATOM     18  C28 C03 d          16.887   8.785  10.037  0.00  0.00     0.070 A 
ATOM     19  H9  C03 d          15.637   7.308  11.035  0.00  0.00     0.088 H 
ATOM     20  C29 C03 d          18.055   8.965   9.206  0.00  0.00    -0.049 A 
ATOM     21  C30 C03 d          18.828   7.838   8.773  0.00  0.00    -0.059 A 
ATOM     22  H10 C03 d          18.351   9.964   8.907  0.00  0.00     0.087 H 
ATOM     23  C31 C03 d          18.448   6.508   9.161  0.00  0.00     0.042 A 
ATOM     24  H11 C03 d          19.703   7.990   8.150  0.00  0.00     0.086 H 
ATOM     25 CL1  C03 d          19.457   5.258   8.583  0.00  0.00    -0.084 Cl
BRANCH  18  26
ATOM     26  O36 C03 d          16.065   9.845  10.537  0.00  0.00    -0.336 OA
BRANCH  26  27
ATOM     27  C37 C03 d          15.285  10.723   9.693  0.00  0.00     0.125 C 
ATOM     28  H12 C03 d          15.960  11.350   9.092  0.00  0.00     0.100 H 
BRANCH  27  29
ATOM     29  C38 C03 d          14.414  11.568  10.634  0.00  0.00    -0.042 C 
ATOM     30  H13 C03 d          13.629  10.935  11.074  0.00  0.00     0.031 H 
ATOM     31  H14 C03 d          13.949  12.387  10.065  0.00  0.00     0.031 H 
ATOM     32  H15 C03 d          15.039  11.987  11.436  0.00  0.00     0.031 H 
ENDBRANCH  27  29
BRANCH  27  33
ATOM     33  C42 C03 d          14.284  10.016   8.781  0.00  0.00     0.203 C 
ATOM     34  O44 C03 d          13.553   9.172   9.153  0.00  0.00    -0.646 OA
ATOM     35  O45 C03 d          14.347  10.463   7.511  0.00  0.00    -0.646 OA
ENDBRANCH  27  33
ENDBRANCH  26  27
ENDBRANCH  18  26
ENDBRANCH  13  16
ENDBRANCH   9  13
BRANCH   8  36
ATOM     36  C14 C03 d          13.679   4.635   9.741  0.00  0.00    -0.036 C 
ATOM     37  H4  C03 d          14.498   4.513   9.016  0.00  0.00     0.035 H 
ATOM     38  H5  C03 d          13.119   5.553   9.512  0.00  0.00     0.035 H 
ATOM     39  H6  C03 d          13.004   3.769   9.682  0.00  0.00     0.035 H 
ENDBRANCH   8  36
BRANCH   7  40
ATOM     40  C13 C03 d          11.997   4.680  12.589  0.00  0.00     0.110 A 
ATOM     41  N46 C03 d          10.949   5.414  12.090  0.00  0.00    -0.126 NA
ATOM     42  O47 C03 d           9.748   5.031  12.602  0.00  0.00    -0.212 OA
ATOM     43  C48 C03 d           9.944   4.011  13.477  0.00  0.00     0.116 A 
ATOM     44  C49 C03 d          11.350   3.760  13.483  0.00  0.00     0.032 A 
ATOM     45  C50 C03 d           9.034   3.289  14.260  0.00  0.00    -0.015 A 
ATOM     46  C53 C03 d          11.824   2.658  14.380  0.00  0.00    -0.065 A 
ATOM     47  C52 C03 d          10.916   1.921  15.176  0.00  0.00    -0.050 A 
ATOM     48  H18 C03 d          12.881   2.421  14.420  0.00  0.00     0.085 H 
ATOM     49  C51 C03 d           9.518   2.218  15.139  0.00  0.00     0.070 A 
ATOM     50  H17 C03 d          11.283   1.127  15.817  0.00  0.00     0.087 H 
ATOM     51  H16 C03 d           7.975   3.521  14.217  0.00  0.00     0.092 H 
BRANCH  49  52
ATOM     52  O57 C03 d           8.558   1.551  15.890  0.00  0.00    -0.356 OA
BRANCH  52  53
ATOM     53  C58 C03 d           8.555   1.684  17.295  0.00  0.00     0.010 C 
ATOM     54  H19 C03 d           9.188   2.536  17.584  0.00  0.00     0.066 H 
ATOM     55  H20 C03 d           8.949   0.763  17.751  0.00  0.00     0.066 H 
ATOM     56  H21 C03 d           7.526   1.855  17.646  0.00  0.00     0.066 H 
ENDBRANCH  52  53
ENDBRANCH  49  52
ENDBRANCH   7  40
BRANCH   6  57
ATOM     57  O19 C03 d          17.829   5.133  15.929  0.00  0.00    -0.255 OA
BRANCH  57  58
ATOM     58  C20 C03 d          18.402   4.020  16.568  0.00  0.00     0.530 C 
ATOM     59  F21 C03 d          18.359   3.029  15.703  0.00  0.00    -0.144 F 
ATOM     60  F22 C03 d          17.690   3.697  17.662  0.00  0.00    -0.144 F 
ATOM     61  F23 C03 d          19.665   4.281  16.883  0.00  0.00    -0.144 F 
ENDBRANCH  57  58
ENDBRANCH   6  57
TORSDOF 12
ENDMDL
