MODEL 1
REMARK VINA RESULT:     -10.9      0.000      0.000
REMARK  23 active torsions:
REMARK  status: ('A' for Active; 'I' for Inactive)
REMARK    1  A    between atoms: CBK_1  and  CBL_2 
REMARK    2  A    between atoms: CBL_2  and  CBM_3 
REMARK    3  A    between atoms: CBL_2  and  CBN_4 
REMARK    4  A    between atoms: CBN_4  and  NBO_5 
REMARK       I    between atoms: NBO_5  and  CBP_6 
REMARK    5  A    between atoms: CBP_6  and  CBG_8 
REMARK    6  A    between atoms: CBG_8  and  CBH_9 
REMARK    7  A    between atoms: CBG_8  and  NBF_12 
REMARK    8  A    between atoms: CBH_9  and  CBJ_10 
REMARK    9  A    between atoms: CBH_9  and  OBI_11 
REMARK   10  A    between atoms: NBF_12  and  CAX_13 
REMARK   11  A    between atoms: CAX_13  and  CAW_14 
REMARK   12  A    between atoms: CAW_14  and  CAY_15 
REMARK   13  A    between atoms: CAW_14  and  NAV_22 
REMARK   14  A    between atoms: CAY_15  and  CAZ_16 
REMARK       I    between atoms: NAV_22  and  CAT_23 
REMARK   15  A    between atoms: CAT_23  and  CAP_25 
REMARK   16  A    between atoms: CAN_28  and  NAE_29 
REMARK   17  A    between atoms: NAE_29  and  CBT_30 
REMARK   18  A    between atoms: NAE_29  and  SAB_31 
REMARK   19  A    between atoms: SAB_31  and  CAA_34 
REMARK   20  A    between atoms: CAR_36  and  CAL_37 
REMARK       I    between atoms: CAL_37  and  NBQ_39 
REMARK   21  A    between atoms: NBQ_39  and  CBR_40 
REMARK   22  A    between atoms: CBR_40  and  CBS_41 
REMARK   23  A    between atoms: CBR_40  and  CAI_42 
ROOT
ATOM      1  CAW MOL d          42.732  -4.555  10.142  0.00  0.00     0.039 C 
ATOM      2  H21 MOL d          43.389  -4.909  10.950  0.00  0.00     0.075 H 
ENDROOT
BRANCH   1   3
ATOM      3  CAX MOL d          43.415  -3.356   9.476  0.00  0.00     0.101 C 
ATOM      4  H19 MOL d          44.352  -3.700   9.013  0.00  0.00     0.079 H 
ATOM      5  H20 MOL d          42.746  -2.960   8.697  0.00  0.00     0.079 H 
BRANCH   3   6
ATOM      6  NBF MOL d          43.729  -2.271  10.419  0.00  0.00    -0.058 N 
ATOM      7  H17 MOL d          42.994  -1.581  10.387  0.00  0.00     0.278 HD
ATOM      8  H18 MOL d          43.794  -2.649  11.350  0.00  0.00     0.278 HD
BRANCH   6   9
ATOM      9  CBG MOL d          45.007  -1.636  10.061  0.00  0.00     0.201 C 
ATOM     10  H11 MOL d          45.061  -1.625   8.962  0.00  0.00     0.103 H 
BRANCH   9  11
ATOM     11  CBP MOL d          46.255  -2.379  10.571  0.00  0.00     0.251 C 
ATOM     12  NBO MOL d          47.395  -2.257   9.649  0.00  0.00    -0.359 N 
ATOM     13  H10 MOL d          47.369  -1.806   8.757  0.00  0.00     0.162 HD
ATOM     14  OBV MOL d          46.445  -2.560  11.776  0.00  0.00    -0.271 OA
BRANCH  12  15
ATOM     15  CBN MOL d          48.582  -2.900  10.239  0.00  0.00    -0.002 C 
ATOM     16  H8  MOL d          49.312  -2.124  10.517  0.00  0.00     0.064 H 
ATOM     17  H9  MOL d          48.281  -3.458  11.138  0.00  0.00     0.064 H 
BRANCH  15  18
ATOM     18  CBL MOL d          49.230  -3.864   9.244  0.00  0.00    -0.046 C 
ATOM     19  H4  MOL d          48.504  -4.654   9.003  0.00  0.00     0.041 H 
BRANCH  18  20
ATOM     20  CBK MOL d          49.590  -3.110   7.965  0.00  0.00    -0.072 C 
ATOM     21  H1  MOL d          50.056  -3.803   7.249  0.00  0.00     0.028 H 
ATOM     22  H2  MOL d          50.295  -2.299   8.203  0.00  0.00     0.028 H 
ATOM     23  H3  MOL d          48.677  -2.684   7.522  0.00  0.00     0.028 H 
ENDBRANCH  18  20
BRANCH  18  24
ATOM     24  CBM MOL d          50.491  -4.522   9.813  0.00  0.00    -0.072 C 
ATOM     25  H5  MOL d          50.238  -5.066  10.734  0.00  0.00     0.028 H 
ATOM     26  H6  MOL d          51.240  -3.747  10.039  0.00  0.00     0.028 H 
ATOM     27  H7  MOL d          50.903  -5.225   9.073  0.00  0.00     0.028 H 
ENDBRANCH  18  24
ENDBRANCH  15  18
ENDBRANCH  12  15
ENDBRANCH   9  11
BRANCH   9  28
ATOM     28  CBH MOL d          45.050  -0.181  10.552  0.00  0.00     0.068 C 
ATOM     29  H12 MOL d          44.826   0.449   9.679  0.00  0.00     0.086 H 
BRANCH  28  30
ATOM     30  CBJ MOL d          43.964   0.112  11.588  0.00  0.00    -0.050 C 
ATOM     31  H13 MOL d          44.035   1.162  11.908  0.00  0.00     0.031 H 
ATOM     32  H14 MOL d          44.100  -0.547  12.459  0.00  0.00     0.031 H 
ATOM     33  H15 MOL d          42.974  -0.069  11.143  0.00  0.00     0.031 H 
ENDBRANCH  28  30
BRANCH  28  34
ATOM     34  OBI MOL d          46.355   0.202  11.003  0.00  0.00    -0.393 OA
ATOM     35  H16 MOL d          46.994   0.000  10.329  0.00  0.00     0.210 HD
ENDBRANCH  28  34
ENDBRANCH   9  28
ENDBRANCH   6   9
ENDBRANCH   3   6
ENDBRANCH   1   3
BRANCH   1  36
ATOM     36  CAY MOL d          42.547  -5.691   9.131  0.00  0.00    -0.021 C 
ATOM     37  H22 MOL d          43.530  -6.127   8.904  0.00  0.00     0.043 H 
ATOM     38  H23 MOL d          42.106  -5.279   8.212  0.00  0.00     0.043 H 
BRANCH  36  39
ATOM     39  CAZ MOL d          41.712  -6.697   9.617  0.00  0.00    -0.056 A 
ATOM     40  CBA MOL d          40.556  -7.047   8.928  0.00  0.00    -0.077 A 
ATOM     41  CBB MOL d          39.686  -8.006   9.439  0.00  0.00    -0.082 A 
ATOM     42  H24 MOL d          40.330  -6.568   7.982  0.00  0.00     0.084 H 
ATOM     43  CBC MOL d          39.963  -8.620  10.655  0.00  0.00    -0.083 A 
ATOM     44  H25 MOL d          38.791  -8.273   8.889  0.00  0.00     0.083 H 
ATOM     45  CBD MOL d          41.116  -8.268  11.349  0.00  0.00    -0.082 A 
ATOM     46  H26 MOL d          39.287  -9.366  11.059  0.00  0.00     0.083 H 
ATOM     47  CBE MOL d          41.991  -7.319  10.830  0.00  0.00    -0.077 A 
ATOM     48  H27 MOL d          41.335  -8.737  12.302  0.00  0.00     0.083 H 
ATOM     49  H28 MOL d          42.893  -7.063  11.373  0.00  0.00     0.084 H 
ENDBRANCH  36  39
ENDBRANCH   1  36
BRANCH   1  50
ATOM     50  NAV MOL d          41.428  -4.220  10.734  0.00  0.00    -0.350 N 
ATOM     51  CAT MOL d          41.319  -3.962  12.045  0.00  0.00     0.252 C 
ATOM     52  OAU MOL d          42.293  -3.925  12.795  0.00  0.00    -0.268 OA
ATOM     53  H29 MOL d          40.616  -4.185  10.153  0.00  0.00     0.163 HD
BRANCH  51  54
ATOM     54  CAP MOL d          40.024  -3.726  12.500  0.00  0.00     0.034 A 
ATOM     55  CAQ MOL d          39.017  -4.576  12.058  0.00  0.00    -0.052 A 
ATOM     56  CAR MOL d          37.771  -4.575  12.674  0.00  0.00     0.034 A 
ATOM     57  H30 MOL d          39.204  -5.245  11.226  0.00  0.00     0.086 H 
ATOM     58  CAS MOL d          37.531  -3.700  13.729  0.00  0.00    -0.046 A 
ATOM     59  CAN MOL d          38.508  -2.810  14.162  0.00  0.00     0.026 A 
ATOM     60  H38 MOL d          36.566  -3.712  14.222  0.00  0.00     0.087 H 
ATOM     61  CAO MOL d          39.766  -2.861  13.561  0.00  0.00    -0.046 A 
ATOM     62  H31 MOL d          40.557  -2.216  13.926  0.00  0.00     0.087 H 
BRANCH  56  63
ATOM     63  CAL MOL d          36.728  -5.328  12.148  0.00  0.00     0.252 C 
ATOM     64  OAM MOL d          35.908  -5.866  12.891  0.00  0.00    -0.268 OA
ATOM     65  NBQ MOL d          36.773  -5.567  10.829  0.00  0.00    -0.349 N 
ATOM     66  H39 MOL d          37.530  -5.203  10.286  0.00  0.00     0.163 HD
BRANCH  65  67
ATOM     67  CBR MOL d          35.721  -6.357  10.172  0.00  0.00     0.034 C 
ATOM     68  H40 MOL d          35.036  -6.726  10.951  0.00  0.00     0.079 H 
BRANCH  67  69
ATOM     69  CBS MOL d          36.339  -7.565   9.465  0.00  0.00    -0.053 C 
ATOM     70  H41 MOL d          35.546  -8.150   8.976  0.00  0.00     0.030 H 
ATOM     71  H42 MOL d          36.859  -8.195  10.201  0.00  0.00     0.030 H 
ATOM     72  H43 MOL d          37.057  -7.218   8.707  0.00  0.00     0.030 H 
ENDBRANCH  67  69
BRANCH  67  73
ATOM     73  CAI MOL d          34.978  -5.592   9.276  0.00  0.00    -0.036 A 
ATOM     74  CAH MOL d          33.653  -5.292   9.568  0.00  0.00    -0.075 A 
ATOM     75  CAG MOL d          32.934  -4.406   8.768  0.00  0.00    -0.082 A 
ATOM     76  H44 MOL d          33.174  -5.751  10.426  0.00  0.00     0.084 H 
ATOM     77  CAF MOL d          33.542  -3.812   7.668  0.00  0.00    -0.083 A 
ATOM     78  H45 MOL d          31.900  -4.179   9.004  0.00  0.00     0.083 H 
ATOM     79  CAK MOL d          34.867  -4.115   7.367  0.00  0.00    -0.082 A 
ATOM     80  H46 MOL d          32.987  -3.117   7.048  0.00  0.00     0.083 H 
ATOM     81  CAJ MOL d          35.578  -5.009   8.163  0.00  0.00    -0.075 A 
ATOM     82  H47 MOL d          35.346  -3.654   6.511  0.00  0.00     0.083 H 
ATOM     83  H48 MOL d          36.605  -5.252   7.915  0.00  0.00     0.084 H 
ENDBRANCH  67  73
ENDBRANCH  65  67
ENDBRANCH  56  63
BRANCH  59  84
ATOM     84  NAE MOL d          38.304  -2.133  15.295  0.00  0.00    -0.181 NA
BRANCH  84  85
ATOM     85  CBT MOL d          39.465  -1.338  15.720  0.00  0.00    -0.015 C 
ATOM     86  H32 MOL d          40.375  -1.952  15.655  0.00  0.00     0.050 H 
ATOM     87  H33 MOL d          39.321  -1.005  16.759  0.00  0.00     0.050 H 
ATOM     88  H34 MOL d          39.568  -0.460  15.065  0.00  0.00     0.050 H 
ENDBRANCH  84  85
BRANCH  84  89
ATOM     89  SAB MOL d          36.926  -1.240  15.382  0.00  0.00     0.211 S 
ATOM     90  OAC MOL d          37.195   0.077  16.112  0.00  0.00    -0.211 OA
ATOM     91  OAD MOL d          36.378  -0.937  13.985  0.00  0.00    -0.211 OA
BRANCH  89  92
ATOM     92  CAA MOL d          35.702  -2.167  16.284  0.00  0.00     0.029 C 
ATOM     93  H35 MOL d          34.774  -1.581  16.350  0.00  0.00     0.050 H 
ATOM     94  H36 MOL d          36.074  -2.379  17.297  0.00  0.00     0.050 H 
ATOM     95  H37 MOL d          35.501  -3.114  15.762  0.00  0.00     0.050 H 
ENDBRANCH  89  92
ENDBRANCH  84  89
ENDBRANCH  59  84
ENDBRANCH  51  54
ENDBRANCH   1  50
TORSDOF 23
ENDMDL
