MODEL 1
REMARK VINA RESULT:      -4.8      0.000      0.000
REMARK  6 active torsions:
REMARK  status: ('A' for Active; 'I' for Inactive)
REMARK    1  A    between atoms: N_1  and  CA_2 
REMARK    2  A    between atoms: CA_2  and  C_3 
REMARK    3  A    between atoms: CA_2  and  CB_5 
REMARK    4  A    between atoms: CB_5  and  CG_6 
REMARK    5  A    between atoms: CG_6  and  CD1_7 
REMARK    6  A    between atoms: CG_6  and  CD2_8 
ROOT
ATOM      1  CB  LEU d          34.496  -1.047  37.798  0.00  0.00    -0.026 C 
ATOM      2  H5  LEU d          34.705  -1.541  36.838  0.00  0.00     0.037 H 
ATOM      3  H6  LEU d          35.008  -0.074  37.829  0.00  0.00     0.037 H 
ENDROOT
BRANCH   1   4
ATOM      4  CA  LEU d          35.116  -1.911  38.887  0.00  0.00     0.182 C 
ATOM      5  H4  LEU d          34.428  -2.731  39.142  0.00  0.00     0.101 H 
BRANCH   4   6
ATOM      6  N   LEU d          35.394  -1.101  40.090  0.00  0.00    -0.065 N 
ATOM      7  H1  LEU d          34.527  -0.744  40.461  0.00  0.00     0.275 HD
ATOM      8  H2  LEU d          35.997  -0.332  39.846  0.00  0.00     0.275 HD
ATOM      9  H3  LEU d          35.846  -1.675  40.785  0.00  0.00     0.275 HD
ENDBRANCH   4   6
BRANCH   4  10
ATOM     10  C   LEU d          36.418  -2.471  38.394  0.00  0.00     0.204 C 
ATOM     11  O   LEU d          37.320  -2.710  39.217  0.00  0.00    -0.646 OA
ATOM     12  OXT LEU d          36.587  -2.650  37.184  0.00  0.00    -0.646 OA
ENDBRANCH   4  10
ENDBRANCH   1   4
BRANCH   1  13
ATOM     13  CG  LEU d          32.989  -0.763  37.839  0.00  0.00    -0.059 C 
ATOM     14  H7  LEU d          32.615  -0.858  36.809  0.00  0.00     0.038 H 
BRANCH  13  15
ATOM     15  CD1 LEU d          32.217  -1.796  38.712  0.00  0.00    -0.073 C 
ATOM     16  H8  LEU d          32.417  -2.812  38.340  0.00  0.00     0.028 H 
ATOM     17  H9  LEU d          31.137  -1.591  38.655  0.00  0.00     0.028 H 
ATOM     18  H10 LEU d          32.552  -1.716  39.757  0.00  0.00     0.028 H 
ENDBRANCH  13  15
BRANCH  13  19
ATOM     19  CD2 LEU d          32.695   0.628  38.293  0.00  0.00    -0.073 C 
ATOM     20  H11 LEU d          32.071   0.594  39.199  0.00  0.00     0.028 H 
ATOM     21  H12 LEU d          32.158   1.167  37.499  0.00  0.00     0.028 H 
ATOM     22  H13 LEU d          33.638   1.148  38.516  0.00  0.00     0.028 H 
ENDBRANCH  13  19
ENDBRANCH   1  13
TORSDOF 6
ENDMDL
MODEL 2
REMARK VINA RESULT:      -4.7      1.109      1.879
REMARK  6 active torsions:
REMARK  status: ('A' for Active; 'I' for Inactive)
REMARK    1  A    between atoms: N_1  and  CA_2 
REMARK    2  A    between atoms: CA_2  and  C_3 
REMARK    3  A    between atoms: CA_2  and  CB_5 
REMARK    4  A    between atoms: CB_5  and  CG_6 
REMARK    5  A    between atoms: CG_6  and  CD1_7 
REMARK    6  A    between atoms: CG_6  and  CD2_8 
ROOT
ATOM      1  CB  LEU d          34.357  -0.695  39.224  0.00  0.00    -0.026 C 
ATOM      2  H5  LEU d          34.789  -0.013  38.477  0.00  0.00     0.037 H 
ATOM      3  H6  LEU d          34.680  -0.390  40.230  0.00  0.00     0.037 H 
ENDROOT
BRANCH   1   4
ATOM      4  CA  LEU d          34.949  -2.073  38.964  0.00  0.00     0.182 C 
ATOM      5  H4  LEU d          34.138  -2.812  38.885  0.00  0.00     0.101 H 
BRANCH   4   6
ATOM      6  N   LEU d          35.865  -2.453  40.059  0.00  0.00    -0.065 N 
ATOM      7  H1  LEU d          36.071  -3.437  39.997  0.00  0.00     0.275 HD
ATOM      8  H2  LEU d          35.428  -2.256  40.946  0.00  0.00     0.275 HD
ATOM      9  H3  LEU d          36.720  -1.924  39.981  0.00  0.00     0.275 HD
ENDBRANCH   4   6
BRANCH   4  10
ATOM     10  C   LEU d          35.738  -2.040  37.689  0.00  0.00     0.204 C 
ATOM     11  O   LEU d          35.400  -1.244  36.793  0.00  0.00    -0.646 OA
ATOM     12  OXT LEU d          36.681  -2.822  37.533  0.00  0.00    -0.646 OA
ENDBRANCH   4  10
ENDBRANCH   1   4
BRANCH   1  13
ATOM     13  CG  LEU d          32.834  -0.515  39.167  0.00  0.00    -0.059 C 
ATOM     14  H7  LEU d          32.491  -0.340  40.198  0.00  0.00     0.038 H 
BRANCH  13  15
ATOM     15  CD1 LEU d          32.418   0.726  38.323  0.00  0.00    -0.073 C 
ATOM     16  H8  LEU d          32.449   0.469  37.253  0.00  0.00     0.028 H 
ATOM     17  H9  LEU d          33.114   1.555  38.520  0.00  0.00     0.028 H 
ATOM     18  H10 LEU d          31.397   1.031  38.597  0.00  0.00     0.028 H 
ENDBRANCH  13  15
BRANCH  13  19
ATOM     19  CD2 LEU d          32.144  -1.741  38.670  0.00  0.00    -0.073 C 
ATOM     20  H11 LEU d          31.081  -1.704  38.955  0.00  0.00     0.028 H 
ATOM     21  H12 LEU d          32.612  -2.631  39.115  0.00  0.00     0.028 H 
ATOM     22  H13 LEU d          32.229  -1.791  37.575  0.00  0.00     0.028 H 
ENDBRANCH  13  19
ENDBRANCH   1  13
TORSDOF 6
ENDMDL
MODEL 3
REMARK VINA RESULT:      -4.1      2.742      3.554
REMARK  6 active torsions:
REMARK  status: ('A' for Active; 'I' for Inactive)
REMARK    1  A    between atoms: N_1  and  CA_2 
REMARK    2  A    between atoms: CA_2  and  C_3 
REMARK    3  A    between atoms: CA_2  and  CB_5 
REMARK    4  A    between atoms: CB_5  and  CG_6 
REMARK    5  A    between atoms: CG_6  and  CD1_7 
REMARK    6  A    between atoms: CG_6  and  CD2_8 
ROOT
ATOM      1  CB  LEU d          34.877  -2.511  37.860  0.00  0.00    -0.026 C 
ATOM      2  H5  LEU d          35.687  -3.204  37.589  0.00  0.00     0.037 H 
ATOM      3  H6  LEU d          33.906  -2.985  37.657  0.00  0.00     0.037 H 
ENDROOT
BRANCH   1   4
ATOM      4  CA  LEU d          34.990  -1.311  36.931  0.00  0.00     0.182 C 
ATOM      5  H4  LEU d          34.831  -1.634  35.892  0.00  0.00     0.101 H 
BRANCH   4   6
ATOM      6  N   LEU d          36.321  -0.684  37.060  0.00  0.00    -0.065 N 
ATOM      7  H1  LEU d          36.931  -1.296  37.579  0.00  0.00     0.275 HD
ATOM      8  H2  LEU d          36.233   0.194  37.547  0.00  0.00     0.275 HD
ATOM      9  H3  LEU d          36.707  -0.523  36.143  0.00  0.00     0.275 HD
ENDBRANCH   4   6
BRANCH   4  10
ATOM     10  C   LEU d          33.958  -0.291  37.313  0.00  0.00     0.204 C 
ATOM     11  O   LEU d          34.307   0.895  37.452  0.00  0.00    -0.646 OA
ATOM     12  OXT LEU d          32.793  -0.647  37.517  0.00  0.00    -0.646 OA
ENDBRANCH   4  10
ENDBRANCH   1   4
BRANCH   1  13
ATOM     13  CG  LEU d          34.962  -2.293  39.376  0.00  0.00    -0.059 C 
ATOM     14  H7  LEU d          34.942  -1.207  39.547  0.00  0.00     0.038 H 
BRANCH  13  15
ATOM     15  CD1 LEU d          33.743  -2.904  40.129  0.00  0.00    -0.073 C 
ATOM     16  H8  LEU d          33.980  -3.935  40.433  0.00  0.00     0.028 H 
ATOM     17  H9  LEU d          32.867  -2.911  39.464  0.00  0.00     0.028 H 
ATOM     18  H10 LEU d          33.523  -2.299  41.021  0.00  0.00     0.028 H 
ENDBRANCH  13  15
BRANCH  13  19
ATOM     19  CD2 LEU d          36.241  -2.810  39.945  0.00  0.00    -0.073 C 
ATOM     20  H11 LEU d          36.618  -3.629  39.314  0.00  0.00     0.028 H 
ATOM     21  H12 LEU d          36.064  -3.184  40.964  0.00  0.00     0.028 H 
ATOM     22  H13 LEU d          36.983  -1.999  39.976  0.00  0.00     0.028 H 
ENDBRANCH  13  19
ENDBRANCH   1  13
TORSDOF 6
ENDMDL
MODEL 4
REMARK VINA RESULT:      -3.9      2.945      4.139
REMARK  6 active torsions:
REMARK  status: ('A' for Active; 'I' for Inactive)
REMARK    1  A    between atoms: N_1  and  CA_2 
REMARK    2  A    between atoms: CA_2  and  C_3 
REMARK    3  A    between atoms: CA_2  and  CB_5 
REMARK    4  A    between atoms: CB_5  and  CG_6 
REMARK    5  A    between atoms: CG_6  and  CD1_7 
REMARK    6  A    between atoms: CG_6  and  CD2_8 
ROOT
ATOM      1  CB  LEU d          35.377  -1.037  37.314  0.00  0.00    -0.026 C 
ATOM      2  H5  LEU d          35.746  -0.359  38.098  0.00  0.00     0.037 H 
ATOM      3  H6  LEU d          35.885  -0.809  36.365  0.00  0.00     0.037 H 
ENDROOT
BRANCH   1   4
ATOM      4  CA  LEU d          33.901  -0.726  37.115  0.00  0.00     0.182 C 
ATOM      5  H4  LEU d          33.326  -1.664  37.106  0.00  0.00     0.101 H 
BRANCH   4   6
ATOM      6  N   LEU d          33.695  -0.003  35.843  0.00  0.00    -0.065 N 
ATOM      7  H1  LEU d          33.054  -0.521  35.263  0.00  0.00     0.275 HD
ATOM      8  H2  LEU d          34.577   0.094  35.365  0.00  0.00     0.275 HD
ATOM      9  H3  LEU d          33.314   0.910  36.034  0.00  0.00     0.275 HD
ENDBRANCH   4   6
BRANCH   4  10
ATOM     10  C   LEU d          33.425   0.155  38.232  0.00  0.00     0.204 C 
ATOM     11  O   LEU d          32.700   1.130  37.962  0.00  0.00    -0.646 OA
ATOM     12  OXT LEU d          33.787  -0.077  39.389  0.00  0.00    -0.646 OA
ENDBRANCH   4  10
ENDBRANCH   1   4
BRANCH   1  13
ATOM     13  CG  LEU d          35.794  -2.458  37.716  0.00  0.00    -0.059 C 
ATOM     14  H7  LEU d          36.216  -2.936  36.820  0.00  0.00     0.038 H 
BRANCH  13  15
ATOM     15  CD1 LEU d          36.902  -2.460  38.811  0.00  0.00    -0.073 C 
ATOM     16  H8  LEU d          36.452  -2.692  39.787  0.00  0.00     0.028 H 
ATOM     17  H9  LEU d          37.378  -1.469  38.853  0.00  0.00     0.028 H 
ATOM     18  H10 LEU d          37.658  -3.221  38.565  0.00  0.00     0.028 H 
ENDBRANCH  13  15
BRANCH  13  19
ATOM     19  CD2 LEU d          34.627  -3.280  38.151  0.00  0.00    -0.073 C 
ATOM     20  H11 LEU d          34.062  -3.611  37.267  0.00  0.00     0.028 H 
ATOM     21  H12 LEU d          33.974  -2.676  38.798  0.00  0.00     0.028 H 
ATOM     22  H13 LEU d          34.985  -4.158  38.708  0.00  0.00     0.028 H 
ENDBRANCH  13  19
ENDBRANCH   1  13
TORSDOF 6
ENDMDL
MODEL 5
REMARK VINA RESULT:      -3.7      2.553      3.874
REMARK  6 active torsions:
REMARK  status: ('A' for Active; 'I' for Inactive)
REMARK    1  A    between atoms: N_1  and  CA_2 
REMARK    2  A    between atoms: CA_2  and  C_3 
REMARK    3  A    between atoms: CA_2  and  CB_5 
REMARK    4  A    between atoms: CB_5  and  CG_6 
REMARK    5  A    between atoms: CG_6  and  CD1_7 
REMARK    6  A    between atoms: CG_6  and  CD2_8 
ROOT
ATOM      1  CB  LEU d          34.068  -1.949  38.497  0.00  0.00    -0.026 C 
ATOM      2  H5  LEU d          33.842  -1.923  37.421  0.00  0.00     0.037 H 
ATOM      3  H6  LEU d          33.237  -2.428  39.035  0.00  0.00     0.037 H 
ENDROOT
BRANCH   1   4
ATOM      4  CA  LEU d          34.132  -0.505  38.972  0.00  0.00     0.182 C 
ATOM      5  H4  LEU d          35.165  -0.259  39.261  0.00  0.00     0.101 H 
BRANCH   4   6
ATOM      6  N   LEU d          33.232  -0.303  40.125  0.00  0.00    -0.065 N 
ATOM      7  H1  LEU d          32.307  -0.078  39.793  0.00  0.00     0.275 HD
ATOM      8  H2  LEU d          33.578   0.454  40.694  0.00  0.00     0.275 HD
ATOM      9  H3  LEU d          33.196  -1.147  40.676  0.00  0.00     0.275 HD
ENDBRANCH   4   6
BRANCH   4  10
ATOM     10  C   LEU d          33.681   0.401  37.866  0.00  0.00     0.204 C 
ATOM     11  O   LEU d          34.375   0.484  36.835  0.00  0.00    -0.646 OA
ATOM     12  OXT LEU d          32.656   1.074  38.007  0.00  0.00    -0.646 OA
ENDBRANCH   4  10
ENDBRANCH   1   4
BRANCH   1  13
ATOM     13  CG  LEU d          35.297  -2.850  38.677  0.00  0.00    -0.059 C 
ATOM     14  H7  LEU d          34.987  -3.873  38.418  0.00  0.00     0.038 H 
BRANCH  13  15
ATOM     15  CD1 LEU d          36.460  -2.460  37.717  0.00  0.00    -0.073 C 
ATOM     16  H8  LEU d          36.781  -1.429  37.930  0.00  0.00     0.028 H 
ATOM     17  H9  LEU d          36.113  -2.526  36.674  0.00  0.00     0.028 H 
ATOM     18  H10 LEU d          37.306  -3.147  37.867  0.00  0.00     0.028 H 
ENDBRANCH  13  15
BRANCH  13  19
ATOM     19  CD2 LEU d          35.772  -2.872  40.091  0.00  0.00    -0.073 C 
ATOM     20  H11 LEU d          36.857  -3.055  40.111  0.00  0.00     0.028 H 
ATOM     21  H12 LEU d          35.256  -3.673  40.639  0.00  0.00     0.028 H 
ATOM     22  H13 LEU d          35.554  -1.904  40.566  0.00  0.00     0.028 H 
ENDBRANCH  13  19
ENDBRANCH   1  13
TORSDOF 6
ENDMDL
MODEL 6
REMARK VINA RESULT:      -3.6      1.992      2.353
REMARK  6 active torsions:
REMARK  status: ('A' for Active; 'I' for Inactive)
REMARK    1  A    between atoms: N_1  and  CA_2 
REMARK    2  A    between atoms: CA_2  and  C_3 
REMARK    3  A    between atoms: CA_2  and  CB_5 
REMARK    4  A    between atoms: CB_5  and  CG_6 
REMARK    5  A    between atoms: CG_6  and  CD1_7 
REMARK    6  A    between atoms: CG_6  and  CD2_8 
ROOT
ATOM      1  CB  LEU d          34.805  -0.541  38.079  0.00  0.00    -0.026 C 
ATOM      2  H5  LEU d          34.782  -1.348  37.332  0.00  0.00     0.037 H 
ATOM      3  H6  LEU d          35.803  -0.079  38.088  0.00  0.00     0.037 H 
ENDROOT
BRANCH   1   4
ATOM      4  CA  LEU d          34.602  -1.190  39.441  0.00  0.00     0.182 C 
ATOM      5  H4  LEU d          33.938  -0.561  40.052  0.00  0.00     0.101 H 
BRANCH   4   6
ATOM      6  N   LEU d          35.899  -1.360  40.127  0.00  0.00    -0.065 N 
ATOM      7  H1  LEU d          35.739  -1.660  41.076  0.00  0.00     0.275 HD
ATOM      8  H2  LEU d          36.394  -0.482  40.132  0.00  0.00     0.275 HD
ATOM      9  H3  LEU d          36.447  -2.053  39.642  0.00  0.00     0.275 HD
ENDBRANCH   4   6
BRANCH   4  10
ATOM     10  C   LEU d          33.992  -2.548  39.257  0.00  0.00     0.204 C 
ATOM     11  O   LEU d          32.996  -2.857  39.936  0.00  0.00    -0.646 OA
ATOM     12  OXT LEU d          34.506  -3.346  38.467  0.00  0.00    -0.646 OA
ENDBRANCH   4  10
ENDBRANCH   1   4
BRANCH   1  13
ATOM     13  CG  LEU d          33.816   0.534  37.610  0.00  0.00    -0.059 C 
ATOM     14  H7  LEU d          34.310   1.507  37.745  0.00  0.00     0.038 H 
BRANCH  13  15
ATOM     15  CD1 LEU d          33.469   0.396  36.097  0.00  0.00    -0.073 C 
ATOM     16  H8  LEU d          33.708   1.336  35.579  0.00  0.00     0.028 H 
ATOM     17  H9  LEU d          32.396   0.180  35.986  0.00  0.00     0.028 H 
ATOM     18  H10 LEU d          34.057  -0.425  35.660  0.00  0.00     0.028 H 
ENDBRANCH  13  15
BRANCH  13  19
ATOM     19  CD2 LEU d          32.572   0.547  38.433  0.00  0.00    -0.073 C 
ATOM     20  H11 LEU d          32.629  -0.244  39.196  0.00  0.00     0.028 H 
ATOM     21  H12 LEU d          31.702   0.369  37.785  0.00  0.00     0.028 H 
ATOM     22  H13 LEU d          32.468   1.525  38.925  0.00  0.00     0.028 H 
ENDBRANCH  13  19
ENDBRANCH   1  13
TORSDOF 6
ENDMDL
MODEL 7
REMARK VINA RESULT:      -3.6      1.539      1.863
REMARK  6 active torsions:
REMARK  status: ('A' for Active; 'I' for Inactive)
REMARK    1  A    between atoms: N_1  and  CA_2 
REMARK    2  A    between atoms: CA_2  and  C_3 
REMARK    3  A    between atoms: CA_2  and  CB_5 
REMARK    4  A    between atoms: CB_5  and  CG_6 
REMARK    5  A    between atoms: CG_6  and  CD1_7 
REMARK    6  A    between atoms: CG_6  and  CD2_8 
ROOT
ATOM      1  CB  LEU d          34.142  -1.296  38.575  0.00  0.00    -0.026 C 
ATOM      2  H5  LEU d          34.775  -0.542  39.065  0.00  0.00     0.037 H 
ATOM      3  H6  LEU d          33.521  -1.800  39.330  0.00  0.00     0.037 H 
ENDROOT
BRANCH   1   4
ATOM      4  CA  LEU d          35.074  -2.346  37.990  0.00  0.00     0.182 C 
ATOM      5  H4  LEU d          35.436  -2.010  37.007  0.00  0.00     0.101 H 
BRANCH   4   6
ATOM      6  N   LEU d          34.369  -3.636  37.847  0.00  0.00    -0.065 N 
ATOM      7  H1  LEU d          34.321  -3.886  36.872  0.00  0.00     0.275 HD
ATOM      8  H2  LEU d          33.436  -3.553  38.219  0.00  0.00     0.275 HD
ATOM      9  H3  LEU d          34.870  -4.351  38.353  0.00  0.00     0.275 HD
ENDBRANCH   4   6
BRANCH   4  10
ATOM     10  C   LEU d          36.234  -2.551  38.918  0.00  0.00     0.204 C 
ATOM     11  O   LEU d          36.085  -2.308  40.130  0.00  0.00    -0.646 OA
ATOM     12  OXT LEU d          37.322  -2.921  38.465  0.00  0.00    -0.646 OA
ENDBRANCH   4  10
ENDBRANCH   1   4
BRANCH   1  13
ATOM     13  CG  LEU d          33.187  -0.541  37.640  0.00  0.00    -0.059 C 
ATOM     14  H7  LEU d          32.398  -1.248  37.346  0.00  0.00     0.038 H 
BRANCH  13  15
ATOM     15  CD1 LEU d          32.493   0.659  38.350  0.00  0.00    -0.073 C 
ATOM     16  H8  LEU d          31.785   0.281  39.102  0.00  0.00     0.028 H 
ATOM     17  H9  LEU d          31.950   1.262  37.607  0.00  0.00     0.028 H 
ATOM     18  H10 LEU d          33.254   1.283  38.843  0.00  0.00     0.028 H 
ENDBRANCH  13  15
BRANCH  13  19
ATOM     19  CD2 LEU d          33.868  -0.088  36.392  0.00  0.00    -0.073 C 
ATOM     20  H11 LEU d          34.835  -0.603  36.295  0.00  0.00     0.028 H 
ATOM     21  H12 LEU d          34.034   0.998  36.439  0.00  0.00     0.028 H 
ATOM     22  H13 LEU d          33.237  -0.325  35.524  0.00  0.00     0.028 H 
ENDBRANCH  13  19
ENDBRANCH   1  13
TORSDOF 6
ENDMDL
MODEL 8
REMARK VINA RESULT:      -2.3      2.886      4.037
REMARK  6 active torsions:
REMARK  status: ('A' for Active; 'I' for Inactive)
REMARK    1  A    between atoms: N_1  and  CA_2 
REMARK    2  A    between atoms: CA_2  and  C_3 
REMARK    3  A    between atoms: CA_2  and  CB_5 
REMARK    4  A    between atoms: CB_5  and  CG_6 
REMARK    5  A    between atoms: CG_6  and  CD1_7 
REMARK    6  A    between atoms: CG_6  and  CD2_8 
ROOT
ATOM      1  CB  LEU d          34.291  -1.972  37.765  0.00  0.00    -0.026 C 
ATOM      2  H5  LEU d          34.639  -1.030  37.317  0.00  0.00     0.037 H 
ATOM      3  H6  LEU d          33.674  -2.518  37.036  0.00  0.00     0.037 H 
ENDROOT
BRANCH   1   4
ATOM      4  CA  LEU d          33.382  -1.602  38.929  0.00  0.00     0.182 C 
ATOM      5  H4  LEU d          33.856  -1.903  39.875  0.00  0.00     0.101 H 
BRANCH   4   6
ATOM      6  N   LEU d          32.073  -2.272  38.792  0.00  0.00    -0.065 N 
ATOM      7  H1  LEU d          31.477  -1.723  38.193  0.00  0.00     0.275 HD
ATOM      8  H2  LEU d          31.645  -2.362  39.700  0.00  0.00     0.275 HD
ATOM      9  H3  LEU d          32.204  -3.187  38.389  0.00  0.00     0.275 HD
ENDBRANCH   4   6
BRANCH   4  10
ATOM     10  C   LEU d          33.149  -0.120  38.923  0.00  0.00     0.204 C 
ATOM     11  O   LEU d          32.350   0.366  39.745  0.00  0.00    -0.646 OA
ATOM     12  OXT LEU d          33.720   0.585  38.086  0.00  0.00    -0.646 OA
ENDBRANCH   4  10
ENDBRANCH   1   4
BRANCH   1  13
ATOM     13  CG  LEU d          35.535  -2.830  38.032  0.00  0.00    -0.059 C 
ATOM     14  H7  LEU d          35.336  -3.826  37.612  0.00  0.00     0.038 H 
BRANCH  13  15
ATOM     15  CD1 LEU d          36.802  -2.269  37.321  0.00  0.00    -0.073 C 
ATOM     16  H8  LEU d          37.158  -2.999  36.578  0.00  0.00     0.028 H 
ATOM     17  H9  LEU d          37.591  -2.089  38.065  0.00  0.00     0.028 H 
ATOM     18  H10 LEU d          36.550  -1.324  36.816  0.00  0.00     0.028 H 
ENDBRANCH  13  15
BRANCH  13  19
ATOM     19  CD2 LEU d          35.790  -3.005  39.492  0.00  0.00    -0.073 C 
ATOM     20  H11 LEU d          35.407  -2.130  40.039  0.00  0.00     0.028 H 
ATOM     21  H12 LEU d          36.871  -3.102  39.666  0.00  0.00     0.028 H 
ATOM     22  H13 LEU d          35.279  -3.912  39.847  0.00  0.00     0.028 H 
ENDBRANCH  13  19
ENDBRANCH   1  13
TORSDOF 6
ENDMDL
MODEL 9
REMARK VINA RESULT:      -2.3      2.205      2.831
REMARK  6 active torsions:
REMARK  status: ('A' for Active; 'I' for Inactive)
REMARK    1  A    between atoms: N_1  and  CA_2 
REMARK    2  A    between atoms: CA_2  and  C_3 
REMARK    3  A    between atoms: CA_2  and  CB_5 
REMARK    4  A    between atoms: CB_5  and  CG_6 
REMARK    5  A    between atoms: CG_6  and  CD1_7 
REMARK    6  A    between atoms: CG_6  and  CD2_8 
ROOT
ATOM      1  CB  LEU d          34.991  -1.550  39.012  0.00  0.00    -0.026 C 
ATOM      2  H5  LEU d          35.393  -1.187  39.969  0.00  0.00     0.037 H 
ATOM      3  H6  LEU d          35.649  -2.334  38.611  0.00  0.00     0.037 H 
ENDROOT
BRANCH   1   4
ATOM      4  CA  LEU d          35.042  -0.384  38.036  0.00  0.00     0.182 C 
ATOM      5  H4  LEU d          36.083  -0.050  37.917  0.00  0.00     0.101 H 
BRANCH   4   6
ATOM      6  N   LEU d          34.213   0.735  38.529  0.00  0.00    -0.065 N 
ATOM      7  H1  LEU d          34.158   1.449  37.820  0.00  0.00     0.275 HD
ATOM      8  H2  LEU d          34.630   1.121  39.362  0.00  0.00     0.275 HD
ATOM      9  H3  LEU d          33.287   0.399  38.742  0.00  0.00     0.275 HD
ENDBRANCH   4   6
BRANCH   4  10
ATOM     10  C   LEU d          34.490  -0.822  36.712  0.00  0.00     0.204 C 
ATOM     11  O   LEU d          34.918  -1.872  36.200  0.00  0.00    -0.646 OA
ATOM     12  OXT LEU d          33.653  -0.120  36.136  0.00  0.00    -0.646 OA
ENDBRANCH   4  10
ENDBRANCH   1   4
BRANCH   1  13
ATOM     13  CG  LEU d          33.639  -2.211  39.316  0.00  0.00    -0.059 C 
ATOM     14  H7  LEU d          33.170  -2.444  38.349  0.00  0.00     0.038 H 
BRANCH  13  15
ATOM     15  CD1 LEU d          33.800  -3.553  40.090  0.00  0.00    -0.073 C 
ATOM     16  H8  LEU d          33.401  -4.378  39.481  0.00  0.00     0.028 H 
ATOM     17  H9  LEU d          33.246  -3.498  41.039  0.00  0.00     0.028 H 
ATOM     18  H10 LEU d          34.866  -3.731  40.297  0.00  0.00     0.028 H 
ENDBRANCH  13  15
BRANCH  13  19
ATOM     19  CD2 LEU d          32.720  -1.292  40.048  0.00  0.00    -0.073 C 
ATOM     20  H11 LEU d          31.708  -1.725  40.067  0.00  0.00     0.028 H 
ATOM     21  H12 LEU d          32.692  -0.318  39.538  0.00  0.00     0.028 H 
ATOM     22  H13 LEU d          33.081  -1.156  41.078  0.00  0.00     0.028 H 
ENDBRANCH  13  19
ENDBRANCH   1  13
TORSDOF 6
ENDMDL
