MODEL 1
REMARK VINA RESULT:      -4.5      0.000      0.000
REMARK WARNING: 32 MAX_TORS EXCEEDED!!!
REMARK  34 active torsions:
REMARK  status: ('A' for Active; 'I' for Inactive)
REMARK    1  A    between atoms: N_1  and  CA_2 
REMARK    2  A    between atoms: CA_2  and  CB_3 
REMARK    3  A    between atoms: CA_2  and  C_6 
REMARK    4  A    between atoms: CB_3  and  CG1_4 
REMARK    5  A    between atoms: CB_3  and  CG2_5 
REMARK       I    between atoms: C_6  and  N_8 
REMARK    6  A    between atoms: CA_9  and  C_13 
REMARK       I    between atoms: C_13  and  N_15 
REMARK    7  A    between atoms: N_15  and  CA_16 
REMARK    8  A    between atoms: CA_16  and  C_17 
REMARK       I    between atoms: C_17  and  N_19 
REMARK    9  A    between atoms: N_19  and  CA_20 
REMARK   10  A    between atoms: CA_20  and  C_21 
REMARK   11  A    between atoms: CA_20  and  CB_23 
REMARK       I    between atoms: C_21  and  N_25 
REMARK   12  A    between atoms: CB_23  and  OG_24 
REMARK   13  A    between atoms: N_25  and  CA_26 
REMARK   14  A    between atoms: CA_26  and  C_27 
REMARK   15  A    between atoms: CA_26  and  CB_29 
REMARK       I    between atoms: C_27  and  N_34 
REMARK   16  A    between atoms: CB_29  and  CG_30 
REMARK   17  A    between atoms: CG_30  and  CD_31 
REMARK       I    between atoms: CD_31  and  NE2_33 
REMARK   18  A    between atoms: N_34  and  CA_35 
REMARK   19  A    between atoms: CA_35  and  C_36 
REMARK   20  A    between atoms: CA_35  and  CB_38 
REMARK       I    between atoms: C_36  and  N_44 
REMARK   21  A    between atoms: CB_38  and  CG_39 
REMARK   22  A    between atoms: N_44  and  CA_45 
REMARK   23  A    between atoms: CA_45  and  C_46 
REMARK   24  A    between atoms: CA_45  and  CB_48 
REMARK       I    between atoms: C_46  and  N_56 
REMARK   25  A    between atoms: CB_48  and  CG_49 
REMARK   26  A    between atoms: CZ_54  and  OH_55 
REMARK   27  A    between atoms: N_56  and  CA_57 
REMARK   28  A    between atoms: CA_57  and  C_58 
REMARK   29  A    between atoms: CA_57  and  CB_60 
REMARK       I    between atoms: C_58  and  N_64 
REMARK   30  A    between atoms: CB_60  and  CG_61 
REMARK   31  A    between atoms: N_64  and  CA_65 
REMARK   32  A    between atoms: CA_65  and  C_66 
REMARK   33  A    between atoms: CA_65  and  CB_69 
REMARK   34  A    between atoms: CB_69  and  OG_70 
ROOT
ATOM      1  CA  DVA d          45.502  52.228  92.800  0.00  0.00     0.090 C 
ATOM      2  H28 DVA d          44.707  51.468  92.775  0.00  0.00     0.087 H 
ENDROOT
BRANCH   1   3
ATOM      3  N   DVA d          45.734  52.617  94.182  0.00  0.00    -0.346 N 
ATOM      4  C   DVA d          45.129  51.952  95.149  0.00  0.00     0.243 C 
ATOM      5  O   DVA d          44.388  51.007  94.928  0.00  0.00    -0.271 OA
ATOM      6  H27 DVA d          46.345  53.380  94.397  0.00  0.00     0.163 HD
BRANCH   4   7
ATOM      7  CA  DVA d          45.369  52.426  96.569  0.00  0.00     0.109 C 
ATOM      8  H23 DVA d          45.507  51.573  97.251  0.00  0.00     0.090 H 
BRANCH   7   9
ATOM      9  N   DVA d          44.222  53.208  96.970  0.00  0.00    -0.344 N 
ATOM     10  C   DVA d          43.255  52.700  97.718  0.00  0.00     0.236 C 
ATOM     11  O   DVA d          43.259  51.540  98.129  0.00  0.00    -0.272 OA
ATOM     12  H22 DVA d          44.156  54.161  96.674  0.00  0.00     0.163 HD
BRANCH  10  13
ATOM     13  CA  DVA d          42.119  53.630  98.057  0.00  0.00     0.069 C 
ATOM     14  H20 DVA d          41.534  53.221  98.893  0.00  0.00     0.078 H 
ATOM     15  H21 DVA d          42.512  54.619  98.334  0.00  0.00     0.078 H 
BRANCH  13  16
ATOM     16  N   DVA d          41.290  53.740  96.881  0.00  0.00    -0.351 N 
ATOM     17  C   DVA d          40.410  54.724  96.753  0.00  0.00     0.241 C 
ATOM     18  O   DVA d          40.250  55.606  97.602  0.00  0.00    -0.271 OA
ATOM     19  H19 DVA d          41.380  53.062  96.151  0.00  0.00     0.163 HD
BRANCH  17  20
ATOM     20  CA  DVA d          39.604  54.704  95.456  0.00  0.00     0.091 C 
ATOM     21  N   DVA d          40.396  54.111  94.368  0.00  0.00    -0.337 N 
ATOM     22  C   DVA d          40.738  52.840  94.030  0.00  0.00     0.251 C 
ATOM     23  CD  DVA d          40.894  55.175  93.475  0.00  0.00    -0.001 C 
ATOM     24  O   DVA d          41.467  52.609  93.057  0.00  0.00    -0.271 OA
ATOM     25  CG  DVA d          40.608  56.438  94.266  0.00  0.00    -0.048 C 
ATOM     26  H17 DVA d          40.351  55.176  92.518  0.00  0.00     0.064 H 
ATOM     27  H18 DVA d          41.972  55.062  93.286  0.00  0.00     0.064 H 
ATOM     28  CB  DVA d          39.324  56.110  94.944  0.00  0.00    -0.036 C 
ATOM     29  H15 DVA d          41.404  56.638  94.997  0.00  0.00     0.035 H 
ATOM     30  H16 DVA d          40.495  57.306  93.601  0.00  0.00     0.035 H 
ATOM     31  H13 DVA d          39.118  56.805  95.771  0.00  0.00     0.036 H 
ATOM     32  H14 DVA d          38.482  56.120  94.237  0.00  0.00     0.036 H 
ATOM     33  H12 DVA d          38.667  54.150  95.616  0.00  0.00     0.087 H 
BRANCH  22  34
ATOM     34  CA  DVA d          40.246  51.660  94.900  0.00  0.00     0.178 C 
ATOM     35  H4  DVA d          39.756  52.088  95.787  0.00  0.00     0.099 H 
BRANCH  34  36
ATOM     36  N   DVA d          41.422  50.866  95.355  0.00  0.00    -0.066 N 
ATOM     37  H1  DVA d          41.166  49.894  95.421  0.00  0.00     0.275 HD
ATOM     38  H2  DVA d          41.721  51.197  96.259  0.00  0.00     0.275 HD
ATOM     39  H3  DVA d          42.175  50.972  94.693  0.00  0.00     0.275 HD
ENDBRANCH  34  36
BRANCH  34  40
ATOM     40  CB  DVA d          39.221  50.737  94.213  0.00  0.00    -0.025 C 
ATOM     41  H5  DVA d          39.676  50.294  93.315  0.00  0.00     0.042 H 
BRANCH  40  42
ATOM     42  CG1 DVA d          38.801  49.620  95.156  0.00  0.00    -0.071 C 
ATOM     43  H6  DVA d          37.765  49.789  95.485  0.00  0.00     0.028 H 
ATOM     44  H7  DVA d          39.466  49.610  96.032  0.00  0.00     0.028 H 
ATOM     45  H8  DVA d          38.867  48.654  94.634  0.00  0.00     0.028 H 
ENDBRANCH  40  42
BRANCH  40  46
ATOM     46  CG2 DVA d          38.002  51.568  93.805  0.00  0.00    -0.071 C 
ATOM     47  H9  DVA d          37.680  52.189  94.654  0.00  0.00     0.028 H 
ATOM     48  H10 DVA d          37.182  50.897  93.509  0.00  0.00     0.028 H 
ATOM     49  H11 DVA d          38.268  52.216  92.957  0.00  0.00     0.028 H 
ENDBRANCH  40  46
ENDBRANCH  34  40
ENDBRANCH  22  34
ENDBRANCH  17  20
ENDBRANCH  13  16
ENDBRANCH  10  13
ENDBRANCH   7   9
BRANCH   7  50
ATOM     50  CB  DVA d          46.618  53.300  96.548  0.00  0.00     0.044 C 
ATOM     51  H24 DVA d          47.249  53.013  95.693  0.00  0.00     0.077 H 
ATOM     52  H25 DVA d          47.179  53.156  97.483  0.00  0.00     0.077 H 
BRANCH  50  53
ATOM     53  OG  DVA d          46.255  54.665  96.423  0.00  0.00    -0.398 OA
ATOM     54  H26 DVA d          46.224  54.901  95.504  0.00  0.00     0.209 HD
ENDBRANCH  50  53
ENDBRANCH   7  50
ENDBRANCH   4   7
ENDBRANCH   1   3
BRANCH   1  55
ATOM     55  C   DVA d          45.053  53.430  91.973  0.00  0.00     0.241 C 
ATOM     56  O   DVA d          45.053  54.564  92.463  0.00  0.00    -0.271 OA
ATOM     57  N   DVA d          44.672  53.179  90.720  0.00  0.00    -0.346 N 
ATOM     58  H35 DVA d          44.723  52.242  90.373  0.00  0.00     0.163 HD
BRANCH  57  59
ATOM     59  CA  DVA d          44.177  54.251  89.829  0.00  0.00     0.094 C 
ATOM     60  H36 DVA d          44.835  55.123  89.955  0.00  0.00     0.088 H 
BRANCH  59  61
ATOM     61  C   DVA d          44.136  53.866  88.378  0.00  0.00     0.241 C 
ATOM     62  O   DVA d          44.508  52.739  88.023  0.00  0.00    -0.271 OA
ATOM     63  N   DVA d          43.720  54.811  87.542  0.00  0.00    -0.346 N 
ATOM     64  H42 DVA d          43.363  55.672  87.904  0.00  0.00     0.163 HD
BRANCH  63  65
ATOM     65  CA  DVA d          43.779  54.600  86.096  0.00  0.00     0.093 C 
ATOM     66  H43 DVA d          43.233  55.428  85.620  0.00  0.00     0.088 H 
BRANCH  65  67
ATOM     67  C   DVA d          45.176  54.580  85.489  0.00  0.00     0.241 C 
ATOM     68  O   DVA d          45.754  55.642  85.237  0.00  0.00    -0.271 OA
ATOM     69  N   DVA d          45.699  53.379  85.247  0.00  0.00    -0.345 N 
ATOM     70  H51 DVA d          45.162  52.564  85.464  0.00  0.00     0.163 HD
BRANCH  69  71
ATOM     71  CA  DVA d          47.041  53.214  84.672  0.00  0.00     0.098 C 
ATOM     72  H52 DVA d          47.302  54.153  84.161  0.00  0.00     0.088 H 
BRANCH  71  73
ATOM     73  C   DVA d          48.129  52.912  85.701  0.00  0.00     0.241 C 
ATOM     74  O   DVA d          49.060  53.701  85.908  0.00  0.00    -0.271 OA
ATOM     75  N   DVA d          47.957  51.754  86.342  0.00  0.00    -0.343 N 
ATOM     76  H55 DVA d          47.169  51.201  86.070  0.00  0.00     0.163 HD
BRANCH  75  77
ATOM     77  CA  DVA d          48.807  51.214  87.405  0.00  0.00     0.116 C 
ATOM     78  H56 DVA d          49.844  51.460  87.134  0.00  0.00     0.093 H 
BRANCH  77  79
ATOM     79  C   DVA d          48.548  51.830  88.772  0.00  0.00     0.198 C 
ATOM     80  O   DVA d          49.525  52.087  89.505  0.00  0.00    -0.646 OA
ATOM     81  OXT DVA d          47.354  52.051  89.084  0.00  0.00    -0.646 OA
ENDBRANCH  77  79
BRANCH  77  82
ATOM     82  CB  DVA d          48.705  49.686  87.485  0.00  0.00     0.045 C 
ATOM     83  H57 DVA d          49.396  49.319  88.259  0.00  0.00     0.077 H 
ATOM     84  H58 DVA d          48.981  49.255  86.511  0.00  0.00     0.077 H 
BRANCH  82  85
ATOM     85  OG  DVA d          47.382  49.279  87.815  0.00  0.00    -0.398 OA
ATOM     86  H59 DVA d          47.375  48.347  88.000  0.00  0.00     0.209 HD
ENDBRANCH  82  85
ENDBRANCH  77  82
ENDBRANCH  75  77
ENDBRANCH  71  73
BRANCH  71  87
ATOM     87  CB  DVA d          47.049  52.074  83.651  0.00  0.00     0.043 C 
ATOM     88  H53 DVA d          46.243  51.370  83.904  0.00  0.00     0.052 H 
ATOM     89  H54 DVA d          48.019  51.558  83.708  0.00  0.00     0.052 H 
BRANCH  87  90
ATOM     90  CG  DVA d          46.843  52.558  82.240  0.00  0.00     0.175 C 
ATOM     91  OD1 DVA d          46.007  53.465  82.037  0.00  0.00    -0.648 OA
ATOM     92  OD2 DVA d          47.524  52.046  81.336  0.00  0.00    -0.648 OA
ENDBRANCH  87  90
ENDBRANCH  71  87
ENDBRANCH  69  71
ENDBRANCH  65  67
BRANCH  65  93
ATOM     93  CB  DVA d          43.053  53.289  85.779  0.00  0.00    -0.014 C 
ATOM     94  H44 DVA d          42.387  53.044  86.619  0.00  0.00     0.043 H 
ATOM     95  H45 DVA d          43.802  52.492  85.660  0.00  0.00     0.043 H 
BRANCH  93  96
ATOM     96  CG  DVA d          42.222  53.369  84.507  0.00  0.00    -0.056 A 
ATOM     97  CD1 DVA d          42.748  52.952  83.280  0.00  0.00    -0.074 A 
ATOM     98  CE1 DVA d          42.011  53.049  82.088  0.00  0.00    -0.051 A 
ATOM     99  H46 DVA d          43.752  52.544  83.248  0.00  0.00     0.084 H 
ATOM    100  CZ  DVA d          40.706  53.575  82.139  0.00  0.00     0.065 A 
ATOM    101  H48 DVA d          42.439  52.724  81.146  0.00  0.00     0.087 H 
ATOM    102  CE2 DVA d          40.167  53.994  83.347  0.00  0.00    -0.051 A 
ATOM    103  CD2 DVA d          40.923  53.893  84.529  0.00  0.00    -0.074 A 
ATOM    104  H49 DVA d          39.163  54.400  83.380  0.00  0.00     0.087 H 
ATOM    105  H47 DVA d          40.494  54.225  85.469  0.00  0.00     0.084 H 
BRANCH 100 106
ATOM    106  OH  DVA d          39.939  53.666  80.999  0.00  0.00    -0.361 OA
ATOM    107  H50 DVA d          40.505  53.802  80.249  0.00  0.00     0.217 HD
ENDBRANCH 100 106
ENDBRANCH  93  96
ENDBRANCH  65  93
ENDBRANCH  63  65
ENDBRANCH  59  61
BRANCH  59 108
ATOM    108  CB  DVA d          42.734  54.643  90.154  0.00  0.00     0.004 C 
ATOM    109  H37 DVA d          42.471  54.209  91.130  0.00  0.00     0.046 H 
ATOM    110  H38 DVA d          42.079  54.223  89.377  0.00  0.00     0.046 H 
BRANCH 108 111
ATOM    111  CG  DVA d          42.494  56.121  90.219  0.00  0.00     0.053 A 
ATOM    112  ND1 DVA d          43.493  57.053  90.016  0.00  0.00    -0.247 NA
ATOM    113  CE1 DVA d          42.979  58.271  90.109  0.00  0.00     0.064 A 
ATOM    114  NE2 DVA d          41.682  58.160  90.369  0.00  0.00    -0.359 N 
ATOM    115  H40 DVA d          43.528  59.205  89.990  0.00  0.00     0.143 H 
ATOM    116  CD2 DVA d          41.358  56.824  90.444  0.00  0.00     0.002 A 
ATOM    117  H41 DVA d          41.026  58.944  90.494  0.00  0.00     0.166 HD
ATOM    118  H39 DVA d          40.372  56.409  90.647  0.00  0.00     0.114 H 
ENDBRANCH 108 111
ENDBRANCH  59 108
ENDBRANCH  57  59
ENDBRANCH   1  55
BRANCH   1 119
ATOM    119  CB  DVA d          46.784  51.625  92.213  0.00  0.00    -0.030 C 
ATOM    120  H29 DVA d          47.652  52.029  92.755  0.00  0.00     0.037 H 
ATOM    121  H30 DVA d          46.855  51.897  91.149  0.00  0.00     0.037 H 
BRANCH 119 122
ATOM    122  CG  DVA d          46.782  50.082  92.342  0.00  0.00     0.011 C 
ATOM    123  H31 DVA d          45.754  49.723  92.182  0.00  0.00     0.047 H 
ATOM    124  H32 DVA d          47.107  49.819  93.360  0.00  0.00     0.047 H 
BRANCH 122 125
ATOM    125  CD  DVA d          47.704  49.363  91.341  0.00  0.00     0.215 C 
ATOM    126  OE1 DVA d          47.244  48.550  90.519  0.00  0.00    -0.274 OA
ATOM    127  NE2 DVA d          48.985  49.664  91.400  0.00  0.00    -0.370 N 
ATOM    128  H33 DVA d          49.630  49.227  90.773  0.00  0.00     0.159 HD
ATOM    129  H34 DVA d          49.312  50.329  92.071  0.00  0.00     0.159 HD
ENDBRANCH 122 125
ENDBRANCH 119 122
ENDBRANCH   1 119
TORSDOF 34
ENDMDL
MODEL 2
REMARK VINA RESULT:      -4.4      2.466     11.411
REMARK WARNING: 32 MAX_TORS EXCEEDED!!!
REMARK  34 active torsions:
REMARK  status: ('A' for Active; 'I' for Inactive)
REMARK    1  A    between atoms: N_1  and  CA_2 
REMARK    2  A    between atoms: CA_2  and  CB_3 
REMARK    3  A    between atoms: CA_2  and  C_6 
REMARK    4  A    between atoms: CB_3  and  CG1_4 
REMARK    5  A    between atoms: CB_3  and  CG2_5 
REMARK       I    between atoms: C_6  and  N_8 
REMARK    6  A    between atoms: CA_9  and  C_13 
REMARK       I    between atoms: C_13  and  N_15 
REMARK    7  A    between atoms: N_15  and  CA_16 
REMARK    8  A    between atoms: CA_16  and  C_17 
REMARK       I    between atoms: C_17  and  N_19 
REMARK    9  A    between atoms: N_19  and  CA_20 
REMARK   10  A    between atoms: CA_20  and  C_21 
REMARK   11  A    between atoms: CA_20  and  CB_23 
REMARK       I    between atoms: C_21  and  N_25 
REMARK   12  A    between atoms: CB_23  and  OG_24 
REMARK   13  A    between atoms: N_25  and  CA_26 
REMARK   14  A    between atoms: CA_26  and  C_27 
REMARK   15  A    between atoms: CA_26  and  CB_29 
REMARK       I    between atoms: C_27  and  N_34 
REMARK   16  A    between atoms: CB_29  and  CG_30 
REMARK   17  A    between atoms: CG_30  and  CD_31 
REMARK       I    between atoms: CD_31  and  NE2_33 
REMARK   18  A    between atoms: N_34  and  CA_35 
REMARK   19  A    between atoms: CA_35  and  C_36 
REMARK   20  A    between atoms: CA_35  and  CB_38 
REMARK       I    between atoms: C_36  and  N_44 
REMARK   21  A    between atoms: CB_38  and  CG_39 
REMARK   22  A    between atoms: N_44  and  CA_45 
REMARK   23  A    between atoms: CA_45  and  C_46 
REMARK   24  A    between atoms: CA_45  and  CB_48 
REMARK       I    between atoms: C_46  and  N_56 
REMARK   25  A    between atoms: CB_48  and  CG_49 
REMARK   26  A    between atoms: CZ_54  and  OH_55 
REMARK   27  A    between atoms: N_56  and  CA_57 
REMARK   28  A    between atoms: CA_57  and  C_58 
REMARK   29  A    between atoms: CA_57  and  CB_60 
REMARK       I    between atoms: C_58  and  N_64 
REMARK   30  A    between atoms: CB_60  and  CG_61 
REMARK   31  A    between atoms: N_64  and  CA_65 
REMARK   32  A    between atoms: CA_65  and  C_66 
REMARK   33  A    between atoms: CA_65  and  CB_69 
REMARK   34  A    between atoms: CB_69  and  OG_70 
ROOT
ATOM      1  CA  DVA d          43.100  53.134  87.216  0.00  0.00     0.090 C 
ATOM      2  H28 DVA d          42.650  52.130  87.214  0.00  0.00     0.087 H 
ENDROOT
BRANCH   1   3
ATOM      3  N   DVA d          44.457  53.039  87.728  0.00  0.00    -0.346 N 
ATOM      4  C   DVA d          45.091  51.882  87.660  0.00  0.00     0.243 C 
ATOM      5  O   DVA d          44.585  50.887  87.168  0.00  0.00    -0.271 OA
ATOM      6  H27 DVA d          44.905  53.839  88.127  0.00  0.00     0.163 HD
BRANCH   4   7
ATOM      7  CA  DVA d          46.488  51.823  88.250  0.00  0.00     0.109 C 
ATOM      8  H23 DVA d          46.491  52.178  89.291  0.00  0.00     0.090 H 
BRANCH   7   9
ATOM      9  N   DVA d          47.344  52.654  87.433  0.00  0.00    -0.344 N 
ATOM     10  C   DVA d          48.233  53.477  87.965  0.00  0.00     0.236 C 
ATOM     11  O   DVA d          48.402  53.596  89.179  0.00  0.00    -0.272 OA
ATOM     12  H22 DVA d          47.262  52.605  86.438  0.00  0.00     0.163 HD
BRANCH  10  13
ATOM     13  CA  DVA d          49.055  54.284  86.994  0.00  0.00     0.069 C 
ATOM     14  H20 DVA d          49.614  55.065  87.531  0.00  0.00     0.078 H 
ATOM     15  H21 DVA d          49.760  53.629  86.462  0.00  0.00     0.078 H 
BRANCH  13  16
ATOM     16  N   DVA d          48.140  54.888  86.056  0.00  0.00    -0.351 N 
ATOM     17  C   DVA d          48.329  54.780  84.749  0.00  0.00     0.241 C 
ATOM     18  O   DVA d          49.270  54.158  84.248  0.00  0.00    -0.271 OA
ATOM     19  H19 DVA d          47.350  55.397  86.399  0.00  0.00     0.163 HD
BRANCH  17  20
ATOM     20  CA  DVA d          47.280  55.477  83.885  0.00  0.00     0.091 C 
ATOM     21  N   DVA d          47.560  55.256  82.458  0.00  0.00    -0.337 N 
ATOM     22  C   DVA d          47.385  54.209  81.610  0.00  0.00     0.251 C 
ATOM     23  CD  DVA d          48.151  56.474  81.871  0.00  0.00    -0.001 C 
ATOM     24  O   DVA d          47.751  54.271  80.430  0.00  0.00    -0.271 OA
ATOM     25  CG  DVA d          48.481  57.310  83.093  0.00  0.00    -0.048 C 
ATOM     26  H17 DVA d          47.430  56.991  81.221  0.00  0.00     0.064 H 
ATOM     27  H18 DVA d          49.059  56.236  81.296  0.00  0.00     0.064 H 
ATOM     28  CB  DVA d          47.357  56.991  84.015  0.00  0.00    -0.036 C 
ATOM     29  H15 DVA d          49.447  57.015  83.528  0.00  0.00     0.035 H 
ATOM     30  H16 DVA d          48.501  58.382  82.848  0.00  0.00     0.035 H 
ATOM     31  H13 DVA d          47.585  57.295  85.047  0.00  0.00     0.036 H 
ATOM     32  H14 DVA d          46.421  57.471  83.689  0.00  0.00     0.036 H 
ATOM     33  H12 DVA d          46.279  55.108  84.157  0.00  0.00     0.087 H 
BRANCH  22  34
ATOM     34  CA  DVA d          46.757  52.897  82.135  0.00  0.00     0.178 C 
ATOM     35  H4  DVA d          47.379  52.548  82.973  0.00  0.00     0.099 H 
BRANCH  34  36
ATOM     36  N   DVA d          46.804  51.869  81.059  0.00  0.00    -0.066 N 
ATOM     37  H1  DVA d          46.257  52.180  80.272  0.00  0.00     0.275 HD
ATOM     38  H2  DVA d          46.428  51.000  81.406  0.00  0.00     0.275 HD
ATOM     39  H3  DVA d          47.759  51.729  80.769  0.00  0.00     0.275 HD
ENDBRANCH  34  36
BRANCH  34  40
ATOM     40  CB  DVA d          45.317  53.039  82.666  0.00  0.00    -0.025 C 
ATOM     41  H5  DVA d          45.333  53.594  83.616  0.00  0.00     0.042 H 
BRANCH  40  42
ATOM     42  CG1 DVA d          44.458  53.797  81.666  0.00  0.00    -0.071 C 
ATOM     43  H6  DVA d          43.550  54.163  82.165  0.00  0.00     0.028 H 
ATOM     44  H7  DVA d          44.177  53.126  80.840  0.00  0.00     0.028 H 
ATOM     45  H8  DVA d          45.026  54.651  81.267  0.00  0.00     0.028 H 
ENDBRANCH  40  42
BRANCH  40  46
ATOM     46  CG2 DVA d          44.737  51.643  82.907  0.00  0.00    -0.071 C 
ATOM     47  H9  DVA d          44.945  51.004  82.035  0.00  0.00     0.028 H 
ATOM     48  H10 DVA d          43.651  51.718  83.057  0.00  0.00     0.028 H 
ATOM     49  H11 DVA d          45.201  51.203  83.802  0.00  0.00     0.028 H 
ENDBRANCH  40  46
ENDBRANCH  34  40
ENDBRANCH  22  34
ENDBRANCH  17  20
ENDBRANCH  13  16
ENDBRANCH  10  13
ENDBRANCH   7   9
BRANCH   7  50
ATOM     50  CB  DVA d          46.945  50.370  88.179  0.00  0.00     0.044 C 
ATOM     51  H24 DVA d          46.107  49.711  88.449  0.00  0.00     0.077 H 
ATOM     52  H25 DVA d          47.775  50.215  88.885  0.00  0.00     0.077 H 
BRANCH  50  53
ATOM     53  OG  DVA d          47.382  50.060  86.866  0.00  0.00    -0.398 OA
ATOM     54  H26 DVA d          48.036  50.692  86.594  0.00  0.00     0.209 HD
ENDBRANCH  50  53
ENDBRANCH   7  50
ENDBRANCH   4   7
ENDBRANCH   1   3
BRANCH   1  55
ATOM     55  C   DVA d          42.255  54.046  88.103  0.00  0.00     0.241 C 
ATOM     56  O   DVA d          41.025  53.937  88.123  0.00  0.00    -0.271 OA
ATOM     57  N   DVA d          42.919  54.943  88.834  0.00  0.00    -0.346 N 
ATOM     58  H35 DVA d          43.918  54.961  88.795  0.00  0.00     0.163 HD
BRANCH  57  59
ATOM     59  CA  DVA d          42.214  55.912  89.701  0.00  0.00     0.094 C 
ATOM     60  H36 DVA d          41.135  55.803  89.518  0.00  0.00     0.088 H 
BRANCH  59  61
ATOM     61  C   DVA d          42.488  55.730  91.166  0.00  0.00     0.241 C 
ATOM     62  O   DVA d          43.414  56.351  91.707  0.00  0.00    -0.271 OA
ATOM     63  N   DVA d          41.710  54.856  91.795  0.00  0.00    -0.346 N 
ATOM     64  H42 DVA d          40.934  54.447  91.316  0.00  0.00     0.163 HD
BRANCH  63  65
ATOM     65  CA  DVA d          41.980  54.489  93.185  0.00  0.00     0.093 C 
ATOM     66  H43 DVA d          42.760  55.169  93.559  0.00  0.00     0.088 H 
BRANCH  65  67
ATOM     67  C   DVA d          40.798  54.598  94.139  0.00  0.00     0.241 C 
ATOM     68  O   DVA d          39.766  55.171  93.778  0.00  0.00    -0.271 OA
ATOM     69  N   DVA d          40.961  54.061  95.347  0.00  0.00    -0.345 N 
ATOM     70  H51 DVA d          41.834  53.627  95.570  0.00  0.00     0.163 HD
BRANCH  69  71
ATOM     71  CA  DVA d          39.899  54.086  96.362  0.00  0.00     0.098 C 
ATOM     72  H52 DVA d          39.412  55.071  96.309  0.00  0.00     0.088 H 
BRANCH  71  73
ATOM     73  C   DVA d          38.828  53.013  96.172  0.00  0.00     0.241 C 
ATOM     74  O   DVA d          37.838  52.950  96.913  0.00  0.00    -0.271 OA
ATOM     75  N   DVA d          39.061  52.196  95.144  0.00  0.00    -0.343 N 
ATOM     76  H55 DVA d          39.907  52.345  94.632  0.00  0.00     0.163 HD
BRANCH  75  77
ATOM     77  CA  DVA d          38.200  51.101  94.690  0.00  0.00     0.116 C 
ATOM     78  H56 DVA d          37.164  51.461  94.774  0.00  0.00     0.093 H 
BRANCH  77  79
ATOM     79  C   DVA d          38.417  50.711  93.235  0.00  0.00     0.198 C 
ATOM     80  O   DVA d          37.823  49.707  92.793  0.00  0.00    -0.646 OA
ATOM     81  OXT DVA d          39.185  51.432  92.557  0.00  0.00    -0.646 OA
ENDBRANCH  77  79
BRANCH  77  82
ATOM     82  CB  DVA d          38.333  49.869  95.594  0.00  0.00     0.045 C 
ATOM     83  H57 DVA d          37.428  49.251  95.493  0.00  0.00     0.077 H 
ATOM     84  H58 DVA d          38.438  50.199  96.638  0.00  0.00     0.077 H 
BRANCH  82  85
ATOM     85  OG  DVA d          39.469  49.093  95.235  0.00  0.00    -0.398 OA
ATOM     86  H59 DVA d          40.032  49.602  94.664  0.00  0.00     0.209 HD
ENDBRANCH  82  85
ENDBRANCH  77  82
ENDBRANCH  75  77
ENDBRANCH  71  73
BRANCH  71  87
ATOM     87  CB  DVA d          40.490  53.898  97.760  0.00  0.00     0.043 C 
ATOM     88  H53 DVA d          41.496  53.463  97.662  0.00  0.00     0.052 H 
ATOM     89  H54 DVA d          39.846  53.208  98.325  0.00  0.00     0.052 H 
BRANCH  87  90
ATOM     90  CG  DVA d          40.596  55.191  98.524  0.00  0.00     0.175 C 
ATOM     91  OD1 DVA d          39.542  55.761  98.881  0.00  0.00    -0.648 OA
ATOM     92  OD2 DVA d          41.728  55.633  98.782  0.00  0.00    -0.648 OA
ENDBRANCH  87  90
ENDBRANCH  71  87
ENDBRANCH  69  71
ENDBRANCH  65  67
BRANCH  65  93
ATOM     93  CB  DVA d          42.532  53.060  93.198  0.00  0.00    -0.014 C 
ATOM     94  H44 DVA d          42.570  52.688  92.164  0.00  0.00     0.043 H 
ATOM     95  H45 DVA d          41.856  52.428  93.792  0.00  0.00     0.043 H 
BRANCH  93  96
ATOM     96  CG  DVA d          43.928  52.973  93.797  0.00  0.00    -0.056 A 
ATOM     97  CD1 DVA d          44.515  51.734  94.070  0.00  0.00    -0.074 A 
ATOM     98  CE1 DVA d          45.789  51.630  94.654  0.00  0.00    -0.051 A 
ATOM     99  H46 DVA d          43.973  50.828  93.824  0.00  0.00     0.084 H 
ATOM    100  CZ  DVA d          46.490  52.812  94.963  0.00  0.00     0.065 A 
ATOM    101  H48 DVA d          46.224  50.659  94.862  0.00  0.00     0.087 H 
ATOM    102  CE2 DVA d          45.923  54.051  94.701  0.00  0.00    -0.051 A 
ATOM    103  CD2 DVA d          44.645  54.134  94.119  0.00  0.00    -0.074 A 
ATOM    104  H49 DVA d          46.467  54.957  94.943  0.00  0.00     0.087 H 
ATOM    105  H47 DVA d          44.210  55.106  93.919  0.00  0.00     0.084 H 
BRANCH 100 106
ATOM    106  OH  DVA d          47.750  52.758  95.515  0.00  0.00    -0.361 OA
ATOM    107  H50 DVA d          47.952  53.591  95.924  0.00  0.00     0.217 HD
ENDBRANCH 100 106
ENDBRANCH  93  96
ENDBRANCH  65  93
ENDBRANCH  63  65
ENDBRANCH  59  61
BRANCH  59 108
ATOM    108  CB  DVA d          42.642  57.352  89.415  0.00  0.00     0.004 C 
ATOM    109  H37 DVA d          42.936  57.820  90.366  0.00  0.00     0.046 H 
ATOM    110  H38 DVA d          41.780  57.890  88.993  0.00  0.00     0.046 H 
BRANCH 108 111
ATOM    111  CG  DVA d          43.788  57.480  88.457  0.00  0.00     0.053 A 
ATOM    112  ND1 DVA d          43.662  57.245  87.102  0.00  0.00    -0.247 NA
ATOM    113  CE1 DVA d          44.829  57.462  86.511  0.00  0.00     0.064 A 
ATOM    114  NE2 DVA d          45.707  57.824  87.438  0.00  0.00    -0.359 N 
ATOM    115  H40 DVA d          45.033  57.361  85.445  0.00  0.00     0.143 H 
ATOM    116  CD2 DVA d          45.077  57.840  88.663  0.00  0.00     0.002 A 
ATOM    117  H41 DVA d          46.696  58.055  87.270  0.00  0.00     0.166 HD
ATOM    118  H39 DVA d          45.532  58.094  89.620  0.00  0.00     0.114 H 
ENDBRANCH 108 111
ENDBRANCH  59 108
ENDBRANCH  57  59
ENDBRANCH   1  55
BRANCH   1 119
ATOM    119  CB  DVA d          43.130  53.666  85.778  0.00  0.00    -0.030 C 
ATOM    120  H29 DVA d          44.133  53.506  85.356  0.00  0.00     0.037 H 
ATOM    121  H30 DVA d          42.903  54.743  85.788  0.00  0.00     0.037 H 
BRANCH 119 122
ATOM    122  CG  DVA d          42.088  52.938  84.894  0.00  0.00     0.011 C 
ATOM    123  H31 DVA d          41.551  52.211  85.520  0.00  0.00     0.047 H 
ATOM    124  H32 DVA d          42.625  52.407  84.094  0.00  0.00     0.047 H 
BRANCH 122 125
ATOM    125  CD  DVA d          41.051  53.870  84.242  0.00  0.00     0.215 C 
ATOM    126  OE1 DVA d          40.502  54.774  84.898  0.00  0.00    -0.274 OA
ATOM    127  NE2 DVA d          40.793  53.664  82.967  0.00  0.00    -0.370 N 
ATOM    128  H33 DVA d          40.128  54.240  82.492  0.00  0.00     0.159 HD
ATOM    129  H34 DVA d          41.262  52.931  82.474  0.00  0.00     0.159 HD
ENDBRANCH 122 125
ENDBRANCH 119 122
ENDBRANCH   1 119
TORSDOF 34
ENDMDL
MODEL 3
REMARK VINA RESULT:      -4.3      2.529     10.686
REMARK WARNING: 32 MAX_TORS EXCEEDED!!!
REMARK  34 active torsions:
REMARK  status: ('A' for Active; 'I' for Inactive)
REMARK    1  A    between atoms: N_1  and  CA_2 
REMARK    2  A    between atoms: CA_2  and  CB_3 
REMARK    3  A    between atoms: CA_2  and  C_6 
REMARK    4  A    between atoms: CB_3  and  CG1_4 
REMARK    5  A    between atoms: CB_3  and  CG2_5 
REMARK       I    between atoms: C_6  and  N_8 
REMARK    6  A    between atoms: CA_9  and  C_13 
REMARK       I    between atoms: C_13  and  N_15 
REMARK    7  A    between atoms: N_15  and  CA_16 
REMARK    8  A    between atoms: CA_16  and  C_17 
REMARK       I    between atoms: C_17  and  N_19 
REMARK    9  A    between atoms: N_19  and  CA_20 
REMARK   10  A    between atoms: CA_20  and  C_21 
REMARK   11  A    between atoms: CA_20  and  CB_23 
REMARK       I    between atoms: C_21  and  N_25 
REMARK   12  A    between atoms: CB_23  and  OG_24 
REMARK   13  A    between atoms: N_25  and  CA_26 
REMARK   14  A    between atoms: CA_26  and  C_27 
REMARK   15  A    between atoms: CA_26  and  CB_29 
REMARK       I    between atoms: C_27  and  N_34 
REMARK   16  A    between atoms: CB_29  and  CG_30 
REMARK   17  A    between atoms: CG_30  and  CD_31 
REMARK       I    between atoms: CD_31  and  NE2_33 
REMARK   18  A    between atoms: N_34  and  CA_35 
REMARK   19  A    between atoms: CA_35  and  C_36 
REMARK   20  A    between atoms: CA_35  and  CB_38 
REMARK       I    between atoms: C_36  and  N_44 
REMARK   21  A    between atoms: CB_38  and  CG_39 
REMARK   22  A    between atoms: N_44  and  CA_45 
REMARK   23  A    between atoms: CA_45  and  C_46 
REMARK   24  A    between atoms: CA_45  and  CB_48 
REMARK       I    between atoms: C_46  and  N_56 
REMARK   25  A    between atoms: CB_48  and  CG_49 
REMARK   26  A    between atoms: CZ_54  and  OH_55 
REMARK   27  A    between atoms: N_56  and  CA_57 
REMARK   28  A    between atoms: CA_57  and  C_58 
REMARK   29  A    between atoms: CA_57  and  CB_60 
REMARK       I    between atoms: C_58  and  N_64 
REMARK   30  A    between atoms: CB_60  and  CG_61 
REMARK   31  A    between atoms: N_64  and  CA_65 
REMARK   32  A    between atoms: CA_65  and  C_66 
REMARK   33  A    between atoms: CA_65  and  CB_69 
REMARK   34  A    between atoms: CB_69  and  OG_70 
ROOT
ATOM      1  CA  DVA d          42.769  54.847  86.942  0.00  0.00     0.090 C 
ATOM      2  H28 DVA d          42.760  53.984  86.259  0.00  0.00     0.087 H 
ENDROOT
BRANCH   1   3
ATOM      3  N   DVA d          43.864  55.728  86.569  0.00  0.00    -0.346 N 
ATOM      4  C   DVA d          44.637  55.399  85.550  0.00  0.00     0.243 C 
ATOM      5  O   DVA d          44.458  54.385  84.895  0.00  0.00    -0.271 OA
ATOM      6  H27 DVA d          44.029  56.573  87.079  0.00  0.00     0.163 HD
BRANCH   4   7
ATOM      7  CA  DVA d          45.793  56.328  85.231  0.00  0.00     0.109 C 
ATOM      8  H23 DVA d          45.906  56.456  84.145  0.00  0.00     0.090 H 
BRANCH   7   9
ATOM      9  N   DVA d          46.990  55.748  85.796  0.00  0.00    -0.344 N 
ATOM     10  C   DVA d          47.924  55.194  85.039  0.00  0.00     0.236 C 
ATOM     11  O   DVA d          47.848  55.133  83.811  0.00  0.00    -0.272 OA
ATOM     12  H22 DVA d          47.117  55.766  86.788  0.00  0.00     0.163 HD
BRANCH  10  13
ATOM     13  CA  DVA d          49.116  54.626  85.764  0.00  0.00     0.069 C 
ATOM     14  H20 DVA d          50.045  54.955  85.275  0.00  0.00     0.078 H 
ATOM     15  H21 DVA d          49.115  54.962  86.811  0.00  0.00     0.078 H 
BRANCH  13  16
ATOM     16  N   DVA d          49.010  53.189  85.706  0.00  0.00    -0.351 N 
ATOM     17  C   DVA d          48.176  52.532  86.500  0.00  0.00     0.241 C 
ATOM     18  O   DVA d          47.437  53.088  87.317  0.00  0.00    -0.271 OA
ATOM     19  H19 DVA d          49.574  52.680  85.055  0.00  0.00     0.163 HD
BRANCH  17  20
ATOM     20  CA  DVA d          48.179  51.015  86.324  0.00  0.00     0.091 C 
ATOM     21  N   DVA d          46.942  50.432  86.867  0.00  0.00    -0.337 N 
ATOM     22  C   DVA d          45.659  50.357  86.428  0.00  0.00     0.251 C 
ATOM     23  CD  DVA d          47.219  49.798  88.171  0.00  0.00    -0.001 C 
ATOM     24  O   DVA d          44.775  49.830  87.114  0.00  0.00    -0.271 OA
ATOM     25  CG  DVA d          48.611  50.303  88.501  0.00  0.00    -0.048 C 
ATOM     26  H17 DVA d          47.205  48.701  88.089  0.00  0.00     0.064 H 
ATOM     27  H18 DVA d          46.490  50.119  88.930  0.00  0.00     0.064 H 
ATOM     28  CB  DVA d          49.262  50.352  87.164  0.00  0.00    -0.036 C 
ATOM     29  H15 DVA d          48.573  51.301  88.962  0.00  0.00     0.035 H 
ATOM     30  H16 DVA d          49.136  49.609  89.173  0.00  0.00     0.035 H 
ATOM     31  H13 DVA d          50.180  50.957  87.186  0.00  0.00     0.036 H 
ATOM     32  H14 DVA d          49.497  49.342  86.794  0.00  0.00     0.036 H 
ATOM     33  H12 DVA d          48.301  50.769  85.259  0.00  0.00     0.087 H 
BRANCH  22  34
ATOM     34  CA  DVA d          45.281  50.981  85.063  0.00  0.00     0.178 C 
ATOM     35  H4  DVA d          45.886  51.892  84.940  0.00  0.00     0.099 H 
BRANCH  34  36
ATOM     36  N   DVA d          43.845  51.375  85.089  0.00  0.00    -0.066 N 
ATOM     37  H1  DVA d          43.411  51.010  85.923  0.00  0.00     0.275 HD
ATOM     38  H2  DVA d          43.379  51.000  84.277  0.00  0.00     0.275 HD
ATOM     39  H3  DVA d          43.772  52.380  85.084  0.00  0.00     0.275 HD
ENDBRANCH  34  36
BRANCH  34  40
ATOM     40  CB  DVA d          45.560  50.081  83.844  0.00  0.00    -0.025 C 
ATOM     41  H5  DVA d          46.552  49.618  83.955  0.00  0.00     0.042 H 
BRANCH  40  42
ATOM     42  CG1 DVA d          44.511  48.985  83.746  0.00  0.00    -0.071 C 
ATOM     43  H6  DVA d          43.960  48.918  84.696  0.00  0.00     0.028 H 
ATOM     44  H7  DVA d          45.003  48.023  83.540  0.00  0.00     0.028 H 
ATOM     45  H8  DVA d          43.810  49.220  82.931  0.00  0.00     0.028 H 
ENDBRANCH  40  42
BRANCH  40  46
ATOM     46  CG2 DVA d          45.543  50.942  82.578  0.00  0.00    -0.071 C 
ATOM     47  H9  DVA d          44.502  51.149  82.290  0.00  0.00     0.028 H 
ATOM     48  H10 DVA d          46.051  50.406  81.763  0.00  0.00     0.028 H 
ATOM     49  H11 DVA d          46.064  51.890  82.774  0.00  0.00     0.028 H 
ENDBRANCH  40  46
ENDBRANCH  34  40
ENDBRANCH  22  34
ENDBRANCH  17  20
ENDBRANCH  13  16
ENDBRANCH  10  13
ENDBRANCH   7   9
BRANCH   7  50
ATOM     50  CB  DVA d          45.493  57.666  85.898  0.00  0.00     0.044 C 
ATOM     51  H24 DVA d          46.029  57.723  86.857  0.00  0.00     0.077 H 
ATOM     52  H25 DVA d          44.411  57.749  86.077  0.00  0.00     0.077 H 
BRANCH  50  53
ATOM     53  OG  DVA d          45.913  58.732  85.063  0.00  0.00    -0.398 OA
ATOM     54  H26 DVA d          45.164  59.270  84.838  0.00  0.00     0.209 HD
ENDBRANCH  50  53
ENDBRANCH   7  50
ENDBRANCH   4   7
ENDBRANCH   1   3
BRANCH   1  55
ATOM     55  C   DVA d          42.952  54.338  88.369  0.00  0.00     0.241 C 
ATOM     56  O   DVA d          44.033  53.865  88.733  0.00  0.00    -0.271 OA
ATOM     57  N   DVA d          41.893  54.436  89.174  0.00  0.00    -0.346 N 
ATOM     58  H35 DVA d          41.054  54.856  88.827  0.00  0.00     0.163 HD
BRANCH  57  59
ATOM     59  CA  DVA d          41.928  53.940  90.567  0.00  0.00     0.094 C 
ATOM     60  H36 DVA d          42.551  53.034  90.586  0.00  0.00     0.088 H 
BRANCH  59  61
ATOM     61  C   DVA d          42.470  54.933  91.554  0.00  0.00     0.241 C 
ATOM     62  O   DVA d          42.087  56.112  91.524  0.00  0.00    -0.271 OA
ATOM     63  N   DVA d          43.382  54.468  92.401  0.00  0.00    -0.346 N 
ATOM     64  H42 DVA d          43.589  53.490  92.419  0.00  0.00     0.163 HD
BRANCH  63  65
ATOM     65  CA  DVA d          44.085  55.376  93.305  0.00  0.00     0.093 C 
ATOM     66  H43 DVA d          43.934  56.399  92.929  0.00  0.00     0.088 H 
BRANCH  65  67
ATOM     67  C   DVA d          43.614  55.361  94.754  0.00  0.00     0.241 C 
ATOM     68  O   DVA d          42.414  55.490  95.013  0.00  0.00    -0.271 OA
ATOM     69  N   DVA d          44.559  55.218  95.682  0.00  0.00    -0.345 N 
ATOM     70  H51 DVA d          45.513  55.135  95.393  0.00  0.00     0.163 HD
BRANCH  69  71
ATOM     71  CA  DVA d          44.244  55.177  97.117  0.00  0.00     0.098 C 
ATOM     72  H52 DVA d          43.159  55.325  97.223  0.00  0.00     0.088 H 
BRANCH  71  73
ATOM     73  C   DVA d          44.617  53.863  97.801  0.00  0.00     0.241 C 
ATOM     74  O   DVA d          45.141  53.845  98.922  0.00  0.00    -0.271 OA
ATOM     75  N   DVA d          44.305  52.778  97.089  0.00  0.00    -0.343 N 
ATOM     76  H55 DVA d          43.897  52.932  96.189  0.00  0.00     0.163 HD
BRANCH  75  77
ATOM     77  CA  DVA d          44.502  51.386  97.496  0.00  0.00     0.116 C 
ATOM     78  H56 DVA d          44.339  51.349  98.584  0.00  0.00     0.093 H 
BRANCH  77  79
ATOM     79  C   DVA d          43.512  50.416  96.867  0.00  0.00     0.198 C 
ATOM     80  O   DVA d          43.558  50.234  95.634  0.00  0.00    -0.646 OA
ATOM     81  OXT DVA d          42.703  49.845  97.635  0.00  0.00    -0.646 OA
ENDBRANCH  77  79
BRANCH  77  82
ATOM     82  CB  DVA d          45.939  50.920  97.232  0.00  0.00     0.045 C 
ATOM     83  H57 DVA d          46.319  51.419  96.328  0.00  0.00     0.077 H 
ATOM     84  H58 DVA d          45.941  49.830  97.078  0.00  0.00     0.077 H 
BRANCH  82  85
ATOM     85  OG  DVA d          46.788  51.236  98.329  0.00  0.00    -0.398 OA
ATOM     86  H59 DVA d          46.892  52.179  98.386  0.00  0.00     0.209 HD
ENDBRANCH  82  85
ENDBRANCH  77  82
ENDBRANCH  75  77
ENDBRANCH  71  73
BRANCH  71  87
ATOM     87  CB  DVA d          44.974  56.300  97.857  0.00  0.00     0.043 C 
ATOM     88  H53 DVA d          45.366  55.900  98.804  0.00  0.00     0.052 H 
ATOM     89  H54 DVA d          44.256  57.106  98.069  0.00  0.00     0.052 H 
BRANCH  87  90
ATOM     90  CG  DVA d          46.119  56.870  97.062  0.00  0.00     0.175 C 
ATOM     91  OD1 DVA d          47.210  56.259  97.065  0.00  0.00    -0.648 OA
ATOM     92  OD2 DVA d          45.928  57.917  96.421  0.00  0.00    -0.648 OA
ENDBRANCH  87  90
ENDBRANCH  71  87
ENDBRANCH  69  71
ENDBRANCH  65  67
BRANCH  65  93
ATOM     93  CB  DVA d          45.580  55.047  93.239  0.00  0.00    -0.014 C 
ATOM     94  H44 DVA d          46.017  55.194  94.238  0.00  0.00     0.043 H 
ATOM     95  H45 DVA d          46.059  55.733  92.525  0.00  0.00     0.043 H 
BRANCH  93  96
ATOM     96  CG  DVA d          45.849  53.618  92.795  0.00  0.00    -0.056 A 
ATOM     97  CD1 DVA d          45.776  52.559  93.706  0.00  0.00    -0.074 A 
ATOM     98  CE1 DVA d          46.054  51.235  93.326  0.00  0.00    -0.051 A 
ATOM     99  H46 DVA d          45.496  52.765  94.733  0.00  0.00     0.084 H 
ATOM    100  CZ  DVA d          46.409  50.975  91.988  0.00  0.00     0.065 A 
ATOM    101  H48 DVA d          45.995  50.429  94.049  0.00  0.00     0.087 H 
ATOM    102  CE2 DVA d          46.489  52.012  91.071  0.00  0.00    -0.051 A 
ATOM    103  CD2 DVA d          46.211  53.332  91.472  0.00  0.00    -0.074 A 
ATOM    104  H49 DVA d          46.765  51.806  90.043  0.00  0.00     0.087 H 
ATOM    105  H47 DVA d          46.277  54.137  90.748  0.00  0.00     0.084 H 
BRANCH 100 106
ATOM    106  OH  DVA d          46.668  49.690  91.567  0.00  0.00    -0.361 OA
ATOM    107  H50 DVA d          46.556  49.638  90.625  0.00  0.00     0.217 HD
ENDBRANCH 100 106
ENDBRANCH  93  96
ENDBRANCH  65  93
ENDBRANCH  63  65
ENDBRANCH  59  61
BRANCH  59 108
ATOM    108  CB  DVA d          40.529  53.613  91.093  0.00  0.00     0.004 C 
ATOM    109  H37 DVA d          40.158  52.728  90.556  0.00  0.00     0.046 H 
ATOM    110  H38 DVA d          39.873  54.471  90.884  0.00  0.00     0.046 H 
BRANCH 108 111
ATOM    111  CG  DVA d          40.470  53.327  92.563  0.00  0.00     0.053 A 
ATOM    112  ND1 DVA d          41.246  52.358  93.170  0.00  0.00    -0.247 NA
ATOM    113  CE1 DVA d          40.999  52.353  94.472  0.00  0.00     0.064 A 
ATOM    114  NE2 DVA d          40.087  53.283  94.729  0.00  0.00    -0.359 N 
ATOM    115  H40 DVA d          41.466  51.699  95.207  0.00  0.00     0.143 H 
ATOM    116  CD2 DVA d          39.741  53.903  93.548  0.00  0.00     0.002 A 
ATOM    117  H41 DVA d          39.701  53.505  95.657  0.00  0.00     0.166 HD
ATOM    118  H39 DVA d          39.015  54.706  93.429  0.00  0.00     0.114 H 
ENDBRANCH 108 111
ENDBRANCH  59 108
ENDBRANCH  57  59
ENDBRANCH   1  55
BRANCH   1 119
ATOM    119  CB  DVA d          41.438  55.598  86.809  0.00  0.00    -0.030 C 
ATOM    120  H29 DVA d          40.760  55.271  87.612  0.00  0.00     0.037 H 
ATOM    121  H30 DVA d          40.989  55.364  85.832  0.00  0.00     0.037 H 
BRANCH 119 122
ATOM    122  CG  DVA d          41.648  57.128  86.917  0.00  0.00     0.011 C 
ATOM    123  H31 DVA d          41.310  57.590  85.978  0.00  0.00     0.047 H 
ATOM    124  H32 DVA d          42.723  57.320  87.053  0.00  0.00     0.047 H 
BRANCH 122 125
ATOM    125  CD  DVA d          40.889  57.789  88.081  0.00  0.00     0.215 C 
ATOM    126  OE1 DVA d          39.691  58.105  87.965  0.00  0.00    -0.274 OA
ATOM    127  NE2 DVA d          41.570  57.988  89.191  0.00  0.00    -0.370 N 
ATOM    128  H33 DVA d          41.127  58.414  89.980  0.00  0.00     0.159 HD
ATOM    129  H34 DVA d          42.530  57.713  89.245  0.00  0.00     0.159 HD
ENDBRANCH 122 125
ENDBRANCH 119 122
ENDBRANCH   1 119
TORSDOF 34
ENDMDL
MODEL 4
REMARK VINA RESULT:      -4.2      2.678     11.632
REMARK WARNING: 32 MAX_TORS EXCEEDED!!!
REMARK  34 active torsions:
REMARK  status: ('A' for Active; 'I' for Inactive)
REMARK    1  A    between atoms: N_1  and  CA_2 
REMARK    2  A    between atoms: CA_2  and  CB_3 
REMARK    3  A    between atoms: CA_2  and  C_6 
REMARK    4  A    between atoms: CB_3  and  CG1_4 
REMARK    5  A    between atoms: CB_3  and  CG2_5 
REMARK       I    between atoms: C_6  and  N_8 
REMARK    6  A    between atoms: CA_9  and  C_13 
REMARK       I    between atoms: C_13  and  N_15 
REMARK    7  A    between atoms: N_15  and  CA_16 
REMARK    8  A    between atoms: CA_16  and  C_17 
REMARK       I    between atoms: C_17  and  N_19 
REMARK    9  A    between atoms: N_19  and  CA_20 
REMARK   10  A    between atoms: CA_20  and  C_21 
REMARK   11  A    between atoms: CA_20  and  CB_23 
REMARK       I    between atoms: C_21  and  N_25 
REMARK   12  A    between atoms: CB_23  and  OG_24 
REMARK   13  A    between atoms: N_25  and  CA_26 
REMARK   14  A    between atoms: CA_26  and  C_27 
REMARK   15  A    between atoms: CA_26  and  CB_29 
REMARK       I    between atoms: C_27  and  N_34 
REMARK   16  A    between atoms: CB_29  and  CG_30 
REMARK   17  A    between atoms: CG_30  and  CD_31 
REMARK       I    between atoms: CD_31  and  NE2_33 
REMARK   18  A    between atoms: N_34  and  CA_35 
REMARK   19  A    between atoms: CA_35  and  C_36 
REMARK   20  A    between atoms: CA_35  and  CB_38 
REMARK       I    between atoms: C_36  and  N_44 
REMARK   21  A    between atoms: CB_38  and  CG_39 
REMARK   22  A    between atoms: N_44  and  CA_45 
REMARK   23  A    between atoms: CA_45  and  C_46 
REMARK   24  A    between atoms: CA_45  and  CB_48 
REMARK       I    between atoms: C_46  and  N_56 
REMARK   25  A    between atoms: CB_48  and  CG_49 
REMARK   26  A    between atoms: CZ_54  and  OH_55 
REMARK   27  A    between atoms: N_56  and  CA_57 
REMARK   28  A    between atoms: CA_57  and  C_58 
REMARK   29  A    between atoms: CA_57  and  CB_60 
REMARK       I    between atoms: C_58  and  N_64 
REMARK   30  A    between atoms: CB_60  and  CG_61 
REMARK   31  A    between atoms: N_64  and  CA_65 
REMARK   32  A    between atoms: CA_65  and  C_66 
REMARK   33  A    between atoms: CA_65  and  CB_69 
REMARK   34  A    between atoms: CB_69  and  OG_70 
ROOT
ATOM      1  CA  DVA d          43.790  53.226  85.783  0.00  0.00     0.090 C 
ATOM      2  H28 DVA d          43.574  52.215  85.405  0.00  0.00     0.087 H 
ENDROOT
BRANCH   1   3
ATOM      3  N   DVA d          45.168  53.268  86.245  0.00  0.00    -0.346 N 
ATOM      4  C   DVA d          45.797  52.135  86.501  0.00  0.00     0.243 C 
ATOM      5  O   DVA d          45.268  51.046  86.350  0.00  0.00    -0.271 OA
ATOM      6  H27 DVA d          45.634  54.145  86.367  0.00  0.00     0.163 HD
BRANCH   4   7
ATOM      7  CA  DVA d          47.217  52.235  87.023  0.00  0.00     0.109 C 
ATOM      8  H23 DVA d          47.236  52.197  88.122  0.00  0.00     0.090 H 
BRANCH   7   9
ATOM      9  N   DVA d          47.770  53.485  86.554  0.00  0.00    -0.344 N 
ATOM     10  C   DVA d          48.307  54.368  87.382  0.00  0.00     0.236 C 
ATOM     11  O   DVA d          48.380  54.193  88.599  0.00  0.00    -0.272 OA
ATOM     12  H22 DVA d          47.746  53.690  85.575  0.00  0.00     0.163 HD
BRANCH  10  13
ATOM     13  CA  DVA d          48.842  55.628  86.754  0.00  0.00     0.069 C 
ATOM     14  H20 DVA d          48.712  56.476  87.443  0.00  0.00     0.078 H 
ATOM     15  H21 DVA d          49.909  55.508  86.518  0.00  0.00     0.078 H 
BRANCH  13  16
ATOM     16  N   DVA d          48.090  55.857  85.544  0.00  0.00    -0.351 N 
ATOM     17  C   DVA d          48.703  56.065  84.387  0.00  0.00     0.241 C 
ATOM     18  O   DVA d          49.931  56.065  84.259  0.00  0.00    -0.271 OA
ATOM     19  H19 DVA d          47.091  55.857  85.579  0.00  0.00     0.163 HD
BRANCH  17  20
ATOM     20  CA  DVA d          47.774  56.296  83.197  0.00  0.00     0.091 C 
ATOM     21  N   DVA d          48.345  55.705  81.977  0.00  0.00    -0.337 N 
ATOM     22  C   DVA d          48.446  54.438  81.496  0.00  0.00     0.251 C 
ATOM     23  CD  DVA d          48.910  56.769  81.124  0.00  0.00    -0.001 C 
ATOM     24  O   DVA d          49.025  54.201  80.429  0.00  0.00    -0.271 OA
ATOM     25  CG  DVA d          48.910  57.973  82.046  0.00  0.00    -0.048 C 
ATOM     26  H17 DVA d          48.279  56.946  80.241  0.00  0.00     0.064 H 
ATOM     27  H18 DVA d          49.931  56.517  80.801  0.00  0.00     0.064 H 
ATOM     28  CB  DVA d          47.668  57.772  82.841  0.00  0.00    -0.036 C 
ATOM     29  H15 DVA d          49.800  57.979  82.693  0.00  0.00     0.035 H 
ATOM     30  H16 DVA d          48.868  58.912  81.474  0.00  0.00     0.035 H 
ATOM     31  H13 DVA d          47.661  58.403  83.742  0.00  0.00     0.036 H 
ATOM     32  H14 DVA d          46.769  57.978  82.241  0.00  0.00     0.036 H 
ATOM     33  H12 DVA d          46.783  55.872  83.419  0.00  0.00     0.087 H 
BRANCH  22  34
ATOM     34  CA  DVA d          47.866  53.262  82.316  0.00  0.00     0.178 C 
ATOM     35  H4  DVA d          47.868  53.566  83.373  0.00  0.00     0.099 H 
BRANCH  34  36
ATOM     36  N   DVA d          48.760  52.079  82.170  0.00  0.00    -0.066 N 
ATOM     37  H1  DVA d          49.696  52.328  82.449  0.00  0.00     0.275 HD
ATOM     38  H2  DVA d          48.766  51.779  81.207  0.00  0.00     0.275 HD
ATOM     39  H3  DVA d          48.423  51.329  82.753  0.00  0.00     0.275 HD
ENDBRANCH  34  36
BRANCH  34  40
ATOM     40  CB  DVA d          46.418  52.876  81.955  0.00  0.00    -0.025 C 
ATOM     41  H5  DVA d          45.766  53.066  82.821  0.00  0.00     0.042 H 
BRANCH  40  42
ATOM     42  CG1 DVA d          45.929  53.705  80.778  0.00  0.00    -0.071 C 
ATOM     43  H6  DVA d          46.692  54.451  80.512  0.00  0.00     0.028 H 
ATOM     44  H7  DVA d          44.995  54.218  81.053  0.00  0.00     0.028 H 
ATOM     45  H8  DVA d          45.745  53.046  79.916  0.00  0.00     0.028 H 
ENDBRANCH  40  42
BRANCH  40  46
ATOM     46  CG2 DVA d          46.374  51.387  81.606  0.00  0.00    -0.071 C 
ATOM     47  H9  DVA d          47.097  50.842  82.232  0.00  0.00     0.028 H 
ATOM     48  H10 DVA d          46.631  51.251  80.545  0.00  0.00     0.028 H 
ATOM     49  H11 DVA d          45.363  50.997  81.790  0.00  0.00     0.028 H 
ENDBRANCH  40  46
ENDBRANCH  34  40
ENDBRANCH  22  34
ENDBRANCH  17  20
ENDBRANCH  13  16
ENDBRANCH  10  13
ENDBRANCH   7   9
BRANCH   7  50
ATOM     50  CB  DVA d          47.997  51.064  86.436  0.00  0.00     0.044 C 
ATOM     51  H24 DVA d          47.585  50.121  86.824  0.00  0.00     0.077 H 
ATOM     52  H25 DVA d          49.055  51.149  86.725  0.00  0.00     0.077 H 
BRANCH  50  53
ATOM     53  OG  DVA d          47.895  51.072  85.021  0.00  0.00    -0.398 OA
ATOM     54  H26 DVA d          48.637  50.609  84.649  0.00  0.00     0.209 HD
ENDBRANCH  50  53
ENDBRANCH   7  50
ENDBRANCH   4   7
ENDBRANCH   1   3
BRANCH   1  55
ATOM     55  C   DVA d          42.831  53.533  86.930  0.00  0.00     0.241 C 
ATOM     56  O   DVA d          41.736  52.967  87.001  0.00  0.00    -0.271 OA
ATOM     57  N   DVA d          43.245  54.431  87.826  0.00  0.00    -0.346 N 
ATOM     58  H35 DVA d          44.156  54.832  87.728  0.00  0.00     0.163 HD
BRANCH  57  59
ATOM     59  CA  DVA d          42.392  54.847  88.960  0.00  0.00     0.094 C 
ATOM     60  H36 DVA d          41.343  54.727  88.653  0.00  0.00     0.088 H 
BRANCH  59  61
ATOM     61  C   DVA d          42.631  54.067  90.220  0.00  0.00     0.241 C 
ATOM     62  O   DVA d          42.442  52.842  90.238  0.00  0.00    -0.271 OA
ATOM     63  N   DVA d          43.010  54.778  91.276  0.00  0.00    -0.346 N 
ATOM     64  H42 DVA d          43.216  55.750  91.172  0.00  0.00     0.163 HD
BRANCH  63  65
ATOM     65  CA  DVA d          43.127  54.147  92.591  0.00  0.00     0.093 C 
ATOM     66  H43 DVA d          43.579  54.885  93.271  0.00  0.00     0.088 H 
BRANCH  65  67
ATOM     67  C   DVA d          41.818  53.697  93.227  0.00  0.00     0.241 C 
ATOM     68  O   DVA d          41.438  52.531  93.093  0.00  0.00    -0.271 OA
ATOM     69  N   DVA d          41.137  54.624  93.898  0.00  0.00    -0.345 N 
ATOM     70  H51 DVA d          41.504  55.553  93.948  0.00  0.00     0.163 HD
BRANCH  69  71
ATOM     71  CA  DVA d          39.865  54.324  94.569  0.00  0.00     0.098 C 
ATOM     72  H52 DVA d          39.261  53.714  93.880  0.00  0.00     0.088 H 
BRANCH  71  73
ATOM     73  C   DVA d          40.015  53.556  95.880  0.00  0.00     0.241 C 
ATOM     74  O   DVA d          40.718  53.985  96.804  0.00  0.00    -0.271 OA
ATOM     75  N   DVA d          39.313  52.422  95.924  0.00  0.00    -0.343 N 
ATOM     76  H55 DVA d          38.795  52.181  95.102  0.00  0.00     0.163 HD
BRANCH  75  77
ATOM     77  CA  DVA d          39.224  51.497  97.055  0.00  0.00     0.116 C 
ATOM     78  H56 DVA d          39.717  51.991  97.905  0.00  0.00     0.093 H 
BRANCH  77  79
ATOM     79  C   DVA d          37.798  51.188  97.487  0.00  0.00     0.198 C 
ATOM     80  O   DVA d          37.251  51.942  98.318  0.00  0.00    -0.646 OA
ATOM     81  OXT DVA d          37.247  50.187  96.973  0.00  0.00    -0.646 OA
ENDBRANCH  77  79
BRANCH  77  82
ATOM     82  CB  DVA d          39.985  50.194  96.778  0.00  0.00     0.045 C 
ATOM     83  H57 DVA d          39.588  49.400  97.427  0.00  0.00     0.077 H 
ATOM     84  H58 DVA d          41.053  50.348  96.996  0.00  0.00     0.077 H 
BRANCH  82  85
ATOM     85  OG  DVA d          39.841  49.798  95.419  0.00  0.00    -0.398 OA
ATOM     86  H59 DVA d          40.690  49.552  95.070  0.00  0.00     0.209 HD
ENDBRANCH  82  85
ENDBRANCH  77  82
ENDBRANCH  75  77
ENDBRANCH  71  73
BRANCH  71  87
ATOM     87  CB  DVA d          39.107  55.616  94.882  0.00  0.00     0.043 C 
ATOM     88  H53 DVA d          38.823  55.609  95.944  0.00  0.00     0.052 H 
ATOM     89  H54 DVA d          38.200  55.652  94.260  0.00  0.00     0.052 H 
BRANCH  87  90
ATOM     90  CG  DVA d          39.927  56.850  94.610  0.00  0.00     0.175 C 
ATOM     91  OD1 DVA d          40.694  57.266  95.505  0.00  0.00    -0.648 OA
ATOM     92  OD2 DVA d          39.820  57.395  93.499  0.00  0.00    -0.648 OA
ENDBRANCH  87  90
ENDBRANCH  71  87
ENDBRANCH  69  71
ENDBRANCH  65  67
BRANCH  65  93
ATOM     93  CB  DVA d          44.082  52.956  92.461  0.00  0.00    -0.014 C 
ATOM     94  H44 DVA d          44.779  53.152  91.633  0.00  0.00     0.043 H 
ATOM     95  H45 DVA d          43.491  52.055  92.237  0.00  0.00     0.043 H 
BRANCH  93  96
ATOM     96  CG  DVA d          44.888  52.706  93.726  0.00  0.00    -0.056 A 
ATOM     97  CD1 DVA d          44.890  51.449  94.338  0.00  0.00    -0.074 A 
ATOM     98  CE1 DVA d          45.600  51.205  95.526  0.00  0.00    -0.051 A 
ATOM     99  H46 DVA d          44.329  50.640  93.884  0.00  0.00     0.084 H 
ATOM    100  CZ  DVA d          46.332  52.259  96.106  0.00  0.00     0.065 A 
ATOM    101  H48 DVA d          45.585  50.224  95.987  0.00  0.00     0.087 H 
ATOM    102  CE2 DVA d          46.341  53.514  95.514  0.00  0.00    -0.051 A 
ATOM    103  CD2 DVA d          45.620  53.739  94.327  0.00  0.00    -0.074 A 
ATOM    104  H49 DVA d          46.904  54.322  95.966  0.00  0.00     0.087 H 
ATOM    105  H47 DVA d          45.632  54.723  93.872  0.00  0.00     0.084 H 
BRANCH 100 106
ATOM    106  OH  DVA d          47.061  52.059  97.257  0.00  0.00    -0.361 OA
ATOM    107  H50 DVA d          47.028  51.140  97.495  0.00  0.00     0.217 HD
ENDBRANCH 100 106
ENDBRANCH  93  96
ENDBRANCH  65  93
ENDBRANCH  63  65
ENDBRANCH  59  61
BRANCH  59 108
ATOM    108  CB  DVA d          42.647  56.300  89.364  0.00  0.00     0.004 C 
ATOM    109  H37 DVA d          43.494  56.678  88.773  0.00  0.00     0.046 H 
ATOM    110  H38 DVA d          42.908  56.320  90.432  0.00  0.00     0.046 H 
BRANCH 108 111
ATOM    111  CG  DVA d          41.481  57.217  89.150  0.00  0.00     0.053 A 
ATOM    112  ND1 DVA d          41.086  57.649  87.898  0.00  0.00    -0.247 NA
ATOM    113  CE1 DVA d          40.016  58.421  88.020  0.00  0.00     0.064 A 
ATOM    114  NE2 DVA d          39.707  58.508  89.308  0.00  0.00    -0.359 N 
ATOM    115  H40 DVA d          39.481  58.903  87.202  0.00  0.00     0.143 H 
ATOM    116  CD2 DVA d          40.612  57.764  90.033  0.00  0.00     0.002 A 
ATOM    117  H41 DVA d          38.921  59.044  89.701  0.00  0.00     0.166 HD
ATOM    118  H39 DVA d          40.626  57.639  91.114  0.00  0.00     0.114 H 
ENDBRANCH 108 111
ENDBRANCH  59 108
ENDBRANCH  57  59
ENDBRANCH   1  55
BRANCH   1 119
ATOM    119  CB  DVA d          43.599  54.233  84.642  0.00  0.00    -0.030 C 
ATOM    120  H29 DVA d          44.409  54.103  83.909  0.00  0.00     0.037 H 
ATOM    121  H30 DVA d          43.636  55.253  85.054  0.00  0.00     0.037 H 
BRANCH 119 122
ATOM    122  CG  DVA d          42.238  54.022  83.936  0.00  0.00     0.011 C 
ATOM    123  H31 DVA d          41.835  55.007  83.660  0.00  0.00     0.047 H 
ATOM    124  H32 DVA d          41.553  53.532  84.644  0.00  0.00     0.047 H 
BRANCH 122 125
ATOM    125  CD  DVA d          42.314  53.158  82.664  0.00  0.00     0.215 C 
ATOM    126  OE1 DVA d          43.030  52.141  82.624  0.00  0.00    -0.274 OA
ATOM    127  NE2 DVA d          41.580  53.549  81.642  0.00  0.00    -0.370 N 
ATOM    128  H33 DVA d          41.591  53.026  80.790  0.00  0.00     0.159 HD
ATOM    129  H34 DVA d          41.013  54.369  81.718  0.00  0.00     0.159 HD
ENDBRANCH 122 125
ENDBRANCH 119 122
ENDBRANCH   1 119
TORSDOF 34
ENDMDL
MODEL 5
REMARK VINA RESULT:      -4.2      2.758     10.534
REMARK WARNING: 32 MAX_TORS EXCEEDED!!!
REMARK  34 active torsions:
REMARK  status: ('A' for Active; 'I' for Inactive)
REMARK    1  A    between atoms: N_1  and  CA_2 
REMARK    2  A    between atoms: CA_2  and  CB_3 
REMARK    3  A    between atoms: CA_2  and  C_6 
REMARK    4  A    between atoms: CB_3  and  CG1_4 
REMARK    5  A    between atoms: CB_3  and  CG2_5 
REMARK       I    between atoms: C_6  and  N_8 
REMARK    6  A    between atoms: CA_9  and  C_13 
REMARK       I    between atoms: C_13  and  N_15 
REMARK    7  A    between atoms: N_15  and  CA_16 
REMARK    8  A    between atoms: CA_16  and  C_17 
REMARK       I    between atoms: C_17  and  N_19 
REMARK    9  A    between atoms: N_19  and  CA_20 
REMARK   10  A    between atoms: CA_20  and  C_21 
REMARK   11  A    between atoms: CA_20  and  CB_23 
REMARK       I    between atoms: C_21  and  N_25 
REMARK   12  A    between atoms: CB_23  and  OG_24 
REMARK   13  A    between atoms: N_25  and  CA_26 
REMARK   14  A    between atoms: CA_26  and  C_27 
REMARK   15  A    between atoms: CA_26  and  CB_29 
REMARK       I    between atoms: C_27  and  N_34 
REMARK   16  A    between atoms: CB_29  and  CG_30 
REMARK   17  A    between atoms: CG_30  and  CD_31 
REMARK       I    between atoms: CD_31  and  NE2_33 
REMARK   18  A    between atoms: N_34  and  CA_35 
REMARK   19  A    between atoms: CA_35  and  C_36 
REMARK   20  A    between atoms: CA_35  and  CB_38 
REMARK       I    between atoms: C_36  and  N_44 
REMARK   21  A    between atoms: CB_38  and  CG_39 
REMARK   22  A    between atoms: N_44  and  CA_45 
REMARK   23  A    between atoms: CA_45  and  C_46 
REMARK   24  A    between atoms: CA_45  and  CB_48 
REMARK       I    between atoms: C_46  and  N_56 
REMARK   25  A    between atoms: CB_48  and  CG_49 
REMARK   26  A    between atoms: CZ_54  and  OH_55 
REMARK   27  A    between atoms: N_56  and  CA_57 
REMARK   28  A    between atoms: CA_57  and  C_58 
REMARK   29  A    between atoms: CA_57  and  CB_60 
REMARK       I    between atoms: C_58  and  N_64 
REMARK   30  A    between atoms: CB_60  and  CG_61 
REMARK   31  A    between atoms: N_64  and  CA_65 
REMARK   32  A    between atoms: CA_65  and  C_66 
REMARK   33  A    between atoms: CA_65  and  CB_69 
REMARK   34  A    between atoms: CB_69  and  OG_70 
ROOT
ATOM      1  CA  DVA d          46.046  55.506  90.374  0.00  0.00     0.090 C 
ATOM      2  H28 DVA d          45.074  55.610  89.869  0.00  0.00     0.087 H 
ENDROOT
BRANCH   1   3
ATOM      3  N   DVA d          46.706  54.310  89.877  0.00  0.00    -0.346 N 
ATOM      4  C   DVA d          46.161  53.643  88.876  0.00  0.00     0.243 C 
ATOM      5  O   DVA d          45.126  54.001  88.338  0.00  0.00    -0.271 OA
ATOM      6  H27 DVA d          47.562  53.996  90.288  0.00  0.00     0.163 HD
BRANCH   4   7
ATOM      7  CA  DVA d          46.864  52.377  88.424  0.00  0.00     0.109 C 
ATOM      8  H23 DVA d          47.629  52.070  89.153  0.00  0.00     0.090 H 
BRANCH   7   9
ATOM      9  N   DVA d          47.473  52.647  87.141  0.00  0.00    -0.344 N 
ATOM     10  C   DVA d          48.775  52.513  86.942  0.00  0.00     0.236 C 
ATOM     11  O   DVA d          49.557  52.149  87.821  0.00  0.00    -0.272 OA
ATOM     12  H22 DVA d          46.894  52.944  86.382  0.00  0.00     0.163 HD
BRANCH  10  13
ATOM     13  CA  DVA d          49.271  52.832  85.556  0.00  0.00     0.069 C 
ATOM     14  H20 DVA d          50.206  53.408  85.614  0.00  0.00     0.078 H 
ATOM     15  H21 DVA d          49.448  51.902  84.997  0.00  0.00     0.078 H 
BRANCH  13  16
ATOM     16  N   DVA d          48.249  53.613  84.904  0.00  0.00    -0.351 N 
ATOM     17  C   DVA d          47.636  53.167  83.816  0.00  0.00     0.241 C 
ATOM     18  O   DVA d          47.877  52.071  83.302  0.00  0.00    -0.271 OA
ATOM     19  H19 DVA d          47.998  54.506  85.278  0.00  0.00     0.163 HD
BRANCH  17  20
ATOM     20  CA  DVA d          46.581  54.108  83.238  0.00  0.00     0.091 C 
ATOM     21  N   DVA d          45.429  53.342  82.736  0.00  0.00    -0.337 N 
ATOM     22  C   DVA d          44.375  52.722  83.326  0.00  0.00     0.251 C 
ATOM     23  CD  DVA d          45.479  53.274  81.262  0.00  0.00    -0.001 C 
ATOM     24  O   DVA d          43.542  52.097  82.658  0.00  0.00    -0.271 OA
ATOM     25  CG  DVA d          46.876  53.776  80.950  0.00  0.00    -0.048 C 
ATOM     26  H17 DVA d          44.715  53.922  80.809  0.00  0.00     0.064 H 
ATOM     27  H18 DVA d          45.342  52.241  80.909  0.00  0.00     0.064 H 
ATOM     28  CB  DVA d          47.084  54.820  81.991  0.00  0.00    -0.036 C 
ATOM     29  H15 DVA d          47.619  52.970  81.042  0.00  0.00     0.035 H 
ATOM     30  H16 DVA d          46.927  54.208  79.940  0.00  0.00     0.035 H 
ATOM     31  H13 DVA d          48.146  55.090  82.083  0.00  0.00     0.036 H 
ATOM     32  H14 DVA d          46.492  55.723  81.777  0.00  0.00     0.036 H 
ATOM     33  H12 DVA d          46.273  54.831  84.008  0.00  0.00     0.087 H 
BRANCH  22  34
ATOM     34  CA  DVA d          44.233  52.756  84.866  0.00  0.00     0.178 C 
ATOM     35  H4  DVA d          45.241  52.891  85.286  0.00  0.00     0.099 H 
BRANCH  34  36
ATOM     36  N   DVA d          43.703  51.446  85.336  0.00  0.00    -0.066 N 
ATOM     37  H1  DVA d          43.086  51.062  84.637  0.00  0.00     0.275 HD
ATOM     38  H2  DVA d          43.195  51.578  86.197  0.00  0.00     0.275 HD
ATOM     39  H3  DVA d          44.470  50.810  85.493  0.00  0.00     0.275 HD
ENDBRANCH  34  36
BRANCH  34  40
ATOM     40  CB  DVA d          43.357  53.904  85.407  0.00  0.00    -0.025 C 
ATOM     41  H5  DVA d          43.027  53.658  86.427  0.00  0.00     0.042 H 
BRANCH  40  42
ATOM     42  CG1 DVA d          44.150  55.201  85.442  0.00  0.00    -0.071 C 
ATOM     43  H6  DVA d          44.501  55.388  86.467  0.00  0.00     0.028 H 
ATOM     44  H7  DVA d          43.507  56.033  85.118  0.00  0.00     0.028 H 
ATOM     45  H8  DVA d          45.014  55.121  84.766  0.00  0.00     0.028 H 
ENDBRANCH  40  42
BRANCH  40  46
ATOM     46  CG2 DVA d          42.131  54.059  84.503  0.00  0.00    -0.071 C 
ATOM     47  H9  DVA d          42.436  53.958  83.451  0.00  0.00     0.028 H 
ATOM     48  H10 DVA d          41.682  55.050  84.662  0.00  0.00     0.028 H 
ATOM     49  H11 DVA d          41.395  53.280  84.748  0.00  0.00     0.028 H 
ENDBRANCH  40  46
ENDBRANCH  34  40
ENDBRANCH  22  34
ENDBRANCH  17  20
ENDBRANCH  13  16
ENDBRANCH  10  13
ENDBRANCH   7   9
BRANCH   7  50
ATOM     50  CB  DVA d          45.798  51.296  88.282  0.00  0.00     0.044 C 
ATOM     51  H24 DVA d          44.823  51.769  88.093  0.00  0.00     0.077 H 
ATOM     52  H25 DVA d          45.748  50.709  89.211  0.00  0.00     0.077 H 
BRANCH  50  53
ATOM     53  OG  DVA d          46.118  50.436  87.200  0.00  0.00    -0.398 OA
ATOM     54  H26 DVA d          46.689  49.742  87.508  0.00  0.00     0.209 HD
ENDBRANCH  50  53
ENDBRANCH   7  50
ENDBRANCH   4   7
ENDBRANCH   1   3
BRANCH   1  55
ATOM     55  C   DVA d          45.806  55.400  91.878  0.00  0.00     0.241 C 
ATOM     56  O   DVA d          45.843  56.406  92.592  0.00  0.00    -0.271 OA
ATOM     57  N   DVA d          45.560  54.178  92.355  0.00  0.00    -0.346 N 
ATOM     58  H35 DVA d          45.515  53.407  91.719  0.00  0.00     0.163 HD
BRANCH  57  59
ATOM     59  CA  DVA d          45.352  53.936  93.799  0.00  0.00     0.094 C 
ATOM     60  H36 DVA d          45.887  54.721  94.352  0.00  0.00     0.088 H 
BRANCH  59  61
ATOM     61  C   DVA d          43.910  53.932  94.215  0.00  0.00     0.241 C 
ATOM     62  O   DVA d          43.347  52.864  94.498  0.00  0.00    -0.271 OA
ATOM     63  N   DVA d          43.307  55.116  94.217  0.00  0.00    -0.346 N 
ATOM     64  H42 DVA d          43.840  55.945  94.051  0.00  0.00     0.163 HD
BRANCH  63  65
ATOM     65  CA  DVA d          41.868  55.213  94.461  0.00  0.00     0.093 C 
ATOM     66  H43 DVA d          41.565  56.247  94.235  0.00  0.00     0.088 H 
BRANCH  65  67
ATOM     67  C   DVA d          40.991  54.298  93.616  0.00  0.00     0.241 C 
ATOM     68  O   DVA d          40.137  53.590  94.159  0.00  0.00    -0.271 OA
ATOM     69  N   DVA d          41.216  54.309  92.304  0.00  0.00    -0.345 N 
ATOM     70  H51 DVA d          41.937  54.898  91.941  0.00  0.00     0.163 HD
BRANCH  69  71
ATOM     71  CA  DVA d          40.437  53.481  91.372  0.00  0.00     0.098 C 
ATOM     72  H52 DVA d          39.480  53.243  91.859  0.00  0.00     0.088 H 
BRANCH  71  73
ATOM     73  C   DVA d          40.137  54.159  90.036  0.00  0.00     0.241 C 
ATOM     74  O   DVA d          39.495  53.582  89.148  0.00  0.00    -0.271 OA
ATOM     75  N   DVA d          40.609  55.404  89.946  0.00  0.00    -0.343 N 
ATOM     76  H55 DVA d          41.125  55.748  90.730  0.00  0.00     0.163 HD
BRANCH  75  77
ATOM     77  CA  DVA d          40.447  56.315  88.812  0.00  0.00     0.116 C 
ATOM     78  H56 DVA d          39.639  55.903  88.189  0.00  0.00     0.093 H 
BRANCH  77  79
ATOM     79  C   DVA d          40.026  57.723  89.209  0.00  0.00     0.198 C 
ATOM     80  O   DVA d          40.535  58.232  90.229  0.00  0.00    -0.646 OA
ATOM     81  OXT DVA d          39.186  58.298  88.478  0.00  0.00    -0.646 OA
ENDBRANCH  77  79
BRANCH  77  82
ATOM     82  CB  DVA d          41.711  56.367  87.945  0.00  0.00     0.045 C 
ATOM     83  H57 DVA d          41.824  57.381  87.534  0.00  0.00     0.077 H 
ATOM     84  H58 DVA d          41.612  55.645  87.121  0.00  0.00     0.077 H 
BRANCH  82  85
ATOM     85  OG  DVA d          42.867  56.044  88.709  0.00  0.00    -0.398 OA
ATOM     86  H59 DVA d          43.639  56.120  88.160  0.00  0.00     0.209 HD
ENDBRANCH  82  85
ENDBRANCH  77  82
ENDBRANCH  75  77
ENDBRANCH  71  73
BRANCH  71  87
ATOM     87  CB  DVA d          41.178  52.178  91.065  0.00  0.00     0.043 C 
ATOM     88  H53 DVA d          40.526  51.539  90.451  0.00  0.00     0.052 H 
ATOM     89  H54 DVA d          41.402  51.669  92.015  0.00  0.00     0.052 H 
BRANCH  87  90
ATOM     90  CG  DVA d          42.469  52.405  90.324  0.00  0.00     0.175 C 
ATOM     91  OD1 DVA d          43.413  52.962  90.926  0.00  0.00    -0.648 OA
ATOM     92  OD2 DVA d          42.549  52.016  89.147  0.00  0.00    -0.648 OA
ENDBRANCH  87  90
ENDBRANCH  71  87
ENDBRANCH  69  71
ENDBRANCH  65  67
BRANCH  65  93
ATOM     93  CB  DVA d          41.620  54.946  95.949  0.00  0.00    -0.014 C 
ATOM     94  H44 DVA d          42.592  54.826  96.451  0.00  0.00     0.043 H 
ATOM     95  H45 DVA d          41.039  54.018  96.047  0.00  0.00     0.043 H 
BRANCH  93  96
ATOM     96  CG  DVA d          40.857  56.072  96.630  0.00  0.00    -0.056 A 
ATOM     97  CD1 DVA d          41.536  57.108  97.279  0.00  0.00    -0.074 A 
ATOM     98  CE1 DVA d          40.851  58.139  97.944  0.00  0.00    -0.051 A 
ATOM     99  H46 DVA d          42.620  57.116  97.269  0.00  0.00     0.084 H 
ATOM    100  CZ  DVA d          39.443  58.125  97.946  0.00  0.00     0.065 A 
ATOM    101  H48 DVA d          41.396  58.931  98.446  0.00  0.00     0.087 H 
ATOM    102  CE2 DVA d          38.752  57.105  97.309  0.00  0.00    -0.051 A 
ATOM    103  CD2 DVA d          39.456  56.079  96.653  0.00  0.00    -0.074 A 
ATOM    104  H49 DVA d          37.668  57.098  97.316  0.00  0.00     0.087 H 
ATOM    105  H47 DVA d          38.907  55.285  96.158  0.00  0.00     0.084 H 
BRANCH 100 106
ATOM    106  OH  DVA d          38.731  59.128  98.566  0.00  0.00    -0.361 OA
ATOM    107  H50 DVA d          38.125  59.515  97.944  0.00  0.00     0.217 HD
ENDBRANCH 100 106
ENDBRANCH  93  96
ENDBRANCH  65  93
ENDBRANCH  63  65
ENDBRANCH  59  61
BRANCH  59 108
ATOM    108  CB  DVA d          45.870  52.561  94.228  0.00  0.00     0.004 C 
ATOM    109  H37 DVA d          45.566  51.826  93.469  0.00  0.00     0.046 H 
ATOM    110  H38 DVA d          45.408  52.305  95.193  0.00  0.00     0.046 H 
BRANCH 108 111
ATOM    111  CG  DVA d          47.359  52.482  94.386  0.00  0.00     0.053 A 
ATOM    112  ND1 DVA d          47.997  52.690  95.594  0.00  0.00    -0.247 NA
ATOM    113  CE1 DVA d          49.302  52.528  95.432  0.00  0.00     0.064 A 
ATOM    114  NE2 DVA d          49.532  52.226  94.160  0.00  0.00    -0.359 N 
ATOM    115  H40 DVA d          50.058  52.625  96.210  0.00  0.00     0.143 H 
ATOM    116  CD2 DVA d          48.330  52.194  93.487  0.00  0.00     0.002 A 
ATOM    117  H41 DVA d          50.456  52.046  93.743  0.00  0.00     0.166 HD
ATOM    118  H39 DVA d          48.187  51.978  92.429  0.00  0.00     0.114 H 
ENDBRANCH 108 111
ENDBRANCH  59 108
ENDBRANCH  57  59
ENDBRANCH   1  55
BRANCH   1 119
ATOM    119  CB  DVA d          46.904  56.737  90.056  0.00  0.00    -0.030 C 
ATOM    120  H29 DVA d          47.963  56.488  90.221  0.00  0.00     0.037 H 
ATOM    121  H30 DVA d          46.611  57.561  90.724  0.00  0.00     0.037 H 
BRANCH 119 122
ATOM    122  CG  DVA d          46.712  57.184  88.586  0.00  0.00     0.011 C 
ATOM    123  H31 DVA d          46.637  58.281  88.566  0.00  0.00     0.047 H 
ATOM    124  H32 DVA d          45.775  56.745  88.211  0.00  0.00     0.047 H 
BRANCH 122 125
ATOM    125  CD  DVA d          47.853  56.762  87.644  0.00  0.00     0.215 C 
ATOM    126  OE1 DVA d          47.667  55.908  86.757  0.00  0.00    -0.274 OA
ATOM    127  NE2 DVA d          49.015  57.356  87.823  0.00  0.00    -0.370 N 
ATOM    128  H33 DVA d          49.792  57.120  87.239  0.00  0.00     0.159 HD
ATOM    129  H34 DVA d          49.120  58.042  88.542  0.00  0.00     0.159 HD
ENDBRANCH 122 125
ENDBRANCH 119 122
ENDBRANCH   1 119
TORSDOF 34
ENDMDL
MODEL 6
REMARK VINA RESULT:      -4.1      2.934     10.585
REMARK WARNING: 32 MAX_TORS EXCEEDED!!!
REMARK  34 active torsions:
REMARK  status: ('A' for Active; 'I' for Inactive)
REMARK    1  A    between atoms: N_1  and  CA_2 
REMARK    2  A    between atoms: CA_2  and  CB_3 
REMARK    3  A    between atoms: CA_2  and  C_6 
REMARK    4  A    between atoms: CB_3  and  CG1_4 
REMARK    5  A    between atoms: CB_3  and  CG2_5 
REMARK       I    between atoms: C_6  and  N_8 
REMARK    6  A    between atoms: CA_9  and  C_13 
REMARK       I    between atoms: C_13  and  N_15 
REMARK    7  A    between atoms: N_15  and  CA_16 
REMARK    8  A    between atoms: CA_16  and  C_17 
REMARK       I    between atoms: C_17  and  N_19 
REMARK    9  A    between atoms: N_19  and  CA_20 
REMARK   10  A    between atoms: CA_20  and  C_21 
REMARK   11  A    between atoms: CA_20  and  CB_23 
REMARK       I    between atoms: C_21  and  N_25 
REMARK   12  A    between atoms: CB_23  and  OG_24 
REMARK   13  A    between atoms: N_25  and  CA_26 
REMARK   14  A    between atoms: CA_26  and  C_27 
REMARK   15  A    between atoms: CA_26  and  CB_29 
REMARK       I    between atoms: C_27  and  N_34 
REMARK   16  A    between atoms: CB_29  and  CG_30 
REMARK   17  A    between atoms: CG_30  and  CD_31 
REMARK       I    between atoms: CD_31  and  NE2_33 
REMARK   18  A    between atoms: N_34  and  CA_35 
REMARK   19  A    between atoms: CA_35  and  C_36 
REMARK   20  A    between atoms: CA_35  and  CB_38 
REMARK       I    between atoms: C_36  and  N_44 
REMARK   21  A    between atoms: CB_38  and  CG_39 
REMARK   22  A    between atoms: N_44  and  CA_45 
REMARK   23  A    between atoms: CA_45  and  C_46 
REMARK   24  A    between atoms: CA_45  and  CB_48 
REMARK       I    between atoms: C_46  and  N_56 
REMARK   25  A    between atoms: CB_48  and  CG_49 
REMARK   26  A    between atoms: CZ_54  and  OH_55 
REMARK   27  A    between atoms: N_56  and  CA_57 
REMARK   28  A    between atoms: CA_57  and  C_58 
REMARK   29  A    between atoms: CA_57  and  CB_60 
REMARK       I    between atoms: C_58  and  N_64 
REMARK   30  A    between atoms: CB_60  and  CG_61 
REMARK   31  A    between atoms: N_64  and  CA_65 
REMARK   32  A    between atoms: CA_65  and  C_66 
REMARK   33  A    between atoms: CA_65  and  CB_69 
REMARK   34  A    between atoms: CB_69  and  OG_70 
ROOT
ATOM      1  CA  DVA d          43.703  53.047  85.190  0.00  0.00     0.090 C 
ATOM      2  H28 DVA d          43.086  52.216  84.815  0.00  0.00     0.087 H 
ENDROOT
BRANCH   1   3
ATOM      3  N   DVA d          44.877  52.499  85.848  0.00  0.00    -0.346 N 
ATOM      4  C   DVA d          45.037  51.189  85.896  0.00  0.00     0.243 C 
ATOM      5  O   DVA d          44.239  50.415  85.392  0.00  0.00    -0.271 OA
ATOM      6  H27 DVA d          45.556  53.108  86.261  0.00  0.00     0.163 HD
BRANCH   4   7
ATOM      7  CA  DVA d          46.254  50.667  86.634  0.00  0.00     0.109 C 
ATOM      8  H23 DVA d          46.010  49.757  87.202  0.00  0.00     0.090 H 
BRANCH   7   9
ATOM      9  N   DVA d          46.708  51.710  87.525  0.00  0.00    -0.344 N 
ATOM     10  C   DVA d          46.340  51.753  88.796  0.00  0.00     0.236 C 
ATOM     11  O   DVA d          45.598  50.917  89.312  0.00  0.00    -0.272 OA
ATOM     12  H22 DVA d          47.317  52.420  87.172  0.00  0.00     0.163 HD
BRANCH  10  13
ATOM     13  CA  DVA d          46.887  52.899  89.607  0.00  0.00     0.069 C 
ATOM     14  H20 DVA d          46.427  52.906  90.607  0.00  0.00     0.078 H 
ATOM     15  H21 DVA d          47.978  52.803  89.707  0.00  0.00     0.078 H 
BRANCH  13  16
ATOM     16  N   DVA d          46.560  54.116  88.905  0.00  0.00    -0.351 N 
ATOM     17  C   DVA d          47.456  54.729  88.143  0.00  0.00     0.241 C 
ATOM     18  O   DVA d          48.603  54.306  87.971  0.00  0.00    -0.271 OA
ATOM     19  H19 DVA d          45.643  54.504  88.994  0.00  0.00     0.163 HD
BRANCH  17  20
ATOM     20  CA  DVA d          46.964  56.007  87.468  0.00  0.00     0.091 C 
ATOM     21  N   DVA d          48.012  56.567  86.602  0.00  0.00    -0.337 N 
ATOM     22  C   DVA d          48.494  56.250  85.372  0.00  0.00     0.251 C 
ATOM     23  CD  DVA d          48.636  57.731  87.262  0.00  0.00    -0.001 C 
ATOM     24  O   DVA d          49.435  56.877  84.870  0.00  0.00    -0.271 OA
ATOM     25  CG  DVA d          48.108  57.635  88.681  0.00  0.00    -0.048 C 
ATOM     26  H17 DVA d          48.323  58.672  86.786  0.00  0.00     0.064 H 
ATOM     27  H18 DVA d          49.734  57.656  87.242  0.00  0.00     0.064 H 
ATOM     28  CB  DVA d          46.726  57.122  88.477  0.00  0.00    -0.036 C 
ATOM     29  H15 DVA d          48.707  56.936  89.282  0.00  0.00     0.035 H 
ATOM     30  H16 DVA d          48.097  58.621  89.168  0.00  0.00     0.035 H 
ATOM     31  H13 DVA d          46.300  56.732  89.413  0.00  0.00     0.036 H 
ATOM     32  H14 DVA d          46.064  57.900  88.068  0.00  0.00     0.036 H 
ATOM     33  H12 DVA d          46.048  55.791  86.898  0.00  0.00     0.087 H 
BRANCH  22  34
ATOM     34  CA  DVA d          47.888  55.055  84.600  0.00  0.00     0.178 C 
ATOM     35  H4  DVA d          46.844  54.947  84.929  0.00  0.00     0.099 H 
BRANCH  34  36
ATOM     36  N   DVA d          48.624  53.813  84.968  0.00  0.00    -0.066 N 
ATOM     37  H1  DVA d          48.085  53.290  85.641  0.00  0.00     0.275 HD
ATOM     38  H2  DVA d          49.516  54.058  85.370  0.00  0.00     0.275 HD
ATOM     39  H3  DVA d          48.769  53.252  84.144  0.00  0.00     0.275 HD
ENDBRANCH  34  36
BRANCH  34  40
ATOM     40  CB  DVA d          47.868  55.221  83.068  0.00  0.00    -0.025 C 
ATOM     41  H5  DVA d          48.840  55.613  82.733  0.00  0.00     0.042 H 
BRANCH  40  42
ATOM     42  CG1 DVA d          47.616  53.882  82.394  0.00  0.00    -0.071 C 
ATOM     43  H6  DVA d          48.131  53.088  82.954  0.00  0.00     0.028 H 
ATOM     44  H7  DVA d          48.000  53.911  81.363  0.00  0.00     0.028 H 
ATOM     45  H8  DVA d          46.535  53.676  82.377  0.00  0.00     0.028 H 
ENDBRANCH  40  42
BRANCH  40  46
ATOM     46  CG2 DVA d          46.766  56.215  82.692  0.00  0.00    -0.071 C 
ATOM     47  H9  DVA d          46.636  56.225  81.600  0.00  0.00     0.028 H 
ATOM     48  H10 DVA d          47.046  57.221  83.038  0.00  0.00     0.028 H 
ATOM     49  H11 DVA d          45.822  55.914  83.170  0.00  0.00     0.028 H 
ENDBRANCH  40  46
ENDBRANCH  34  40
ENDBRANCH  22  34
ENDBRANCH  17  20
ENDBRANCH  13  16
ENDBRANCH  10  13
ENDBRANCH   7   9
BRANCH   7  50
ATOM     50  CB  DVA d          47.323  50.371  85.587  0.00  0.00     0.044 C 
ATOM     51  H24 DVA d          47.835  49.432  85.844  0.00  0.00     0.077 H 
ATOM     52  H25 DVA d          48.053  51.194  85.569  0.00  0.00     0.077 H 
BRANCH  50  53
ATOM     53  OG  DVA d          46.728  50.244  84.306  0.00  0.00    -0.398 OA
ATOM     54  H26 DVA d          45.835  50.566  84.340  0.00  0.00     0.209 HD
ENDBRANCH  50  53
ENDBRANCH   7  50
ENDBRANCH   4   7
ENDBRANCH   1   3
BRANCH   1  55
ATOM     55  C   DVA d          42.871  53.867  86.172  0.00  0.00     0.241 C 
ATOM     56  O   DVA d          41.682  54.110  85.939  0.00  0.00    -0.271 OA
ATOM     57  N   DVA d          43.498  54.293  87.270  0.00  0.00    -0.346 N 
ATOM     58  H35 DVA d          44.454  54.038  87.415  0.00  0.00     0.163 HD
BRANCH  57  59
ATOM     59  CA  DVA d          42.815  55.131  88.279  0.00  0.00     0.094 C 
ATOM     60  H36 DVA d          41.737  54.920  88.217  0.00  0.00     0.088 H 
BRANCH  59  61
ATOM     61  C   DVA d          43.286  54.897  89.685  0.00  0.00     0.241 C 
ATOM     62  O   DVA d          43.521  53.746  90.078  0.00  0.00    -0.271 OA
ATOM     63  N   DVA d          43.388  55.980  90.448  0.00  0.00    -0.346 N 
ATOM     64  H42 DVA d          43.255  56.885  90.045  0.00  0.00     0.163 HD
BRANCH  63  65
ATOM     65  CA  DVA d          43.693  55.857  91.873  0.00  0.00     0.093 C 
ATOM     66  H43 DVA d          44.011  56.848  92.228  0.00  0.00     0.088 H 
BRANCH  65  67
ATOM     67  C   DVA d          42.536  55.415  92.760  0.00  0.00     0.241 C 
ATOM     68  O   DVA d          42.427  54.229  93.084  0.00  0.00    -0.271 OA
ATOM     69  N   DVA d          41.680  56.364  93.133  0.00  0.00    -0.345 N 
ATOM     70  H51 DVA d          41.827  57.301  92.816  0.00  0.00     0.163 HD
BRANCH  69  71
ATOM     71  CA  DVA d          40.526  56.079  93.996  0.00  0.00     0.098 C 
ATOM     72  H52 DVA d          39.864  55.390  93.449  0.00  0.00     0.088 H 
BRANCH  71  73
ATOM     73  C   DVA d          40.889  55.433  95.332  0.00  0.00     0.241 C 
ATOM     74  O   DVA d          41.460  56.072  96.225  0.00  0.00    -0.271 OA
ATOM     75  N   DVA d          40.516  54.156  95.431  0.00  0.00    -0.343 N 
ATOM     76  H55 DVA d          40.074  53.752  94.630  0.00  0.00     0.163 HD
BRANCH  75  77
ATOM     77  CA  DVA d          40.689  53.287  96.598  0.00  0.00     0.116 C 
ATOM     78  H56 DVA d          40.745  53.948  97.476  0.00  0.00     0.093 H 
BRANCH  77  79
ATOM     79  C   DVA d          39.526  52.335  96.833  0.00  0.00     0.198 C 
ATOM     80  O   DVA d          38.451  52.548  96.237  0.00  0.00    -0.646 OA
ATOM     81  OXT DVA d          39.721  51.376  97.616  0.00  0.00    -0.646 OA
ENDBRANCH  77  79
BRANCH  77  82
ATOM     82  CB  DVA d          42.007  52.506  96.527  0.00  0.00     0.045 C 
ATOM     83  H57 DVA d          41.824  51.535  96.042  0.00  0.00     0.077 H 
ATOM     84  H58 DVA d          42.383  52.342  97.548  0.00  0.00     0.077 H 
BRANCH  82  85
ATOM     85  OG  DVA d          42.985  53.221  95.781  0.00  0.00    -0.398 OA
ATOM     86  H59 DVA d          42.565  53.660  95.050  0.00  0.00     0.209 HD
ENDBRANCH  82  85
ENDBRANCH  77  82
ENDBRANCH  75  77
ENDBRANCH  71  73
BRANCH  71  87
ATOM     87  CB  DVA d          39.757  57.365  94.305  0.00  0.00     0.043 C 
ATOM     88  H53 DVA d          39.675  57.472  95.397  0.00  0.00     0.052 H 
ATOM     89  H54 DVA d          38.751  57.288  93.868  0.00  0.00     0.052 H 
BRANCH  87  90
ATOM     90  CG  DVA d          40.432  58.591  93.750  0.00  0.00     0.175 C 
ATOM     91  OD1 DVA d          40.148  58.953  92.587  0.00  0.00    -0.648 OA
ATOM     92  OD2 DVA d          41.231  59.204  94.476  0.00  0.00    -0.648 OA
ENDBRANCH  87  90
ENDBRANCH  71  87
ENDBRANCH  69  71
ENDBRANCH  65  67
BRANCH  65  93
ATOM     93  CB  DVA d          44.868  54.885  92.023  0.00  0.00    -0.014 C 
ATOM     94  H44 DVA d          45.178  54.552  91.022  0.00  0.00     0.043 H 
ATOM     95  H45 DVA d          44.533  54.018  92.611  0.00  0.00     0.043 H 
BRANCH  93  96
ATOM     96  CG  DVA d          46.065  55.513  92.720  0.00  0.00    -0.056 A 
ATOM     97  CD1 DVA d          46.059  55.729  94.101  0.00  0.00    -0.074 A 
ATOM     98  CE1 DVA d          47.140  56.338  94.761  0.00  0.00    -0.051 A 
ATOM     99  H46 DVA d          45.196  55.419  94.679  0.00  0.00     0.084 H 
ATOM    100  CZ  DVA d          48.260  56.732  94.003  0.00  0.00     0.065 A 
ATOM    101  H48 DVA d          47.112  56.501  95.832  0.00  0.00     0.087 H 
ATOM    102  CE2 DVA d          48.285  56.526  92.631  0.00  0.00    -0.051 A 
ATOM    103  CD2 DVA d          47.190  55.919  91.989  0.00  0.00    -0.074 A 
ATOM    104  H49 DVA d          49.149  56.834  92.054  0.00  0.00     0.087 H 
ATOM    105  H47 DVA d          47.218  55.763  90.916  0.00  0.00     0.084 H 
BRANCH 100 106
ATOM    106  OH  DVA d          49.351  57.311  94.611  0.00  0.00    -0.361 OA
ATOM    107  H50 DVA d          49.416  58.220  94.344  0.00  0.00     0.217 HD
ENDBRANCH 100 106
ENDBRANCH  93  96
ENDBRANCH  65  93
ENDBRANCH  63  65
ENDBRANCH  59  61
BRANCH  59 108
ATOM    108  CB  DVA d          43.061  56.623  88.044  0.00  0.00     0.004 C 
ATOM    109  H37 DVA d          43.527  56.743  87.056  0.00  0.00     0.046 H 
ATOM    110  H38 DVA d          43.749  56.985  88.821  0.00  0.00     0.046 H 
BRANCH 108 111
ATOM    111  CG  DVA d          41.824  57.469  88.084  0.00  0.00     0.053 A 
ATOM    112  ND1 DVA d          41.440  58.184  89.201  0.00  0.00    -0.247 NA
ATOM    113  CE1 DVA d          40.329  58.854  88.931  0.00  0.00     0.064 A 
ATOM    114  NE2 DVA d          39.978  58.593  87.678  0.00  0.00    -0.359 N 
ATOM    115  H40 DVA d          39.796  59.508  89.620  0.00  0.00     0.143 H 
ATOM    116  CD2 DVA d          40.898  57.727  87.130  0.00  0.00     0.002 A 
ATOM    117  H41 DVA d          39.152  58.975  87.195  0.00  0.00     0.166 HD
ATOM    118  H39 DVA d          40.883  57.324  86.118  0.00  0.00     0.114 H 
ENDBRANCH 108 111
ENDBRANCH  59 108
ENDBRANCH  57  59
ENDBRANCH   1  55
BRANCH   1 119
ATOM    119  CB  DVA d          44.137  53.916  84.003  0.00  0.00    -0.030 C 
ATOM    120  H29 DVA d          44.901  53.377  83.423  0.00  0.00     0.037 H 
ATOM    121  H30 DVA d          44.562  54.858  84.383  0.00  0.00     0.037 H 
BRANCH 119 122
ATOM    122  CG  DVA d          42.937  54.239  83.080  0.00  0.00     0.011 C 
ATOM    123  H31 DVA d          43.317  54.756  82.187  0.00  0.00     0.047 H 
ATOM    124  H32 DVA d          42.251  54.905  83.626  0.00  0.00     0.047 H 
BRANCH 122 125
ATOM    125  CD  DVA d          42.143  53.003  82.620  0.00  0.00     0.215 C 
ATOM    126  OE1 DVA d          42.641  51.864  82.685  0.00  0.00    -0.274 OA
ATOM    127  NE2 DVA d          40.924  53.219  82.171  0.00  0.00    -0.370 N 
ATOM    128  H33 DVA d          40.364  52.452  81.859  0.00  0.00     0.159 HD
ATOM    129  H34 DVA d          40.560  54.149  82.143  0.00  0.00     0.159 HD
ENDBRANCH 122 125
ENDBRANCH 119 122
ENDBRANCH   1 119
TORSDOF 34
ENDMDL
MODEL 7
REMARK VINA RESULT:      -3.8      2.493      8.446
REMARK WARNING: 32 MAX_TORS EXCEEDED!!!
REMARK  34 active torsions:
REMARK  status: ('A' for Active; 'I' for Inactive)
REMARK    1  A    between atoms: N_1  and  CA_2 
REMARK    2  A    between atoms: CA_2  and  CB_3 
REMARK    3  A    between atoms: CA_2  and  C_6 
REMARK    4  A    between atoms: CB_3  and  CG1_4 
REMARK    5  A    between atoms: CB_3  and  CG2_5 
REMARK       I    between atoms: C_6  and  N_8 
REMARK    6  A    between atoms: CA_9  and  C_13 
REMARK       I    between atoms: C_13  and  N_15 
REMARK    7  A    between atoms: N_15  and  CA_16 
REMARK    8  A    between atoms: CA_16  and  C_17 
REMARK       I    between atoms: C_17  and  N_19 
REMARK    9  A    between atoms: N_19  and  CA_20 
REMARK   10  A    between atoms: CA_20  and  C_21 
REMARK   11  A    between atoms: CA_20  and  CB_23 
REMARK       I    between atoms: C_21  and  N_25 
REMARK   12  A    between atoms: CB_23  and  OG_24 
REMARK   13  A    between atoms: N_25  and  CA_26 
REMARK   14  A    between atoms: CA_26  and  C_27 
REMARK   15  A    between atoms: CA_26  and  CB_29 
REMARK       I    between atoms: C_27  and  N_34 
REMARK   16  A    between atoms: CB_29  and  CG_30 
REMARK   17  A    between atoms: CG_30  and  CD_31 
REMARK       I    between atoms: CD_31  and  NE2_33 
REMARK   18  A    between atoms: N_34  and  CA_35 
REMARK   19  A    between atoms: CA_35  and  C_36 
REMARK   20  A    between atoms: CA_35  and  CB_38 
REMARK       I    between atoms: C_36  and  N_44 
REMARK   21  A    between atoms: CB_38  and  CG_39 
REMARK   22  A    between atoms: N_44  and  CA_45 
REMARK   23  A    between atoms: CA_45  and  C_46 
REMARK   24  A    between atoms: CA_45  and  CB_48 
REMARK       I    between atoms: C_46  and  N_56 
REMARK   25  A    between atoms: CB_48  and  CG_49 
REMARK   26  A    between atoms: CZ_54  and  OH_55 
REMARK   27  A    between atoms: N_56  and  CA_57 
REMARK   28  A    between atoms: CA_57  and  C_58 
REMARK   29  A    between atoms: CA_57  and  CB_60 
REMARK       I    between atoms: C_58  and  N_64 
REMARK   30  A    between atoms: CB_60  and  CG_61 
REMARK   31  A    between atoms: N_64  and  CA_65 
REMARK   32  A    between atoms: CA_65  and  C_66 
REMARK   33  A    between atoms: CA_65  and  CB_69 
REMARK   34  A    between atoms: CB_69  and  OG_70 
ROOT
ATOM      1  CA  DVA d          44.605  55.091  85.892  0.00  0.00     0.090 C 
ATOM      2  H28 DVA d          44.878  56.156  85.846  0.00  0.00     0.087 H 
ENDROOT
BRANCH   1   3
ATOM      3  N   DVA d          43.508  54.928  86.831  0.00  0.00    -0.346 N 
ATOM      4  C   DVA d          43.012  55.994  87.433  0.00  0.00     0.243 C 
ATOM      5  O   DVA d          43.431  57.121  87.218  0.00  0.00    -0.271 OA
ATOM      6  H27 DVA d          43.133  54.020  87.019  0.00  0.00     0.163 HD
BRANCH   4   7
ATOM      7  CA  DVA d          41.898  55.766  88.438  0.00  0.00     0.109 C 
ATOM      8  H23 DVA d          41.635  56.702  88.953  0.00  0.00     0.090 H 
BRANCH   7   9
ATOM      9  N   DVA d          42.361  54.782  89.389  0.00  0.00    -0.344 N 
ATOM     10  C   DVA d          41.911  54.745  90.633  0.00  0.00     0.236 C 
ATOM     11  O   DVA d          41.072  55.533  91.070  0.00  0.00    -0.272 OA
ATOM     12  H22 DVA d          43.042  54.108  89.099  0.00  0.00     0.163 HD
BRANCH  10  13
ATOM     13  CA  DVA d          42.485  53.667  91.515  0.00  0.00     0.069 C 
ATOM     14  H20 DVA d          42.347  52.682  91.044  0.00  0.00     0.078 H 
ATOM     15  H21 DVA d          43.556  53.847  91.682  0.00  0.00     0.078 H 
BRANCH  13  16
ATOM     16  N   DVA d          41.775  53.717  92.770  0.00  0.00    -0.351 N 
ATOM     17  C   DVA d          42.377  53.410  93.910  0.00  0.00     0.241 C 
ATOM     18  O   DVA d          43.565  53.082  93.984  0.00  0.00    -0.271 OA
ATOM     19  H19 DVA d          40.812  53.987  92.780  0.00  0.00     0.163 HD
BRANCH  17  20
ATOM     20  CA  DVA d          41.495  53.506  95.153  0.00  0.00     0.091 C 
ATOM     21  N   DVA d          40.166  54.029  94.800  0.00  0.00    -0.337 N 
ATOM     22  C   DVA d          39.065  53.497  94.210  0.00  0.00     0.251 C 
ATOM     23  CD  DVA d          40.062  55.444  95.209  0.00  0.00    -0.001 C 
ATOM     24  O   DVA d          38.060  54.183  93.988  0.00  0.00    -0.271 OA
ATOM     25  CG  DVA d          41.498  55.804  95.541  0.00  0.00    -0.048 C 
ATOM     26  H17 DVA d          39.412  55.556  96.089  0.00  0.00     0.064 H 
ATOM     27  H18 DVA d          39.677  56.066  94.387  0.00  0.00     0.064 H 
ATOM     28  CB  DVA d          42.017  54.543  96.137  0.00  0.00    -0.036 C 
ATOM     29  H15 DVA d          42.059  56.076  94.635  0.00  0.00     0.035 H 
ATOM     30  H16 DVA d          41.543  56.633  96.263  0.00  0.00     0.035 H 
ATOM     31  H13 DVA d          43.116  54.541  96.178  0.00  0.00     0.036 H 
ATOM     32  H14 DVA d          41.612  54.379  97.147  0.00  0.00     0.036 H 
ATOM     33  H12 DVA d          41.420  52.516  95.627  0.00  0.00     0.087 H 
BRANCH  22  34
ATOM     34  CA  DVA d          39.078  52.016  93.764  0.00  0.00     0.178 C 
ATOM     35  H4  DVA d          40.092  51.628  93.943  0.00  0.00     0.099 H 
BRANCH  34  36
ATOM     36  N   DVA d          38.803  51.944  92.302  0.00  0.00    -0.066 N 
ATOM     37  H1  DVA d          38.744  50.979  92.018  0.00  0.00     0.275 HD
ATOM     38  H2  DVA d          39.548  52.398  91.797  0.00  0.00     0.275 HD
ATOM     39  H3  DVA d          37.930  52.407  92.102  0.00  0.00     0.275 HD
ENDBRANCH  34  36
BRANCH  34  40
ATOM     40  CB  DVA d          38.101  51.103  94.530  0.00  0.00    -0.025 C 
ATOM     41  H5  DVA d          37.111  51.582  94.567  0.00  0.00     0.042 H 
BRANCH  40  42
ATOM     42  CG1 DVA d          37.974  49.759  93.830  0.00  0.00    -0.071 C 
ATOM     43  H6  DVA d          38.392  48.970  94.473  0.00  0.00     0.028 H 
ATOM     44  H7  DVA d          38.527  49.787  92.879  0.00  0.00     0.028 H 
ATOM     45  H8  DVA d          36.913  49.547  93.632  0.00  0.00     0.028 H 
ENDBRANCH  40  42
BRANCH  40  46
ATOM     46  CG2 DVA d          38.621  50.908  95.957  0.00  0.00    -0.071 C 
ATOM     47  H9  DVA d          37.913  50.285  96.524  0.00  0.00     0.028 H 
ATOM     48  H10 DVA d          38.723  51.887  96.447  0.00  0.00     0.028 H 
ATOM     49  H11 DVA d          39.601  50.411  95.924  0.00  0.00     0.028 H 
ENDBRANCH  40  46
ENDBRANCH  34  40
ENDBRANCH  22  34
ENDBRANCH  17  20
ENDBRANCH  13  16
ENDBRANCH  10  13
ENDBRANCH   7   9
BRANCH   7  50
ATOM     50  CB  DVA d          40.699  55.226  87.666  0.00  0.00     0.044 C 
ATOM     51  H24 DVA d          40.666  55.694  86.671  0.00  0.00     0.077 H 
ATOM     52  H25 DVA d          39.776  55.465  88.214  0.00  0.00     0.077 H 
BRANCH  50  53
ATOM     53  OG  DVA d          40.807  53.820  87.519  0.00  0.00    -0.398 OA
ATOM     54  H26 DVA d          40.612  53.581  86.621  0.00  0.00     0.209 HD
ENDBRANCH  50  53
ENDBRANCH   7  50
ENDBRANCH   4   7
ENDBRANCH   1   3
BRANCH   1  55
ATOM     55  C   DVA d          45.825  54.294  86.349  0.00  0.00     0.241 C 
ATOM     56  O   DVA d          46.958  54.775  86.258  0.00  0.00    -0.271 OA
ATOM     57  N   DVA d          45.588  53.076  86.839  0.00  0.00    -0.346 N 
ATOM     58  H35 DVA d          44.643  52.755  86.912  0.00  0.00     0.163 HD
BRANCH  57  59
ATOM     59  CA  DVA d          46.686  52.187  87.276  0.00  0.00     0.094 C 
ATOM     60  H36 DVA d          47.516  52.304  86.564  0.00  0.00     0.088 H 
BRANCH  59  61
ATOM     61  C   DVA d          47.182  52.470  88.664  0.00  0.00     0.241 C 
ATOM     62  O   DVA d          48.358  52.815  88.846  0.00  0.00    -0.271 OA
ATOM     63  N   DVA d          46.299  52.290  89.641  0.00  0.00    -0.346 N 
ATOM     64  H42 DVA d          45.347  52.084  89.417  0.00  0.00     0.163 HD
BRANCH  63  65
ATOM     65  CA  DVA d          46.711  52.391  91.040  0.00  0.00     0.093 C 
ATOM     66  H43 DVA d          47.773  52.109  91.092  0.00  0.00     0.088 H 
BRANCH  65  67
ATOM     67  C   DVA d          46.585  53.773  91.668  0.00  0.00     0.241 C 
ATOM     68  O   DVA d          45.776  54.586  91.211  0.00  0.00    -0.271 OA
ATOM     69  N   DVA d          47.392  54.032  92.695  0.00  0.00    -0.345 N 
ATOM     70  H51 DVA d          48.033  53.327  92.997  0.00  0.00     0.163 HD
BRANCH  69  71
ATOM     71  CA  DVA d          47.369  55.322  93.399  0.00  0.00     0.098 C 
ATOM     72  H52 DVA d          46.694  55.992  92.846  0.00  0.00     0.088 H 
BRANCH  71  73
ATOM     73  C   DVA d          46.879  55.237  94.844  0.00  0.00     0.241 C 
ATOM     74  O   DVA d          46.936  56.212  95.604  0.00  0.00    -0.271 OA
ATOM     75  N   DVA d          46.381  54.043  95.174  0.00  0.00    -0.343 N 
ATOM     76  H55 DVA d          46.407  53.334  94.469  0.00  0.00     0.163 HD
BRANCH  75  77
ATOM     77  CA  DVA d          45.802  53.670  96.465  0.00  0.00     0.116 C 
ATOM     78  H56 DVA d          44.829  53.202  96.251  0.00  0.00     0.093 H 
BRANCH  77  79
ATOM     79  C   DVA d          46.625  52.648  97.236  0.00  0.00     0.198 C 
ATOM     80  O   DVA d          46.033  51.870  98.012  0.00  0.00    -0.646 OA
ATOM     81  OXT DVA d          47.862  52.643  97.039  0.00  0.00    -0.646 OA
ENDBRANCH  77  79
BRANCH  77  82
ATOM     82  CB  DVA d          45.535  54.901  97.340  0.00  0.00     0.045 C 
ATOM     83  H57 DVA d          44.534  54.814  97.788  0.00  0.00     0.077 H 
ATOM     84  H58 DVA d          45.579  55.804  96.713  0.00  0.00     0.077 H 
BRANCH  82  85
ATOM     85  OG  DVA d          46.501  55.009  98.378  0.00  0.00    -0.398 OA
ATOM     86  H59 DVA d          47.329  55.295  98.011  0.00  0.00     0.209 HD
ENDBRANCH  82  85
ENDBRANCH  77  82
ENDBRANCH  75  77
ENDBRANCH  71  73
BRANCH  71  87
ATOM     87  CB  DVA d          48.768  55.940  93.429  0.00  0.00     0.043 C 
ATOM     88  H53 DVA d          49.392  55.367  94.131  0.00  0.00     0.052 H 
ATOM     89  H54 DVA d          48.686  56.981  93.776  0.00  0.00     0.052 H 
BRANCH  87  90
ATOM     90  CG  DVA d          49.433  55.935  92.077  0.00  0.00     0.175 C 
ATOM     91  OD1 DVA d          50.075  54.919  91.732  0.00  0.00    -0.648 OA
ATOM     92  OD2 DVA d          49.302  56.935  91.352  0.00  0.00    -0.648 OA
ENDBRANCH  87  90
ENDBRANCH  71  87
ENDBRANCH  69  71
ENDBRANCH  65  67
BRANCH  65  93
ATOM     93  CB  DVA d          45.897  51.375  91.848  0.00  0.00    -0.014 C 
ATOM     94  H44 DVA d          45.238  50.826  91.160  0.00  0.00     0.043 H 
ATOM     95  H45 DVA d          45.287  51.919  92.584  0.00  0.00     0.043 H 
BRANCH  93  96
ATOM     96  CG  DVA d          46.772  50.374  92.587  0.00  0.00    -0.056 A 
ATOM     97  CD1 DVA d          47.374  49.310  91.907  0.00  0.00    -0.074 A 
ATOM     98  CE1 DVA d          48.158  48.354  92.575  0.00  0.00    -0.051 A 
ATOM     99  H46 DVA d          47.233  49.221  90.836  0.00  0.00     0.084 H 
ATOM    100  CZ  DVA d          48.342  48.481  93.965  0.00  0.00     0.065 A 
ATOM    101  H48 DVA d          48.613  47.534  92.030  0.00  0.00     0.087 H 
ATOM    102  CE2 DVA d          47.752  49.529  94.657  0.00  0.00    -0.051 A 
ATOM    103  CD2 DVA d          46.967  50.473  93.971  0.00  0.00    -0.074 A 
ATOM    104  H49 DVA d          47.895  49.620  95.728  0.00  0.00     0.087 H 
ATOM    105  H47 DVA d          46.508  51.288  94.520  0.00  0.00     0.084 H 
BRANCH 100 106
ATOM    106  OH  DVA d          49.122  47.581  94.657  0.00  0.00    -0.361 OA
ATOM    107  H50 DVA d          49.773  47.213  94.071  0.00  0.00     0.217 HD
ENDBRANCH 100 106
ENDBRANCH  93  96
ENDBRANCH  65  93
ENDBRANCH  63  65
ENDBRANCH  59  61
BRANCH  59 108
ATOM    108  CB  DVA d          46.251  50.721  87.323  0.00  0.00     0.004 C 
ATOM    109  H37 DVA d          45.430  50.629  88.049  0.00  0.00     0.046 H 
ATOM    110  H38 DVA d          47.108  50.119  87.660  0.00  0.00     0.046 H 
BRANCH 108 111
ATOM    111  CG  DVA d          45.779  50.172  86.011  0.00  0.00     0.053 A 
ATOM    112  ND1 DVA d          46.209  50.664  84.794  0.00  0.00    -0.247 NA
ATOM    113  CE1 DVA d          45.646  49.968  83.817  0.00  0.00     0.064 A 
ATOM    114  NE2 DVA d          44.863  49.044  84.360  0.00  0.00    -0.359 N 
ATOM    115  H40 DVA d          45.800  50.125  82.750  0.00  0.00     0.143 H 
ATOM    116  CD2 DVA d          44.930  49.155  85.732  0.00  0.00     0.002 A 
ATOM    117  H41 DVA d          44.298  48.356  83.842  0.00  0.00     0.166 HD
ATOM    118  H39 DVA d          44.398  48.540  86.456  0.00  0.00     0.114 H 
ENDBRANCH 108 111
ENDBRANCH  59 108
ENDBRANCH  57  59
ENDBRANCH   1  55
BRANCH   1 119
ATOM    119  CB  DVA d          44.160  54.634  84.497  0.00  0.00    -0.030 C 
ATOM    120  H29 DVA d          44.918  53.950  84.085  0.00  0.00     0.037 H 
ATOM    121  H30 DVA d          44.065  55.514  83.844  0.00  0.00     0.037 H 
BRANCH 119 122
ATOM    122  CG  DVA d          42.798  53.900  84.560  0.00  0.00     0.011 C 
ATOM    123  H31 DVA d          42.040  54.539  84.084  0.00  0.00     0.047 H 
ATOM    124  H32 DVA d          42.537  53.748  85.618  0.00  0.00     0.047 H 
BRANCH 122 125
ATOM    125  CD  DVA d          42.785  52.531  83.857  0.00  0.00     0.215 C 
ATOM    126  OE1 DVA d          43.113  52.424  82.662  0.00  0.00    -0.274 OA
ATOM    127  NE2 DVA d          42.421  51.498  84.588  0.00  0.00    -0.370 N 
ATOM    128  H33 DVA d          42.394  50.584  84.183  0.00  0.00     0.159 HD
ATOM    129  H34 DVA d          42.172  51.627  85.548  0.00  0.00     0.159 HD
ENDBRANCH 122 125
ENDBRANCH 119 122
ENDBRANCH   1 119
TORSDOF 34
ENDMDL
MODEL 8
REMARK VINA RESULT:      -3.7      2.803     10.235
REMARK WARNING: 32 MAX_TORS EXCEEDED!!!
REMARK  34 active torsions:
REMARK  status: ('A' for Active; 'I' for Inactive)
REMARK    1  A    between atoms: N_1  and  CA_2 
REMARK    2  A    between atoms: CA_2  and  CB_3 
REMARK    3  A    between atoms: CA_2  and  C_6 
REMARK    4  A    between atoms: CB_3  and  CG1_4 
REMARK    5  A    between atoms: CB_3  and  CG2_5 
REMARK       I    between atoms: C_6  and  N_8 
REMARK    6  A    between atoms: CA_9  and  C_13 
REMARK       I    between atoms: C_13  and  N_15 
REMARK    7  A    between atoms: N_15  and  CA_16 
REMARK    8  A    between atoms: CA_16  and  C_17 
REMARK       I    between atoms: C_17  and  N_19 
REMARK    9  A    between atoms: N_19  and  CA_20 
REMARK   10  A    between atoms: CA_20  and  C_21 
REMARK   11  A    between atoms: CA_20  and  CB_23 
REMARK       I    between atoms: C_21  and  N_25 
REMARK   12  A    between atoms: CB_23  and  OG_24 
REMARK   13  A    between atoms: N_25  and  CA_26 
REMARK   14  A    between atoms: CA_26  and  C_27 
REMARK   15  A    between atoms: CA_26  and  CB_29 
REMARK       I    between atoms: C_27  and  N_34 
REMARK   16  A    between atoms: CB_29  and  CG_30 
REMARK   17  A    between atoms: CG_30  and  CD_31 
REMARK       I    between atoms: CD_31  and  NE2_33 
REMARK   18  A    between atoms: N_34  and  CA_35 
REMARK   19  A    between atoms: CA_35  and  C_36 
REMARK   20  A    between atoms: CA_35  and  CB_38 
REMARK       I    between atoms: C_36  and  N_44 
REMARK   21  A    between atoms: CB_38  and  CG_39 
REMARK   22  A    between atoms: N_44  and  CA_45 
REMARK   23  A    between atoms: CA_45  and  C_46 
REMARK   24  A    between atoms: CA_45  and  CB_48 
REMARK       I    between atoms: C_46  and  N_56 
REMARK   25  A    between atoms: CB_48  and  CG_49 
REMARK   26  A    between atoms: CZ_54  and  OH_55 
REMARK   27  A    between atoms: N_56  and  CA_57 
REMARK   28  A    between atoms: CA_57  and  C_58 
REMARK   29  A    between atoms: CA_57  and  CB_60 
REMARK       I    between atoms: C_58  and  N_64 
REMARK   30  A    between atoms: CB_60  and  CG_61 
REMARK   31  A    between atoms: N_64  and  CA_65 
REMARK   32  A    between atoms: CA_65  and  C_66 
REMARK   33  A    between atoms: CA_65  and  CB_69 
REMARK   34  A    between atoms: CB_69  and  OG_70 
ROOT
ATOM      1  CA  DVA d          42.528  54.519  87.959  0.00  0.00     0.090 C 
ATOM      2  H28 DVA d          41.610  54.659  87.368  0.00  0.00     0.087 H 
ENDROOT
BRANCH   1   3
ATOM      3  N   DVA d          43.208  53.322  87.492  0.00  0.00    -0.346 N 
ATOM      4  C   DVA d          43.366  53.135  86.194  0.00  0.00     0.243 C 
ATOM      5  O   DVA d          42.974  53.941  85.366  0.00  0.00    -0.271 OA
ATOM      6  H27 DVA d          43.551  52.647  88.147  0.00  0.00     0.163 HD
BRANCH   4   7
ATOM      7  CA  DVA d          44.040  51.848  85.758  0.00  0.00     0.109 C 
ATOM      8  H23 DVA d          43.853  51.041  86.481  0.00  0.00     0.090 H 
BRANCH   7   9
ATOM      9  N   DVA d          45.457  52.110  85.650  0.00  0.00    -0.344 N 
ATOM     10  C   DVA d          46.363  51.205  85.984  0.00  0.00     0.236 C 
ATOM     11  O   DVA d          46.074  50.083  86.402  0.00  0.00    -0.272 OA
ATOM     12  H22 DVA d          45.762  53.001  85.314  0.00  0.00     0.163 HD
BRANCH  10  13
ATOM     13  CA  DVA d          47.803  51.616  85.824  0.00  0.00     0.069 C 
ATOM     14  H20 DVA d          48.127  52.202  86.698  0.00  0.00     0.078 H 
ATOM     15  H21 DVA d          48.440  50.725  85.723  0.00  0.00     0.078 H 
BRANCH  13  16
ATOM     16  N   DVA d          47.889  52.422  84.631  0.00  0.00    -0.351 N 
ATOM     17  C   DVA d          49.062  52.798  84.141  0.00  0.00     0.241 C 
ATOM     18  O   DVA d          50.143  52.482  84.649  0.00  0.00    -0.271 OA
ATOM     19  H19 DVA d          47.049  52.701  84.165  0.00  0.00     0.163 HD
BRANCH  17  20
ATOM     20  CA  DVA d          48.991  53.650  82.876  0.00  0.00     0.091 C 
ATOM     21  N   DVA d          47.591  53.866  82.480  0.00  0.00    -0.337 N 
ATOM     22  C   DVA d          46.592  54.669  82.930  0.00  0.00     0.251 C 
ATOM     23  CD  DVA d          47.257  52.998  81.334  0.00  0.00    -0.001 C 
ATOM     24  O   DVA d          45.461  54.629  82.431  0.00  0.00    -0.271 OA
ATOM     25  CG  DVA d          48.439  52.049  81.275  0.00  0.00    -0.048 C 
ATOM     26  H17 DVA d          47.172  53.583  80.406  0.00  0.00     0.064 H 
ATOM     27  H18 DVA d          46.318  52.452  81.510  0.00  0.00     0.064 H 
ATOM     28  CB  DVA d          49.575  52.925  81.673  0.00  0.00    -0.036 C 
ATOM     29  H15 DVA d          48.314  51.215  81.981  0.00  0.00     0.035 H 
ATOM     30  H16 DVA d          48.580  51.652  80.259  0.00  0.00     0.035 H 
ATOM     31  H13 DVA d          50.460  52.333  81.951  0.00  0.00     0.036 H 
ATOM     32  H14 DVA d          49.842  53.628  80.869  0.00  0.00     0.036 H 
ATOM     33  H12 DVA d          49.508  54.606  83.049  0.00  0.00     0.087 H 
BRANCH  22  34
ATOM     34  CA  DVA d          46.857  55.624  84.118  0.00  0.00     0.178 C 
ATOM     35  H4  DVA d          47.688  55.199  84.702  0.00  0.00     0.099 H 
BRANCH  34  36
ATOM     36  N   DVA d          45.649  55.666  84.989  0.00  0.00    -0.066 N 
ATOM     37  H1  DVA d          45.214  54.756  85.004  0.00  0.00     0.275 HD
ATOM     38  H2  DVA d          44.997  56.344  84.626  0.00  0.00     0.275 HD
ATOM     39  H3  DVA d          45.918  55.925  85.925  0.00  0.00     0.275 HD
ENDBRANCH  34  36
BRANCH  34  40
ATOM     40  CB  DVA d          47.268  57.054  83.717  0.00  0.00    -0.025 C 
ATOM     41  H5  DVA d          48.318  57.223  83.999  0.00  0.00     0.042 H 
BRANCH  40  42
ATOM     42  CG1 DVA d          47.123  57.243  82.215  0.00  0.00    -0.071 C 
ATOM     43  H6  DVA d          47.798  56.551  81.692  0.00  0.00     0.028 H 
ATOM     44  H7  DVA d          47.381  58.279  81.948  0.00  0.00     0.028 H 
ATOM     45  H8  DVA d          46.084  57.036  81.918  0.00  0.00     0.028 H 
ENDBRANCH  40  42
BRANCH  40  46
ATOM     46  CG2 DVA d          46.378  58.052  84.462  0.00  0.00    -0.071 C 
ATOM     47  H9  DVA d          45.355  57.653  84.528  0.00  0.00     0.028 H 
ATOM     48  H10 DVA d          46.365  59.009  83.918  0.00  0.00     0.028 H 
ATOM     49  H11 DVA d          46.775  58.212  85.474  0.00  0.00     0.028 H 
ENDBRANCH  40  46
ENDBRANCH  34  40
ENDBRANCH  22  34
ENDBRANCH  17  20
ENDBRANCH  13  16
ENDBRANCH  10  13
ENDBRANCH   7   9
BRANCH   7  50
ATOM     50  CB  DVA d          43.469  51.483  84.391  0.00  0.00     0.044 C 
ATOM     51  H24 DVA d          43.880  50.513  84.073  0.00  0.00     0.077 H 
ATOM     52  H25 DVA d          43.749  52.257  83.661  0.00  0.00     0.077 H 
BRANCH  50  53
ATOM     53  OG  DVA d          42.056  51.393  84.462  0.00  0.00    -0.398 OA
ATOM     54  H26 DVA d          41.681  52.264  84.412  0.00  0.00     0.209 HD
ENDBRANCH  50  53
ENDBRANCH   7  50
ENDBRANCH   4   7
ENDBRANCH   1   3
BRANCH   1  55
ATOM     55  C   DVA d          42.146  54.380  89.430  0.00  0.00     0.241 C 
ATOM     56  O   DVA d          41.570  55.300  90.018  0.00  0.00    -0.271 OA
ATOM     57  N   DVA d          42.467  53.228  90.020  0.00  0.00    -0.346 N 
ATOM     58  H35 DVA d          42.908  52.510  89.481  0.00  0.00     0.163 HD
BRANCH  57  59
ATOM     59  CA  DVA d          42.189  52.985  91.452  0.00  0.00     0.094 C 
ATOM     60  H36 DVA d          42.206  51.898  91.618  0.00  0.00     0.088 H 
BRANCH  59  61
ATOM     61  C   DVA d          43.167  53.642  92.383  0.00  0.00     0.241 C 
ATOM     62  O   DVA d          42.760  54.247  93.385  0.00  0.00    -0.271 OA
ATOM     63  N   DVA d          44.445  53.554  92.034  0.00  0.00    -0.346 N 
ATOM     64  H42 DVA d          44.709  52.987  91.254  0.00  0.00     0.163 HD
BRANCH  63  65
ATOM     65  CA  DVA d          45.470  54.280  92.783  0.00  0.00     0.093 C 
ATOM     66  H43 DVA d          45.044  54.531  93.766  0.00  0.00     0.088 H 
BRANCH  65  67
ATOM     67  C   DVA d          46.765  53.520  93.039  0.00  0.00     0.241 C 
ATOM     68  O   DVA d          47.696  54.071  93.634  0.00  0.00    -0.271 OA
ATOM     69  N   DVA d          46.819  52.271  92.578  0.00  0.00    -0.345 N 
ATOM     70  H51 DVA d          46.029  51.900  92.091  0.00  0.00     0.163 HD
BRANCH  69  71
ATOM     71  CA  DVA d          48.004  51.422  92.763  0.00  0.00     0.098 C 
ATOM     72  H52 DVA d          48.813  52.060  93.150  0.00  0.00     0.088 H 
BRANCH  71  73
ATOM     73  C   DVA d          47.797  50.267  93.742  0.00  0.00     0.241 C 
ATOM     74  O   DVA d          48.644  49.374  93.874  0.00  0.00    -0.271 OA
ATOM     75  N   DVA d          46.654  50.338  94.426  0.00  0.00    -0.343 N 
ATOM     76  H55 DVA d          46.049  51.106  94.213  0.00  0.00     0.163 HD
BRANCH  75  77
ATOM     77  CA  DVA d          46.198  49.405  95.457  0.00  0.00     0.116 C 
ATOM     78  H56 DVA d          45.482  49.955  96.086  0.00  0.00     0.093 H 
BRANCH  77  79
ATOM     79  C   DVA d          45.463  48.191  94.907  0.00  0.00     0.198 C 
ATOM     80  O   DVA d          44.373  47.870  95.422  0.00  0.00    -0.646 OA
ATOM     81  OXT DVA d          45.999  47.581  93.952  0.00  0.00    -0.646 OA
ENDBRANCH  77  79
BRANCH  77  82
ATOM     82  CB  DVA d          47.353  48.958  96.362  0.00  0.00     0.045 C 
ATOM     83  H57 DVA d          47.335  49.553  97.288  0.00  0.00     0.077 H 
ATOM     84  H58 DVA d          48.306  49.123  95.838  0.00  0.00     0.077 H 
BRANCH  82  85
ATOM     85  OG  DVA d          47.238  47.580  96.694  0.00  0.00    -0.398 OA
ATOM     86  H59 DVA d          46.596  47.474  97.387  0.00  0.00     0.209 HD
ENDBRANCH  82  85
ENDBRANCH  77  82
ENDBRANCH  75  77
ENDBRANCH  71  73
BRANCH  71  87
ATOM     87  CB  DVA d          48.442  50.816  91.429  0.00  0.00     0.043 C 
ATOM     88  H53 DVA d          49.241  50.084  91.620  0.00  0.00     0.052 H 
ATOM     89  H54 DVA d          48.828  51.622  90.787  0.00  0.00     0.052 H 
BRANCH  87  90
ATOM     90  CG  DVA d          47.315  50.124  90.708  0.00  0.00     0.175 C 
ATOM     91  OD1 DVA d          47.263  48.875  90.742  0.00  0.00    -0.648 OA
ATOM     92  OD2 DVA d          46.473  50.824  90.122  0.00  0.00    -0.648 OA
ENDBRANCH  87  90
ENDBRANCH  71  87
ENDBRANCH  69  71
ENDBRANCH  65  67
BRANCH  65  93
ATOM     93  CB  DVA d          45.769  55.583  92.035  0.00  0.00    -0.014 C 
ATOM     94  H44 DVA d          46.445  56.195  92.650  0.00  0.00     0.043 H 
ATOM     95  H45 DVA d          44.823  56.125  91.881  0.00  0.00     0.043 H 
BRANCH  93  96
ATOM     96  CG  DVA d          46.421  55.349  90.681  0.00  0.00    -0.056 A 
ATOM     97  CD1 DVA d          47.446  56.184  90.225  0.00  0.00    -0.074 A 
ATOM     98  CE1 DVA d          48.039  56.007  88.963  0.00  0.00    -0.051 A 
ATOM     99  H46 DVA d          47.793  56.990  90.862  0.00  0.00     0.084 H 
ATOM    100  CZ  DVA d          47.587  54.953  88.145  0.00  0.00     0.065 A 
ATOM    101  H48 DVA d          48.830  56.668  88.626  0.00  0.00     0.087 H 
ATOM    102  CE2 DVA d          46.571  54.115  88.580  0.00  0.00    -0.051 A 
ATOM    103  CD2 DVA d          45.987  54.312  89.844  0.00  0.00    -0.074 A 
ATOM    104  H49 DVA d          46.226  53.308  87.944  0.00  0.00     0.087 H 
ATOM    105  H47 DVA d          45.192  53.652  90.175  0.00  0.00     0.084 H 
BRANCH 100 106
ATOM    106  OH  DVA d          48.156  54.728  86.911  0.00  0.00    -0.361 OA
ATOM    107  H50 DVA d          47.865  55.398  86.303  0.00  0.00     0.217 HD
ENDBRANCH 100 106
ENDBRANCH  93  96
ENDBRANCH  65  93
ENDBRANCH  63  65
ENDBRANCH  59  61
BRANCH  59 108
ATOM    108  CB  DVA d          40.831  53.548  91.875  0.00  0.00     0.004 C 
ATOM    109  H37 DVA d          40.344  53.975  90.986  0.00  0.00     0.046 H 
ATOM    110  H38 DVA d          41.003  54.343  92.616  0.00  0.00     0.046 H 
BRANCH 108 111
ATOM    111  CG  DVA d          39.902  52.539  92.479  0.00  0.00     0.053 A 
ATOM    112  ND1 DVA d          40.163  51.901  93.675  0.00  0.00    -0.247 NA
ATOM    113  CE1 DVA d          39.156  51.090  93.967  0.00  0.00     0.064 A 
ATOM    114  NE2 DVA d          38.253  51.178  92.998  0.00  0.00    -0.359 N 
ATOM    115  H40 DVA d          39.082  50.459  94.852  0.00  0.00     0.143 H 
ATOM    116  CD2 DVA d          38.701  52.078  92.056  0.00  0.00     0.002 A 
ATOM    117  H41 DVA d          37.365  50.659  92.957  0.00  0.00     0.166 HD
ATOM    118  H39 DVA d          38.185  52.365  91.140  0.00  0.00     0.114 H 
ENDBRANCH 108 111
ENDBRANCH  59 108
ENDBRANCH  57  59
ENDBRANCH   1  55
BRANCH   1 119
ATOM    119  CB  DVA d          43.438  55.738  87.757  0.00  0.00    -0.030 C 
ATOM    120  H29 DVA d          44.344  55.424  87.217  0.00  0.00     0.037 H 
ATOM    121  H30 DVA d          43.718  56.144  88.740  0.00  0.00     0.037 H 
BRANCH 119 122
ATOM    122  CG  DVA d          42.719  56.839  86.940  0.00  0.00     0.011 C 
ATOM    123  H31 DVA d          42.313  56.382  86.026  0.00  0.00     0.047 H 
ATOM    124  H32 DVA d          43.460  57.606  86.667  0.00  0.00     0.047 H 
BRANCH 122 125
ATOM    125  CD  DVA d          41.565  57.529  87.689  0.00  0.00     0.215 C 
ATOM    126  OE1 DVA d          40.407  57.512  87.232  0.00  0.00    -0.274 OA
ATOM    127  NE2 DVA d          41.870  58.118  88.826  0.00  0.00    -0.370 N 
ATOM    128  H33 DVA d          41.159  58.582  89.355  0.00  0.00     0.159 HD
ATOM    129  H34 DVA d          42.811  58.102  89.161  0.00  0.00     0.159 HD
ENDBRANCH 122 125
ENDBRANCH 119 122
ENDBRANCH   1 119
TORSDOF 34
ENDMDL
MODEL 9
REMARK VINA RESULT:      -3.3      2.572      5.974
REMARK WARNING: 32 MAX_TORS EXCEEDED!!!
REMARK  34 active torsions:
REMARK  status: ('A' for Active; 'I' for Inactive)
REMARK    1  A    between atoms: N_1  and  CA_2 
REMARK    2  A    between atoms: CA_2  and  CB_3 
REMARK    3  A    between atoms: CA_2  and  C_6 
REMARK    4  A    between atoms: CB_3  and  CG1_4 
REMARK    5  A    between atoms: CB_3  and  CG2_5 
REMARK       I    between atoms: C_6  and  N_8 
REMARK    6  A    between atoms: CA_9  and  C_13 
REMARK       I    between atoms: C_13  and  N_15 
REMARK    7  A    between atoms: N_15  and  CA_16 
REMARK    8  A    between atoms: CA_16  and  C_17 
REMARK       I    between atoms: C_17  and  N_19 
REMARK    9  A    between atoms: N_19  and  CA_20 
REMARK   10  A    between atoms: CA_20  and  C_21 
REMARK   11  A    between atoms: CA_20  and  CB_23 
REMARK       I    between atoms: C_21  and  N_25 
REMARK   12  A    between atoms: CB_23  and  OG_24 
REMARK   13  A    between atoms: N_25  and  CA_26 
REMARK   14  A    between atoms: CA_26  and  C_27 
REMARK   15  A    between atoms: CA_26  and  CB_29 
REMARK       I    between atoms: C_27  and  N_34 
REMARK   16  A    between atoms: CB_29  and  CG_30 
REMARK   17  A    between atoms: CG_30  and  CD_31 
REMARK       I    between atoms: CD_31  and  NE2_33 
REMARK   18  A    between atoms: N_34  and  CA_35 
REMARK   19  A    between atoms: CA_35  and  C_36 
REMARK   20  A    between atoms: CA_35  and  CB_38 
REMARK       I    between atoms: C_36  and  N_44 
REMARK   21  A    between atoms: CB_38  and  CG_39 
REMARK   22  A    between atoms: N_44  and  CA_45 
REMARK   23  A    between atoms: CA_45  and  C_46 
REMARK   24  A    between atoms: CA_45  and  CB_48 
REMARK       I    between atoms: C_46  and  N_56 
REMARK   25  A    between atoms: CB_48  and  CG_49 
REMARK   26  A    between atoms: CZ_54  and  OH_55 
REMARK   27  A    between atoms: N_56  and  CA_57 
REMARK   28  A    between atoms: CA_57  and  C_58 
REMARK   29  A    between atoms: CA_57  and  CB_60 
REMARK       I    between atoms: C_58  and  N_64 
REMARK   30  A    between atoms: CB_60  and  CG_61 
REMARK   31  A    between atoms: N_64  and  CA_65 
REMARK   32  A    between atoms: CA_65  and  C_66 
REMARK   33  A    between atoms: CA_65  and  CB_69 
REMARK   34  A    between atoms: CB_69  and  OG_70 
ROOT
ATOM      1  CA  DVA d          44.086  56.538  94.972  0.00  0.00     0.090 C 
ATOM      2  H28 DVA d          44.888  57.292  94.970  0.00  0.00     0.087 H 
ENDROOT
BRANCH   1   3
ATOM      3  N   DVA d          44.434  55.486  95.913  0.00  0.00    -0.346 N 
ATOM      4  C   DVA d          43.472  54.755  96.447  0.00  0.00     0.243 C 
ATOM      5  O   DVA d          42.295  54.920  96.168  0.00  0.00    -0.271 OA
ATOM      6  H27 DVA d          45.390  55.317  96.154  0.00  0.00     0.163 HD
BRANCH   4   7
ATOM      7  CA  DVA d          43.883  53.701  97.458  0.00  0.00     0.109 C 
ATOM      8  H23 DVA d          44.664  53.046  97.046  0.00  0.00     0.090 H 
BRANCH   7   9
ATOM      9  N   DVA d          42.706  52.932  97.792  0.00  0.00    -0.344 N 
ATOM     10  C   DVA d          42.520  51.704  97.336  0.00  0.00     0.236 C 
ATOM     11  O   DVA d          43.325  51.126  96.605  0.00  0.00    -0.272 OA
ATOM     12  H22 DVA d          42.012  53.340  98.386  0.00  0.00     0.163 HD
BRANCH  10  13
ATOM     13  CA  DVA d          41.246  51.022  97.764  0.00  0.00     0.069 C 
ATOM     14  H20 DVA d          41.378  49.930  97.742  0.00  0.00     0.078 H 
ATOM     15  H21 DVA d          40.974  51.338  98.782  0.00  0.00     0.078 H 
BRANCH  13  16
ATOM     16  N   DVA d          40.217  51.414  96.834  0.00  0.00    -0.351 N 
ATOM     17  C   DVA d          39.429  52.452  97.081  0.00  0.00     0.241 C 
ATOM     18  O   DVA d          39.525  53.151  98.094  0.00  0.00    -0.271 OA
ATOM     19  H19 DVA d          40.095  50.895  95.987  0.00  0.00     0.163 HD
BRANCH  17  20
ATOM     20  CA  DVA d          38.384  52.740  96.005  0.00  0.00     0.091 C 
ATOM     21  N   DVA d          38.844  53.821  95.120  0.00  0.00    -0.337 N 
ATOM     22  C   DVA d          39.737  53.894  94.099  0.00  0.00     0.251 C 
ATOM     23  CD  DVA d          38.141  55.075  95.456  0.00  0.00    -0.001 C 
ATOM     24  O   DVA d          39.973  54.966  93.528  0.00  0.00    -0.271 OA
ATOM     25  CG  DVA d          37.473  54.741  96.776  0.00  0.00    -0.048 C 
ATOM     26  H17 DVA d          37.395  55.329  94.688  0.00  0.00     0.064 H 
ATOM     27  H18 DVA d          38.850  55.909  95.570  0.00  0.00     0.064 H 
ATOM     28  CB  DVA d          37.104  53.310  96.599  0.00  0.00    -0.036 C 
ATOM     29  H15 DVA d          38.169  54.871  97.618  0.00  0.00     0.035 H 
ATOM     30  H16 DVA d          36.581  55.364  96.939  0.00  0.00     0.035 H 
ATOM     31  H13 DVA d          36.862  52.836  97.562  0.00  0.00     0.036 H 
ATOM     32  H14 DVA d          36.255  53.196  95.909  0.00  0.00     0.036 H 
ATOM     33  H12 DVA d          38.179  51.820  95.437  0.00  0.00     0.087 H 
BRANCH  22  34
ATOM     34  CA  DVA d          40.509  52.625  93.667  0.00  0.00     0.178 C 
ATOM     35  H4  DVA d          40.390  51.881  94.468  0.00  0.00     0.099 H 
BRANCH  34  36
ATOM     36  N   DVA d          41.957  52.953  93.545  0.00  0.00    -0.066 N 
ATOM     37  H1  DVA d          42.069  53.767  92.962  0.00  0.00     0.275 HD
ATOM     38  H2  DVA d          42.444  52.173  93.131  0.00  0.00     0.275 HD
ATOM     39  H3  DVA d          42.337  53.139  94.460  0.00  0.00     0.275 HD
ENDBRANCH  34  36
BRANCH  34  40
ATOM     40  CB  DVA d          40.003  51.975  92.364  0.00  0.00    -0.025 C 
ATOM     41  H5  DVA d          39.989  50.882  92.485  0.00  0.00     0.042 H 
BRANCH  40  42
ATOM     42  CG1 DVA d          38.596  52.455  92.046  0.00  0.00    -0.071 C 
ATOM     43  H6  DVA d          38.302  53.231  92.768  0.00  0.00     0.028 H 
ATOM     44  H7  DVA d          37.896  51.609  92.113  0.00  0.00     0.028 H 
ATOM     45  H8  DVA d          38.572  52.872  91.028  0.00  0.00     0.028 H 
ENDBRANCH  40  42
BRANCH  40  46
ATOM     46  CG2 DVA d          40.956  52.345  91.225  0.00  0.00    -0.071 C 
ATOM     47  H9  DVA d          41.390  53.338  91.416  0.00  0.00     0.028 H 
ATOM     48  H10 DVA d          40.403  52.363  90.275  0.00  0.00     0.028 H 
ATOM     49  H11 DVA d          41.762  51.599  91.165  0.00  0.00     0.028 H 
ENDBRANCH  40  46
ENDBRANCH  34  40
ENDBRANCH  22  34
ENDBRANCH  17  20
ENDBRANCH  13  16
ENDBRANCH  10  13
ENDBRANCH   7   9
BRANCH   7  50
ATOM     50  CB  DVA d          44.397  54.437  98.691  0.00  0.00     0.044 C 
ATOM     51  H24 DVA d          45.493  54.519  98.635  0.00  0.00     0.077 H 
ATOM     52  H25 DVA d          44.117  53.873  99.593  0.00  0.00     0.077 H 
BRANCH  50  53
ATOM     53  OG  DVA d          43.833  55.736  98.754  0.00  0.00    -0.398 OA
ATOM     54  H26 DVA d          42.888  55.673  98.684  0.00  0.00     0.209 HD
ENDBRANCH  50  53
ENDBRANCH   7  50
ENDBRANCH   4   7
ENDBRANCH   1   3
BRANCH   1  55
ATOM     55  C   DVA d          43.946  55.971  93.562  0.00  0.00     0.241 C 
ATOM     56  O   DVA d          44.138  54.770  93.346  0.00  0.00    -0.271 OA
ATOM     57  N   DVA d          43.613  56.838  92.605  0.00  0.00    -0.346 N 
ATOM     58  H35 DVA d          43.443  57.793  92.849  0.00  0.00     0.163 HD
BRANCH  57  59
ATOM     59  CA  DVA d          43.487  56.423  91.190  0.00  0.00     0.094 C 
ATOM     60  H36 DVA d          43.507  57.332  90.571  0.00  0.00     0.088 H 
BRANCH  59  61
ATOM     61  C   DVA d          44.567  55.488  90.731  0.00  0.00     0.241 C 
ATOM     62  O   DVA d          45.679  55.931  90.411  0.00  0.00    -0.271 OA
ATOM     63  N   DVA d          44.230  54.204  90.666  0.00  0.00    -0.346 N 
ATOM     64  H42 DVA d          43.341  53.906  91.011  0.00  0.00     0.163 HD
BRANCH  63  65
ATOM     65  CA  DVA d          45.152  53.224  90.093  0.00  0.00     0.093 C 
ATOM     66  H43 DVA d          44.646  52.248  90.106  0.00  0.00     0.088 H 
BRANCH  65  67
ATOM     67  C   DVA d          45.582  53.484  88.655  0.00  0.00     0.241 C 
ATOM     68  O   DVA d          46.764  53.340  88.330  0.00  0.00    -0.271 OA
ATOM     69  N   DVA d          44.627  53.874  87.813  0.00  0.00    -0.345 N 
ATOM     70  H51 DVA d          43.694  53.984  88.156  0.00  0.00     0.163 HD
BRANCH  69  71
ATOM     71  CA  DVA d          44.900  54.150  86.396  0.00  0.00     0.098 C 
ATOM     72  H52 DVA d          45.988  54.275  86.285  0.00  0.00     0.088 H 
BRANCH  71  73
ATOM     73  C   DVA d          44.448  53.043  85.446  0.00  0.00     0.241 C 
ATOM     74  O   DVA d          43.273  52.654  85.419  0.00  0.00    -0.271 OA
ATOM     75  N   DVA d          45.422  52.574  84.663  0.00  0.00    -0.343 N 
ATOM     76  H55 DVA d          46.333  52.964  84.795  0.00  0.00     0.163 HD
BRANCH  75  77
ATOM     77  CA  DVA d          45.288  51.545  83.630  0.00  0.00     0.116 C 
ATOM     78  H56 DVA d          45.967  51.829  82.813  0.00  0.00     0.093 H 
BRANCH  77  79
ATOM     79  C   DVA d          45.704  50.155  84.089  0.00  0.00     0.198 C 
ATOM     80  O   DVA d          46.393  49.455  83.320  0.00  0.00    -0.646 OA
ATOM     81  OXT DVA d          45.331  49.793  85.229  0.00  0.00    -0.646 OA
ENDBRANCH  77  79
BRANCH  77  82
ATOM     82  CB  DVA d          43.867  51.508  83.053  0.00  0.00     0.045 C 
ATOM     83  H57 DVA d          43.869  51.985  82.061  0.00  0.00     0.077 H 
ATOM     84  H58 DVA d          43.192  52.059  83.724  0.00  0.00     0.077 H 
BRANCH  82  85
ATOM     85  OG  DVA d          43.403  50.170  82.924  0.00  0.00    -0.398 OA
ATOM     86  H59 DVA d          42.968  50.066  82.086  0.00  0.00     0.209 HD
ENDBRANCH  82  85
ENDBRANCH  77  82
ENDBRANCH  75  77
ENDBRANCH  71  73
BRANCH  71  87
ATOM     87  CB  DVA d          44.204  55.440  85.957  0.00  0.00     0.043 C 
ATOM     88  H53 DVA d          43.116  55.302  86.052  0.00  0.00     0.052 H 
ATOM     89  H54 DVA d          44.459  55.637  84.906  0.00  0.00     0.052 H 
BRANCH  87  90
ATOM     90  CG  DVA d          44.613  56.630  86.784  0.00  0.00     0.175 C 
ATOM     91  OD1 DVA d          43.754  57.500  87.044  0.00  0.00    -0.648 OA
ATOM     92  OD2 DVA d          45.786  56.691  87.189  0.00  0.00    -0.648 OA
ENDBRANCH  87  90
ENDBRANCH  71  87
ENDBRANCH  69  71
ENDBRANCH  65  67
BRANCH  65  93
ATOM     93  CB  DVA d          46.385  53.146  91.000  0.00  0.00    -0.014 C 
ATOM     94  H44 DVA d          46.234  53.820  91.856  0.00  0.00     0.043 H 
ATOM     95  H45 DVA d          47.264  53.473  90.426  0.00  0.00     0.043 H 
BRANCH  93  96
ATOM     96  CG  DVA d          46.641  51.742  91.526  0.00  0.00    -0.056 A 
ATOM     97  CD1 DVA d          47.301  50.792  90.740  0.00  0.00    -0.074 A 
ATOM     98  CE1 DVA d          47.518  49.479  91.193  0.00  0.00    -0.051 A 
ATOM     99  H46 DVA d          47.654  51.075  89.756  0.00  0.00     0.084 H 
ATOM    100  CZ  DVA d          47.062  49.122  92.476  0.00  0.00     0.065 A 
ATOM    101  H48 DVA d          48.027  48.756  90.566  0.00  0.00     0.087 H 
ATOM    102  CE2 DVA d          46.404  50.050  93.270  0.00  0.00    -0.051 A 
ATOM    103  CD2 DVA d          46.193  51.358  92.797  0.00  0.00    -0.074 A 
ATOM    104  H49 DVA d          46.054  49.768  94.256  0.00  0.00     0.087 H 
ATOM    105  H47 DVA d          45.677  52.077  93.424  0.00  0.00     0.084 H 
BRANCH 100 106
ATOM    106  OH  DVA d          47.274  47.853  92.969  0.00  0.00    -0.361 OA
ATOM    107  H50 DVA d          47.089  47.842  93.901  0.00  0.00     0.217 HD
ENDBRANCH 100 106
ENDBRANCH  93  96
ENDBRANCH  65  93
ENDBRANCH  63  65
ENDBRANCH  59  61
BRANCH  59 108
ATOM    108  CB  DVA d          42.190  55.654  90.933  0.00  0.00     0.004 C 
ATOM    109  H37 DVA d          41.418  56.044  91.613  0.00  0.00     0.046 H 
ATOM    110  H38 DVA d          42.370  54.591  91.155  0.00  0.00     0.046 H 
BRANCH 108 111
ATOM    111  CG  DVA d          41.674  55.759  89.530  0.00  0.00     0.053 A 
ATOM    112  ND1 DVA d          41.709  54.705  88.638  0.00  0.00    -0.247 NA
ATOM    113  CE1 DVA d          41.162  55.085  87.492  0.00  0.00     0.064 A 
ATOM    114  NE2 DVA d          40.778  56.350  87.610  0.00  0.00    -0.359 N 
ATOM    115  H40 DVA d          41.046  54.464  86.604  0.00  0.00     0.143 H 
ATOM    116  CD2 DVA d          41.091  56.792  88.877  0.00  0.00     0.002 A 
ATOM    117  H41 DVA d          40.322  56.910  86.876  0.00  0.00     0.166 HD
ATOM    118  H39 DVA d          40.905  57.787  89.278  0.00  0.00     0.114 H 
ENDBRANCH 108 111
ENDBRANCH  59 108
ENDBRANCH  57  59
ENDBRANCH   1  55
BRANCH   1 119
ATOM    119  CB  DVA d          42.778  57.207  95.411  0.00  0.00    -0.030 C 
ATOM    120  H29 DVA d          42.258  56.548  96.121  0.00  0.00     0.037 H 
ATOM    121  H30 DVA d          42.143  57.369  94.527  0.00  0.00     0.037 H 
BRANCH 119 122
ATOM    122  CG  DVA d          43.052  58.570  96.093  0.00  0.00     0.011 C 
ATOM    123  H31 DVA d          42.290  59.286  95.751  0.00  0.00     0.047 H 
ATOM    124  H32 DVA d          44.048  58.919  95.780  0.00  0.00     0.047 H 
BRANCH 122 125
ATOM    125  CD  DVA d          43.016  58.525  97.631  0.00  0.00     0.215 C 
ATOM    126  OE1 DVA d          42.015  58.100  98.235  0.00  0.00    -0.274 OA
ATOM    127  NE2 DVA d          44.095  58.948  98.257  0.00  0.00    -0.370 N 
ATOM    128  H33 DVA d          44.128  58.941  99.256  0.00  0.00     0.159 HD
ATOM    129  H34 DVA d          44.881  59.275  97.733  0.00  0.00     0.159 HD
ENDBRANCH 122 125
ENDBRANCH 119 122
ENDBRANCH   1 119
TORSDOF 34
ENDMDL
MODEL 10
REMARK VINA RESULT:      -3.3      2.850     10.452
REMARK WARNING: 32 MAX_TORS EXCEEDED!!!
REMARK  34 active torsions:
REMARK  status: ('A' for Active; 'I' for Inactive)
REMARK    1  A    between atoms: N_1  and  CA_2 
REMARK    2  A    between atoms: CA_2  and  CB_3 
REMARK    3  A    between atoms: CA_2  and  C_6 
REMARK    4  A    between atoms: CB_3  and  CG1_4 
REMARK    5  A    between atoms: CB_3  and  CG2_5 
REMARK       I    between atoms: C_6  and  N_8 
REMARK    6  A    between atoms: CA_9  and  C_13 
REMARK       I    between atoms: C_13  and  N_15 
REMARK    7  A    between atoms: N_15  and  CA_16 
REMARK    8  A    between atoms: CA_16  and  C_17 
REMARK       I    between atoms: C_17  and  N_19 
REMARK    9  A    between atoms: N_19  and  CA_20 
REMARK   10  A    between atoms: CA_20  and  C_21 
REMARK   11  A    between atoms: CA_20  and  CB_23 
REMARK       I    between atoms: C_21  and  N_25 
REMARK   12  A    between atoms: CB_23  and  OG_24 
REMARK   13  A    between atoms: N_25  and  CA_26 
REMARK   14  A    between atoms: CA_26  and  C_27 
REMARK   15  A    between atoms: CA_26  and  CB_29 
REMARK       I    between atoms: C_27  and  N_34 
REMARK   16  A    between atoms: CB_29  and  CG_30 
REMARK   17  A    between atoms: CG_30  and  CD_31 
REMARK       I    between atoms: CD_31  and  NE2_33 
REMARK   18  A    between atoms: N_34  and  CA_35 
REMARK   19  A    between atoms: CA_35  and  C_36 
REMARK   20  A    between atoms: CA_35  and  CB_38 
REMARK       I    between atoms: C_36  and  N_44 
REMARK   21  A    between atoms: CB_38  and  CG_39 
REMARK   22  A    between atoms: N_44  and  CA_45 
REMARK   23  A    between atoms: CA_45  and  C_46 
REMARK   24  A    between atoms: CA_45  and  CB_48 
REMARK       I    between atoms: C_46  and  N_56 
REMARK   25  A    between atoms: CB_48  and  CG_49 
REMARK   26  A    between atoms: CZ_54  and  OH_55 
REMARK   27  A    between atoms: N_56  and  CA_57 
REMARK   28  A    between atoms: CA_57  and  C_58 
REMARK   29  A    between atoms: CA_57  and  CB_60 
REMARK       I    between atoms: C_58  and  N_64 
REMARK   30  A    between atoms: CB_60  and  CG_61 
REMARK   31  A    between atoms: N_64  and  CA_65 
REMARK   32  A    between atoms: CA_65  and  C_66 
REMARK   33  A    between atoms: CA_65  and  CB_69 
REMARK   34  A    between atoms: CB_69  and  OG_70 
ROOT
ATOM      1  CA  DVA d          47.542  55.660  93.422  0.00  0.00     0.090 C 
ATOM      2  H28 DVA d          47.584  56.630  92.904  0.00  0.00     0.087 H 
ENDROOT
BRANCH   1   3
ATOM      3  N   DVA d          47.779  54.601  92.454  0.00  0.00    -0.346 N 
ATOM      4  C   DVA d          47.475  54.808  91.186  0.00  0.00     0.243 C 
ATOM      5  O   DVA d          47.013  55.866  90.789  0.00  0.00    -0.271 OA
ATOM      6  H27 DVA d          48.167  53.727  92.746  0.00  0.00     0.163 HD
BRANCH   4   7
ATOM      7  CA  DVA d          47.698  53.656  90.224  0.00  0.00     0.109 C 
ATOM      8  H23 DVA d          48.771  53.489  90.053  0.00  0.00     0.090 H 
BRANCH   7   9
ATOM      9  N   DVA d          47.036  53.987  88.983  0.00  0.00    -0.344 N 
ATOM     10  C   DVA d          47.706  54.136  87.851  0.00  0.00     0.236 C 
ATOM     11  O   DVA d          48.927  54.001  87.767  0.00  0.00    -0.272 OA
ATOM     12  H22 DVA d          46.043  54.108  88.979  0.00  0.00     0.163 HD
BRANCH  10  13
ATOM     13  CA  DVA d          46.887  54.484  86.635  0.00  0.00     0.069 C 
ATOM     14  H20 DVA d          45.844  54.678  86.927  0.00  0.00     0.078 H 
ATOM     15  H21 DVA d          47.302  55.376  86.144  0.00  0.00     0.078 H 
BRANCH  13  16
ATOM     16  N   DVA d          46.948  53.354  85.740  0.00  0.00    -0.351 N 
ATOM     17  C   DVA d          46.146  52.310  85.899  0.00  0.00     0.241 C 
ATOM     18  O   DVA d          45.299  52.235  86.795  0.00  0.00    -0.271 OA
ATOM     19  H19 DVA d          47.605  53.359  84.986  0.00  0.00     0.163 HD
BRANCH  17  20
ATOM     20  CA  DVA d          46.332  51.192  84.876  0.00  0.00     0.091 C 
ATOM     21  N   DVA d          45.080  50.955  84.141  0.00  0.00    -0.337 N 
ATOM     22  C   DVA d          44.435  51.601  83.135  0.00  0.00     0.251 C 
ATOM     23  CD  DVA d          44.430  49.729  84.645  0.00  0.00    -0.001 C 
ATOM     24  O   DVA d          43.344  51.202  82.711  0.00  0.00    -0.271 OA
ATOM     25  CG  DVA d          45.209  49.432  85.912  0.00  0.00    -0.048 C 
ATOM     26  H17 DVA d          44.522  48.906  83.922  0.00  0.00     0.064 H 
ATOM     27  H18 DVA d          43.367  49.907  84.866  0.00  0.00     0.064 H 
ATOM     28  CB  DVA d          46.590  49.850  85.547  0.00  0.00    -0.036 C 
ATOM     29  H15 DVA d          44.827  50.019  86.761  0.00  0.00     0.035 H 
ATOM     30  H16 DVA d          45.171  48.361  86.160  0.00  0.00     0.035 H 
ATOM     31  H13 DVA d          47.225  49.963  86.439  0.00  0.00     0.036 H 
ATOM     32  H14 DVA d          47.056  49.136  84.852  0.00  0.00     0.036 H 
ATOM     33  H12 DVA d          47.152  51.454  84.191  0.00  0.00     0.087 H 
BRANCH  22  34
ATOM     34  CA  DVA d          45.053  52.886  82.535  0.00  0.00     0.178 C 
ATOM     35  H4  DVA d          45.291  53.558  83.372  0.00  0.00     0.099 H 
BRANCH  34  36
ATOM     36  N   DVA d          44.040  53.556  81.672  0.00  0.00    -0.066 N 
ATOM     37  H1  DVA d          44.387  53.613  80.728  0.00  0.00     0.275 HD
ATOM     38  H2  DVA d          43.863  54.485  82.021  0.00  0.00     0.275 HD
ATOM     39  H3  DVA d          43.184  53.024  81.684  0.00  0.00     0.275 HD
ENDBRANCH  34  36
BRANCH  34  40
ATOM     40  CB  DVA d          46.356  52.665  81.743  0.00  0.00    -0.025 C 
ATOM     41  H5  DVA d          47.217  52.848  82.404  0.00  0.00     0.042 H 
BRANCH  40  42
ATOM     42  CG1 DVA d          46.424  51.238  81.225  0.00  0.00    -0.071 C 
ATOM     43  H6  DVA d          46.297  50.537  82.063  0.00  0.00     0.028 H 
ATOM     44  H7  DVA d          47.401  51.066  80.749  0.00  0.00     0.028 H 
ATOM     45  H8  DVA d          45.624  51.076  80.488  0.00  0.00     0.028 H 
ENDBRANCH  40  42
BRANCH  40  46
ATOM     46  CG2 DVA d          46.399  53.653  80.574  0.00  0.00    -0.071 C 
ATOM     47  H9  DVA d          45.457  54.220  80.538  0.00  0.00     0.028 H 
ATOM     48  H10 DVA d          46.532  53.101  79.632  0.00  0.00     0.028 H 
ATOM     49  H11 DVA d          47.239  54.348  80.712  0.00  0.00     0.028 H 
ENDBRANCH  40  46
ENDBRANCH  34  40
ENDBRANCH  22  34
ENDBRANCH  17  20
ENDBRANCH  13  16
ENDBRANCH  10  13
ENDBRANCH   7   9
BRANCH   7  50
ATOM     50  CB  DVA d          47.057  52.420  90.847  0.00  0.00     0.044 C 
ATOM     51  H24 DVA d          47.728  52.011  91.616  0.00  0.00     0.077 H 
ATOM     52  H25 DVA d          46.892  51.664  90.065  0.00  0.00     0.077 H 
BRANCH  50  53
ATOM     53  OG  DVA d          45.816  52.761  91.441  0.00  0.00    -0.398 OA
ATOM     54  H26 DVA d          45.769  52.384  92.311  0.00  0.00     0.209 HD
ENDBRANCH  50  53
ENDBRANCH   7  50
ENDBRANCH   4   7
ENDBRANCH   1   3
BRANCH   1  55
ATOM     55  C   DVA d          46.163  55.506  94.059  0.00  0.00     0.241 C 
ATOM     56  O   DVA d          45.515  56.500  94.399  0.00  0.00    -0.271 OA
ATOM     57  N   DVA d          45.719  54.258  94.218  0.00  0.00    -0.346 N 
ATOM     58  H35 DVA d          46.281  53.496  93.894  0.00  0.00     0.163 HD
BRANCH  57  59
ATOM     59  CA  DVA d          44.418  53.973  94.860  0.00  0.00     0.094 C 
ATOM     60  H36 DVA d          43.908  54.933  95.027  0.00  0.00     0.088 H 
BRANCH  59  61
ATOM     61  C   DVA d          43.527  53.071  94.056  0.00  0.00     0.241 C 
ATOM     62  O   DVA d          43.602  51.842  94.191  0.00  0.00    -0.271 OA
ATOM     63  N   DVA d          42.713  53.679  93.200  0.00  0.00    -0.346 N 
ATOM     64  H42 DVA d          42.650  54.676  93.197  0.00  0.00     0.163 HD
BRANCH  63  65
ATOM     65  CA  DVA d          41.908  52.898  92.261  0.00  0.00     0.093 C 
ATOM     66  H43 DVA d          42.313  51.875  92.252  0.00  0.00     0.088 H 
BRANCH  65  67
ATOM     67  C   DVA d          40.426  52.787  92.595  0.00  0.00     0.241 C 
ATOM     68  O   DVA d          39.716  51.979  91.989  0.00  0.00    -0.271 OA
ATOM     69  N   DVA d          39.970  53.603  93.544  0.00  0.00    -0.345 N 
ATOM     70  H51 DVA d          40.605  54.242  93.979  0.00  0.00     0.163 HD
BRANCH  69  71
ATOM     71  CA  DVA d          38.564  53.596  93.971  0.00  0.00     0.098 C 
ATOM     72  H52 DVA d          37.942  53.520  93.067  0.00  0.00     0.088 H 
BRANCH  71  73
ATOM     73  C   DVA d          38.200  52.438  94.899  0.00  0.00     0.241 C 
ATOM     74  O   DVA d          37.037  52.021  94.986  0.00  0.00    -0.271 OA
ATOM     75  N   DVA d          39.241  51.933  95.564  0.00  0.00    -0.343 N 
ATOM     76  H55 DVA d          40.127  52.372  95.414  0.00  0.00     0.163 HD
BRANCH  75  77
ATOM     77  CA  DVA d          39.213  50.801  96.491  0.00  0.00     0.116 C 
ATOM     78  H56 DVA d          38.445  51.029  97.245  0.00  0.00     0.093 H 
BRANCH  77  79
ATOM     79  C   DVA d          38.817  49.483  95.841  0.00  0.00     0.198 C 
ATOM     80  O   DVA d          37.747  48.944  96.190  0.00  0.00    -0.646 OA
ATOM     81  OXT DVA d          39.594  49.014  94.977  0.00  0.00    -0.646 OA
ENDBRANCH  77  79
BRANCH  77  82
ATOM     82  CB  DVA d          40.548  50.645  97.230  0.00  0.00     0.045 C 
ATOM     83  H57 DVA d          40.666  49.597  97.543  0.00  0.00     0.077 H 
ATOM     84  H58 DVA d          40.547  51.295  98.117  0.00  0.00     0.077 H 
BRANCH  82  85
ATOM     85  OG  DVA d          41.640  51.005  96.392  0.00  0.00    -0.398 OA
ATOM     86  H59 DVA d          41.452  50.742  95.498  0.00  0.00     0.209 HD
ENDBRANCH  82  85
ENDBRANCH  77  82
ENDBRANCH  75  77
ENDBRANCH  71  73
BRANCH  71  87
ATOM     87  CB  DVA d          38.220  54.894  94.704  0.00  0.00     0.043 C 
ATOM     88  H53 DVA d          37.811  54.641  95.694  0.00  0.00     0.052 H 
ATOM     89  H54 DVA d          37.462  55.437  94.121  0.00  0.00     0.052 H 
BRANCH  87  90
ATOM     90  CG  DVA d          39.417  55.789  94.891  0.00  0.00     0.175 C 
ATOM     91  OD1 DVA d          40.136  55.621  95.900  0.00  0.00    -0.648 OA
ATOM     92  OD2 DVA d          39.651  56.648  94.025  0.00  0.00    -0.648 OA
ENDBRANCH  87  90
ENDBRANCH  71  87
ENDBRANCH  69  71
ENDBRANCH  65  67
BRANCH  65  93
ATOM     93  CB  DVA d          42.084  53.505  90.866  0.00  0.00    -0.014 C 
ATOM     94  H44 DVA d          41.213  53.235  90.252  0.00  0.00     0.043 H 
ATOM     95  H45 DVA d          42.996  53.087  90.413  0.00  0.00     0.043 H 
BRANCH  93  96
ATOM     96  CG  DVA d          42.208  55.021  90.895  0.00  0.00    -0.056 A 
ATOM     97  CD1 DVA d          43.454  55.636  91.054  0.00  0.00    -0.074 A 
ATOM     98  CE1 DVA d          43.588  57.033  91.117  0.00  0.00    -0.051 A 
ATOM     99  H46 DVA d          44.341  55.017  91.130  0.00  0.00     0.084 H 
ATOM    100  CZ  DVA d          42.431  57.829  91.011  0.00  0.00     0.065 A 
ATOM    101  H48 DVA d          44.563  57.490  91.246  0.00  0.00     0.087 H 
ATOM    102  CE2 DVA d          41.186  57.237  90.854  0.00  0.00    -0.051 A 
ATOM    103  CD2 DVA d          41.073  55.837  90.797  0.00  0.00    -0.074 A 
ATOM    104  H49 DVA d          40.299  57.856  90.775  0.00  0.00     0.087 H 
ATOM    105  H47 DVA d          40.095  55.383  90.675  0.00  0.00     0.084 H 
BRANCH 100 106
ATOM    106  OH  DVA d          42.518  59.203  91.045  0.00  0.00    -0.361 OA
ATOM    107  H50 DVA d          41.921  59.540  91.702  0.00  0.00     0.217 HD
ENDBRANCH 100 106
ENDBRANCH  93  96
ENDBRANCH  65  93
ENDBRANCH  63  65
ENDBRANCH  59  61
BRANCH  59 108
ATOM    108  CB  DVA d          44.587  53.242  96.194  0.00  0.00     0.004 C 
ATOM    109  H37 DVA d          45.656  53.239  96.452  0.00  0.00     0.046 H 
ATOM    110  H38 DVA d          44.237  52.207  96.066  0.00  0.00     0.046 H 
BRANCH 108 111
ATOM    111  CG  DVA d          43.832  53.853  97.335  0.00  0.00     0.053 A 
ATOM    112  ND1 DVA d          42.498  53.589  97.580  0.00  0.00    -0.247 NA
ATOM    113  CE1 DVA d          42.114  54.246  98.665  0.00  0.00     0.064 A 
ATOM    114  NE2 DVA d          43.153  54.930  99.129  0.00  0.00    -0.359 N 
ATOM    115  H40 DVA d          41.117  54.227  99.102  0.00  0.00     0.143 H 
ATOM    116  CD2 DVA d          44.237  54.701  98.311  0.00  0.00     0.002 A 
ATOM    117  H41 DVA d          43.148  55.534  99.963  0.00  0.00     0.166 HD
ATOM    118  H39 DVA d          45.234  55.122  98.427  0.00  0.00     0.114 H 
ENDBRANCH 108 111
ENDBRANCH  59 108
ENDBRANCH  57  59
ENDBRANCH   1  55
BRANCH   1 119
ATOM    119  CB  DVA d          48.634  55.626  94.499  0.00  0.00    -0.030 C 
ATOM    120  H29 DVA d          49.506  55.080  94.109  0.00  0.00     0.037 H 
ATOM    121  H30 DVA d          48.245  55.109  95.389  0.00  0.00     0.037 H 
BRANCH 119 122
ATOM    122  CG  DVA d          49.070  57.058  94.894  0.00  0.00     0.011 C 
ATOM    123  H31 DVA d          50.103  57.013  95.269  0.00  0.00     0.047 H 
ATOM    124  H32 DVA d          48.405  57.412  95.696  0.00  0.00     0.047 H 
BRANCH 122 125
ATOM    125  CD  DVA d          49.019  58.075  93.741  0.00  0.00     0.215 C 
ATOM    126  OE1 DVA d          48.085  58.894  93.652  0.00  0.00    -0.274 OA
ATOM    127  NE2 DVA d          50.010  58.034  92.875  0.00  0.00    -0.370 N 
ATOM    128  H33 DVA d          50.028  58.672  92.105  0.00  0.00     0.159 HD
ATOM    129  H34 DVA d          50.744  57.365  92.987  0.00  0.00     0.159 HD
ENDBRANCH 122 125
ENDBRANCH 119 122
ENDBRANCH   1 119
TORSDOF 34
ENDMDL
