REMARK  9 active torsions:
REMARK  status: ('A' for Active; 'I' for Inactive)
REMARK    1  A    between atoms: CAH_1  and  CAG_2 
REMARK       I    between atoms: CAG_2  and  NAI_4 
REMARK    2  A    between atoms: NAI_4  and  CAB_5 
REMARK    3  A    between atoms: CAC_6  and  OAJ_7 
REMARK    4  A    between atoms: CAD_8  and  OAK_9 
REMARK    5  A    between atoms: CAE_10  and  CAF_11 
REMARK    6  A    between atoms: CAF_11  and  OAM_12 
REMARK    7  A    between atoms: NAY_15  and  OAQ_16 
REMARK    8  A    between atoms: OAQ_16  and  CAP_17 
REMARK       I    between atoms: CAP_17  and  NAO_19 
REMARK    9  A    between atoms: NAO_19  and  CAS_20 
ROOT
ATOM      1  CAB OAN d          32.890  42.492  21.404  0.00  0.00     0.105 C 
ATOM      2  CAC OAN d          32.217  42.765  22.785  0.00  0.00     0.089 C 
ATOM      3  CAD OAN d          30.778  42.283  22.810  0.00  0.00     0.090 C 
ATOM      4  CAE OAN d          30.773  40.758  22.596  0.00  0.00     0.094 C 
ATOM      5  OAL OAN d          31.321  40.487  21.280  0.00  0.00    -0.324 OA
ATOM      6  CAA OAN d          32.191  41.347  20.659  0.00  0.00     0.194 C 
ATOM      7  NAY OAN d          32.402  41.196  19.342  0.00  0.00    -0.100 NA
ATOM      8  H5  OAN d          32.792  43.397  20.787  0.00  0.00     0.090 H 
ATOM      9  H6  OAN d          32.778  42.211  23.552  0.00  0.00     0.090 H 
ATOM     10  H8  OAN d          30.218  42.768  21.997  0.00  0.00     0.091 H 
ATOM     11  H10 OAN d          31.454  40.338  23.351  0.00  0.00     0.091 H 
ENDROOT
BRANCH   1  12
ATOM     12  NAI OAN d          34.330  42.239  21.619  0.00  0.00    -0.347 N 
ATOM     13  CAG OAN d          34.832  41.118  22.159  0.00  0.00     0.214 C 
ATOM     14  OAN OAN d          34.159  40.137  22.499  0.00  0.00    -0.274 OA
ATOM     15  H4  OAN d          34.974  42.952  21.343  0.00  0.00     0.163 HD
BRANCH  13  16
ATOM     16  CAH OAN d          36.361  41.126  22.347  0.00  0.00    -0.003 C 
ATOM     17  H1  OAN d          36.770  42.081  21.985  0.00  0.00     0.040 H 
ATOM     18  H2  OAN d          36.805  40.297  21.776  0.00  0.00     0.040 H 
ATOM     19  H3  OAN d          36.600  41.006  23.414  0.00  0.00     0.040 H 
ENDBRANCH  13  16
ENDBRANCH   1  12
BRANCH   7  20
ATOM     20  OAQ OAN d          31.801  40.209  18.573  0.00  0.00    -0.153 OA
BRANCH  20  21
ATOM     21  CAP OAN d          31.153  40.697  17.477  0.00  0.00     0.389 C 
ATOM     22  OAR OAN d          31.513  41.779  16.993  0.00  0.00    -0.236 OA
ATOM     23  NAO OAN d          30.140  39.940  16.971  0.00  0.00    -0.301 N 
ATOM     24  H14 OAN d          29.945  39.068  17.420  0.00  0.00     0.171 HD
BRANCH  23  25
ATOM     25  CAS OAN d          29.365  40.286  15.889  0.00  0.00     0.036 A 
ATOM     26  CAT OAN d          29.874  40.990  14.769  0.00  0.00    -0.057 A 
ATOM     27  CAU OAN d          29.053  41.345  13.681  0.00  0.00    -0.081 A 
ATOM     28  H15 OAN d          30.923  41.262  14.749  0.00  0.00     0.086 H 
ATOM     29  CAV OAN d          27.701  41.000  13.698  0.00  0.00    -0.083 A 
ATOM     30  H16 OAN d          29.468  41.883  12.836  0.00  0.00     0.083 H 
ATOM     31  CAW OAN d          27.172  40.293  14.789  0.00  0.00    -0.081 A 
ATOM     32  H17 OAN d          27.060  41.278  12.869  0.00  0.00     0.083 H 
ATOM     33  CAX OAN d          28.001  39.939  15.865  0.00  0.00    -0.057 A 
ATOM     34  H18 OAN d          26.123  40.020  14.801  0.00  0.00     0.083 H 
ATOM     35  H19 OAN d          27.581  39.385  16.697  0.00  0.00     0.086 H 
ENDBRANCH  23  25
ENDBRANCH  20  21
ENDBRANCH   7  20
BRANCH   2  36
ATOM     36  OAJ OAN d          32.267  44.150  23.108  0.00  0.00    -0.390 OA
ATOM     37  H7  OAN d          31.852  44.293  23.951  0.00  0.00     0.210 HD
ENDBRANCH   2  36
BRANCH   4  38
ATOM     38  CAF OAN d          29.433  39.975  22.733  0.00  0.00     0.044 C 
ATOM     39  H11 OAN d          29.196  39.847  23.799  0.00  0.00     0.078 H 
ATOM     40  H12 OAN d          29.541  38.988  22.260  0.00  0.00     0.078 H 
BRANCH  38  41
ATOM     41  OAM OAN d          28.370  40.686  22.098  0.00  0.00    -0.398 OA
ATOM     42  H13 OAN d          27.562  40.195  22.191  0.00  0.00     0.209 HD
ENDBRANCH  38  41
ENDBRANCH   4  38
BRANCH   3  43
ATOM     43  OAK OAN d          30.162  42.606  24.051  0.00  0.00    -0.390 OA
ATOM     44  H9  OAN d          30.173  43.548  24.173  0.00  0.00     0.210 HD
ENDBRANCH   3  43
TORSDOF 9
