MODEL 1
REMARK VINA RESULT:      -6.5      0.000      0.000
REMARK  9 active torsions:
REMARK  status: ('A' for Active; 'I' for Inactive)
REMARK    1  A    between atoms: CAH_1  and  CAG_2 
REMARK       I    between atoms: CAG_2  and  NAI_4 
REMARK    2  A    between atoms: NAI_4  and  CAB_5 
REMARK    3  A    between atoms: CAC_6  and  OAJ_7 
REMARK    4  A    between atoms: CAD_8  and  OAK_9 
REMARK    5  A    between atoms: CAE_10  and  CAF_11 
REMARK    6  A    between atoms: CAF_11  and  OAM_12 
REMARK    7  A    between atoms: NAY_15  and  OAQ_16 
REMARK    8  A    between atoms: OAQ_16  and  CAP_17 
REMARK       I    between atoms: CAP_17  and  NAO_19 
REMARK    9  A    between atoms: NAO_19  and  CAS_20 
ROOT
ATOM      1  CAB OAN d          32.106  42.619  21.822  0.00  0.00     0.105 C 
ATOM      2  CAC OAN d          31.672  42.171  23.252  0.00  0.00     0.089 C 
ATOM      3  CAD OAN d          30.286  41.553  23.247  0.00  0.00     0.090 C 
ATOM      4  CAE OAN d          30.320  40.290  22.367  0.00  0.00     0.094 C 
ATOM      5  OAL OAN d          30.642  40.696  21.012  0.00  0.00    -0.324 OA
ATOM      6  CAA OAN d          31.346  41.842  20.739  0.00  0.00     0.194 C 
ATOM      7  NAY OAN d          31.330  42.313  19.482  0.00  0.00    -0.100 NA
ATOM      8  H5  OAN d          31.856  43.683  21.702  0.00  0.00     0.090 H 
ATOM      9  H6  OAN d          32.386  41.410  23.601  0.00  0.00     0.090 H 
ATOM     10  H8  OAN d          29.569  42.273  22.826  0.00  0.00     0.091 H 
ATOM     11  H10 OAN d          31.143  39.669  22.750  0.00  0.00     0.091 H 
ENDROOT
BRANCH   1  12
ATOM     12  NAI OAN d          33.572  42.478  21.704  0.00  0.00    -0.347 N 
ATOM     13  CAG OAN d          34.291  41.506  22.287  0.00  0.00     0.214 C 
ATOM     14  OAN OAN d          33.814  40.581  22.955  0.00  0.00    -0.274 OA
ATOM     15  H4  OAN d          34.062  43.152  21.151  0.00  0.00     0.163 HD
BRANCH  13  16
ATOM     16  CAH OAN d          35.813  41.620  22.075  0.00  0.00    -0.003 C 
ATOM     17  H1  OAN d          36.331  40.927  22.755  0.00  0.00     0.040 H 
ATOM     18  H2  OAN d          36.137  42.650  22.285  0.00  0.00     0.040 H 
ATOM     19  H3  OAN d          36.058  41.363  21.034  0.00  0.00     0.040 H 
ENDBRANCH  13  16
ENDBRANCH   1  12
BRANCH   7  20
ATOM     20  OAQ OAN d          30.654  41.698  18.437  0.00  0.00    -0.153 OA
BRANCH  20  21
ATOM     21  CAP OAN d          31.429  40.826  17.731  0.00  0.00     0.389 C 
ATOM     22  OAR OAN d          31.587  39.674  18.158  0.00  0.00    -0.236 OA
ATOM     23  NAO OAN d          31.978  41.287  16.572  0.00  0.00    -0.301 N 
ATOM     24  H14 OAN d          31.768  42.226  16.302  0.00  0.00     0.171 HD
BRANCH  23  25
ATOM     25  CAS OAN d          32.802  40.556  15.748  0.00  0.00     0.036 A 
ATOM     26  CAT OAN d          32.665  39.157  15.564  0.00  0.00    -0.057 A 
ATOM     27  CAU OAN d          33.534  38.432  14.725  0.00  0.00    -0.081 A 
ATOM     28  H15 OAN d          31.872  38.632  16.083  0.00  0.00     0.086 H 
ATOM     29  CAV OAN d          34.559  39.099  14.055  0.00  0.00    -0.083 A 
ATOM     30  H16 OAN d          33.407  37.362  14.602  0.00  0.00     0.083 H 
ATOM     31  CAW OAN d          34.711  40.486  14.209  0.00  0.00    -0.081 A 
ATOM     32  H17 OAN d          35.238  38.547  13.415  0.00  0.00     0.083 H 
ATOM     33  CAX OAN d          33.836  41.200  15.043  0.00  0.00    -0.057 A 
ATOM     34  H18 OAN d          35.504  41.006  13.685  0.00  0.00     0.083 H 
ATOM     35  H19 OAN d          33.960  42.272  15.146  0.00  0.00     0.086 H 
ENDBRANCH  23  25
ENDBRANCH  20  21
ENDBRANCH   7  20
BRANCH   2  36
ATOM     36  OAJ OAN d          31.708  43.267  24.159  0.00  0.00    -0.390 OA
ATOM     37  H7  OAN d          30.870  43.715  24.146  0.00  0.00     0.210 HD
ENDBRANCH   2  36
BRANCH   4  38
ATOM     38  CAF OAN d          29.066  39.368  22.311  0.00  0.00     0.044 C 
ATOM     39  H11 OAN d          28.809  39.044  23.330  0.00  0.00     0.078 H 
ATOM     40  H12 OAN d          29.292  38.487  21.693  0.00  0.00     0.078 H 
BRANCH  38  41
ATOM     41  OAM OAN d          27.956  40.065  21.746  0.00  0.00    -0.398 OA
ATOM     42  H13 OAN d          27.286  40.183  22.410  0.00  0.00     0.209 HD
ENDBRANCH  38  41
ENDBRANCH   4  38
BRANCH   3  43
ATOM     43  OAK OAN d          29.881  41.219  24.570  0.00  0.00    -0.390 OA
ATOM     44  H9  OAN d          29.570  42.000  25.011  0.00  0.00     0.210 HD
ENDBRANCH   3  43
TORSDOF 9
ENDMDL
MODEL 2
REMARK VINA RESULT:      -6.2      2.997      7.184
REMARK  9 active torsions:
REMARK  status: ('A' for Active; 'I' for Inactive)
REMARK    1  A    between atoms: CAH_1  and  CAG_2 
REMARK       I    between atoms: CAG_2  and  NAI_4 
REMARK    2  A    between atoms: NAI_4  and  CAB_5 
REMARK    3  A    between atoms: CAC_6  and  OAJ_7 
REMARK    4  A    between atoms: CAD_8  and  OAK_9 
REMARK    5  A    between atoms: CAE_10  and  CAF_11 
REMARK    6  A    between atoms: CAF_11  and  OAM_12 
REMARK    7  A    between atoms: NAY_15  and  OAQ_16 
REMARK    8  A    between atoms: OAQ_16  and  CAP_17 
REMARK       I    between atoms: CAP_17  and  NAO_19 
REMARK    9  A    between atoms: NAO_19  and  CAS_20 
ROOT
ATOM      1  CAB OAN d          28.749  43.177  16.966  0.00  0.00     0.105 C 
ATOM      2  CAC OAN d          29.870  42.762  15.962  0.00  0.00     0.089 C 
ATOM      3  CAD OAN d          30.822  41.752  16.574  0.00  0.00     0.090 C 
ATOM      4  CAE OAN d          30.026  40.479  16.916  0.00  0.00     0.094 C 
ATOM      5  OAL OAN d          29.029  40.827  17.912  0.00  0.00    -0.324 OA
ATOM      6  CAA OAN d          28.534  42.100  18.037  0.00  0.00     0.194 C 
ATOM      7  NAY OAN d          27.870  42.416  19.161  0.00  0.00    -0.100 NA
ATOM      8  H5  OAN d          29.068  44.095  17.479  0.00  0.00     0.090 H 
ATOM      9  H6  OAN d          29.389  42.296  15.089  0.00  0.00     0.090 H 
ATOM     10  H8  OAN d          31.255  42.171  17.494  0.00  0.00     0.091 H 
ATOM     11  H10 OAN d          29.507  40.181  15.993  0.00  0.00     0.091 H 
ENDROOT
BRANCH   1  12
ATOM     12  NAI OAN d          27.519  43.481  16.206  0.00  0.00    -0.347 N 
ATOM     13  CAG OAN d          26.934  42.640  15.339  0.00  0.00     0.214 C 
ATOM     14  OAN OAN d          27.321  41.488  15.105  0.00  0.00    -0.274 OA
ATOM     15  H4  OAN d          27.094  44.374  16.347  0.00  0.00     0.163 HD
BRANCH  13  16
ATOM     16  CAH OAN d          25.703  43.219  14.616  0.00  0.00    -0.003 C 
ATOM     17  H1  OAN d          25.687  42.861  13.576  0.00  0.00     0.040 H 
ATOM     18  H2  OAN d          25.755  44.318  14.625  0.00  0.00     0.040 H 
ATOM     19  H3  OAN d          24.787  42.891  15.130  0.00  0.00     0.040 H 
ENDBRANCH  13  16
ENDBRANCH   1  12
BRANCH   7  20
ATOM     20  OAQ OAN d          27.643  41.523  20.199  0.00  0.00    -0.153 OA
BRANCH  20  21
ATOM     21  CAP OAN d          28.776  41.183  20.878  0.00  0.00     0.389 C 
ATOM     22  OAR OAN d          28.789  40.143  21.550  0.00  0.00    -0.236 OA
ATOM     23  NAO OAN d          29.842  42.023  20.759  0.00  0.00    -0.301 N 
ATOM     24  H14 OAN d          29.737  42.824  20.170  0.00  0.00     0.171 HD
BRANCH  23  25
ATOM     25  CAS OAN d          31.052  41.851  21.389  0.00  0.00     0.036 A 
ATOM     26  CAT OAN d          31.297  42.278  22.718  0.00  0.00    -0.057 A 
ATOM     27  CAU OAN d          32.552  42.103  23.333  0.00  0.00    -0.081 A 
ATOM     28  H15 OAN d          30.498  42.752  23.276  0.00  0.00     0.086 H 
ATOM     29  CAV OAN d          33.588  41.494  22.623  0.00  0.00    -0.083 A 
ATOM     30  H16 OAN d          32.713  42.438  24.352  0.00  0.00     0.083 H 
ATOM     31  CAW OAN d          33.370  41.051  21.309  0.00  0.00    -0.081 A 
ATOM     32  H17 OAN d          34.559  41.364  23.086  0.00  0.00     0.083 H 
ATOM     33  CAX OAN d          32.113  41.225  20.708  0.00  0.00    -0.057 A 
ATOM     34  H18 OAN d          34.172  40.573  20.758  0.00  0.00     0.083 H 
ATOM     35  H19 OAN d          31.957  40.870  19.696  0.00  0.00     0.086 H 
ENDBRANCH  23  25
ENDBRANCH  20  21
ENDBRANCH   7  20
BRANCH   2  36
ATOM     36  OAJ OAN d          30.597  43.901  15.515  0.00  0.00    -0.390 OA
ATOM     37  H7  OAN d          30.491  44.609  16.141  0.00  0.00     0.210 HD
ENDBRANCH   2  36
BRANCH   4  38
ATOM     38  CAF OAN d          30.789  39.215  17.415  0.00  0.00     0.044 C 
ATOM     39  H11 OAN d          30.785  38.454  16.622  0.00  0.00     0.078 H 
ATOM     40  H12 OAN d          30.284  38.817  18.308  0.00  0.00     0.078 H 
BRANCH  38  41
ATOM     41  OAM OAN d          32.138  39.543  17.746  0.00  0.00    -0.398 OA
ATOM     42  H13 OAN d          32.477  40.163  17.111  0.00  0.00     0.209 HD
ENDBRANCH  38  41
ENDBRANCH   4  38
BRANCH   3  43
ATOM     43  OAK OAN d          31.875  41.442  15.669  0.00  0.00    -0.390 OA
ATOM     44  H9  OAN d          32.673  41.873  15.954  0.00  0.00     0.210 HD
ENDBRANCH   3  43
TORSDOF 9
ENDMDL
MODEL 3
REMARK VINA RESULT:      -5.7      3.306      6.663
REMARK  9 active torsions:
REMARK  status: ('A' for Active; 'I' for Inactive)
REMARK    1  A    between atoms: CAH_1  and  CAG_2 
REMARK       I    between atoms: CAG_2  and  NAI_4 
REMARK    2  A    between atoms: NAI_4  and  CAB_5 
REMARK    3  A    between atoms: CAC_6  and  OAJ_7 
REMARK    4  A    between atoms: CAD_8  and  OAK_9 
REMARK    5  A    between atoms: CAE_10  and  CAF_11 
REMARK    6  A    between atoms: CAF_11  and  OAM_12 
REMARK    7  A    between atoms: NAY_15  and  OAQ_16 
REMARK    8  A    between atoms: OAQ_16  and  CAP_17 
REMARK       I    between atoms: CAP_17  and  NAO_19 
REMARK    9  A    between atoms: NAO_19  and  CAS_20 
ROOT
ATOM      1  CAB OAN d          28.442  41.657  15.954  0.00  0.00     0.105 C 
ATOM      2  CAC OAN d          27.311  42.665  16.329  0.00  0.00     0.089 C 
ATOM      3  CAD OAN d          26.779  42.413  17.728  0.00  0.00     0.090 C 
ATOM      4  CAE OAN d          27.929  42.626  18.731  0.00  0.00     0.094 C 
ATOM      5  OAL OAN d          28.958  41.641  18.451  0.00  0.00    -0.324 OA
ATOM      6  CAA OAN d          29.116  41.083  17.208  0.00  0.00     0.194 C 
ATOM      7  NAY OAN d          29.859  39.970  17.101  0.00  0.00    -0.100 NA
ATOM      8  H5  OAN d          27.988  40.817  15.408  0.00  0.00     0.090 H 
ATOM      9  H6  OAN d          27.737  43.679  16.302  0.00  0.00     0.090 H 
ATOM     10  H8  OAN d          26.420  41.376  17.799  0.00  0.00     0.091 H 
ATOM     11  H10 OAN d          28.337  43.626  18.524  0.00  0.00     0.091 H 
ENDROOT
BRANCH   1  12
ATOM     12  NAI OAN d          29.396  42.329  15.049  0.00  0.00    -0.347 N 
ATOM     13  CAG OAN d          30.158  43.379  15.391  0.00  0.00     0.214 C 
ATOM     14  OAN OAN d          30.193  43.886  16.519  0.00  0.00    -0.274 OA
ATOM     15  H4  OAN d          29.481  41.977  14.117  0.00  0.00     0.163 HD
BRANCH  13  16
ATOM     16  CAH OAN d          31.017  43.948  14.246  0.00  0.00    -0.003 C 
ATOM     17  H1  OAN d          31.271  44.997  14.464  0.00  0.00     0.040 H 
ATOM     18  H2  OAN d          30.453  43.896  13.303  0.00  0.00     0.040 H 
ATOM     19  H3  OAN d          31.942  43.360  14.154  0.00  0.00     0.040 H 
ENDBRANCH  13  16
ENDBRANCH   1  12
BRANCH   7  20
ATOM     20  OAQ OAN d          30.491  39.359  18.175  0.00  0.00    -0.153 OA
BRANCH  20  21
ATOM     21  CAP OAN d          31.231  40.221  18.930  0.00  0.00     0.389 C 
ATOM     22  OAR OAN d          32.172  40.830  18.404  0.00  0.00    -0.236 OA
ATOM     23  NAO OAN d          30.869  40.366  20.235  0.00  0.00    -0.301 N 
ATOM     24  H14 OAN d          30.076  39.848  20.556  0.00  0.00     0.171 HD
BRANCH  23  25
ATOM     25  CAS OAN d          31.514  41.171  21.145  0.00  0.00     0.036 A 
ATOM     26  CAT OAN d          31.045  42.459  21.504  0.00  0.00    -0.057 A 
ATOM     27  CAU OAN d          31.734  43.268  22.428  0.00  0.00    -0.081 A 
ATOM     28  H15 OAN d          30.130  42.831  21.056  0.00  0.00     0.086 H 
ATOM     29  CAV OAN d          32.913  42.798  23.008  0.00  0.00    -0.083 A 
ATOM     30  H16 OAN d          31.353  44.250  22.686  0.00  0.00     0.083 H 
ATOM     31  CAW OAN d          33.396  41.522  22.680  0.00  0.00    -0.081 A 
ATOM     32  H17 OAN d          33.455  43.418  23.713  0.00  0.00     0.083 H 
ATOM     33  CAX OAN d          32.696  40.721  21.762  0.00  0.00    -0.057 A 
ATOM     34  H18 OAN d          34.308  41.153  23.134  0.00  0.00     0.083 H 
ATOM     35  H19 OAN d          33.076  39.734  21.525  0.00  0.00     0.086 H 
ENDBRANCH  23  25
ENDBRANCH  20  21
ENDBRANCH   7  20
BRANCH   2  36
ATOM     36  OAJ OAN d          26.245  42.603  15.390  0.00  0.00    -0.390 OA
ATOM     37  H7  OAN d          25.418  42.731  15.841  0.00  0.00     0.210 HD
ENDBRANCH   2  36
BRANCH   4  38
ATOM     38  CAF OAN d          27.623  42.585  20.258  0.00  0.00     0.044 C 
ATOM     39  H11 OAN d          26.562  42.820  20.421  0.00  0.00     0.078 H 
ATOM     40  H12 OAN d          28.247  43.332  20.771  0.00  0.00     0.078 H 
BRANCH  38  41
ATOM     41  OAM OAN d          27.906  41.291  20.792  0.00  0.00    -0.398 OA
ATOM     42  H13 OAN d          27.531  40.628  20.225  0.00  0.00     0.209 HD
ENDBRANCH  38  41
ENDBRANCH   4  38
BRANCH   3  43
ATOM     43  OAK OAN d          25.703  43.295  18.023  0.00  0.00    -0.390 OA
ATOM     44  H9  OAN d          26.038  44.177  18.131  0.00  0.00     0.210 HD
ENDBRANCH   3  43
TORSDOF 9
ENDMDL
MODEL 4
REMARK VINA RESULT:      -5.4      3.373      7.106
REMARK  9 active torsions:
REMARK  status: ('A' for Active; 'I' for Inactive)
REMARK    1  A    between atoms: CAH_1  and  CAG_2 
REMARK       I    between atoms: CAG_2  and  NAI_4 
REMARK    2  A    between atoms: NAI_4  and  CAB_5 
REMARK    3  A    between atoms: CAC_6  and  OAJ_7 
REMARK    4  A    between atoms: CAD_8  and  OAK_9 
REMARK    5  A    between atoms: CAE_10  and  CAF_11 
REMARK    6  A    between atoms: CAF_11  and  OAM_12 
REMARK    7  A    between atoms: NAY_15  and  OAQ_16 
REMARK    8  A    between atoms: OAQ_16  and  CAP_17 
REMARK       I    between atoms: CAP_17  and  NAO_19 
REMARK    9  A    between atoms: NAO_19  and  CAS_20 
ROOT
ATOM      1  CAB OAN d          28.680  39.993  16.335  0.00  0.00     0.105 C 
ATOM      2  CAC OAN d          27.760  40.209  15.093  0.00  0.00     0.089 C 
ATOM      3  CAD OAN d          26.563  41.079  15.429  0.00  0.00     0.090 C 
ATOM      4  CAE OAN d          27.076  42.466  15.860  0.00  0.00     0.094 C 
ATOM      5  OAL OAN d          27.869  42.297  17.064  0.00  0.00    -0.324 OA
ATOM      6  CAA OAN d          28.500  41.117  17.364  0.00  0.00     0.194 C 
ATOM      7  NAY OAN d          28.939  40.933  18.620  0.00  0.00    -0.100 NA
ATOM      8  H5  OAN d          28.390  39.050  16.821  0.00  0.00     0.090 H 
ATOM      9  H6  OAN d          28.349  40.720  14.318  0.00  0.00     0.090 H 
ATOM     10  H8  OAN d          26.003  40.623  16.259  0.00  0.00     0.091 H 
ATOM     11  H10 OAN d          27.737  42.815  15.053  0.00  0.00     0.091 H 
ENDROOT
BRANCH   1  12
ATOM     12  NAI OAN d          30.077  39.859  15.874  0.00  0.00    -0.347 N 
ATOM     13  CAG OAN d          31.014  39.125  16.492  0.00  0.00     0.214 C 
ATOM     14  OAN OAN d          30.816  38.430  17.496  0.00  0.00    -0.274 OA
ATOM     15  H4  OAN d          30.342  40.349  15.043  0.00  0.00     0.163 HD
BRANCH  13  16
ATOM     16  CAH OAN d          32.415  39.207  15.857  0.00  0.00    -0.003 C 
ATOM     17  H1  OAN d          33.130  39.600  16.595  0.00  0.00     0.040 H 
ATOM     18  H2  OAN d          32.384  39.876  14.984  0.00  0.00     0.040 H 
ATOM     19  H3  OAN d          32.733  38.203  15.538  0.00  0.00     0.040 H 
ENDBRANCH  13  16
ENDBRANCH   1  12
BRANCH   7  20
ATOM     20  OAQ OAN d          28.804  41.876  19.629  0.00  0.00    -0.153 OA
BRANCH  20  21
ATOM     21  CAP OAN d          29.780  41.796  20.578  0.00  0.00     0.389 C 
ATOM     22  OAR OAN d          29.461  41.614  21.761  0.00  0.00    -0.236 OA
ATOM     23  NAO OAN d          31.068  41.912  20.149  0.00  0.00    -0.301 N 
ATOM     24  H14 OAN d          31.221  42.030  19.168  0.00  0.00     0.171 HD
BRANCH  23  25
ATOM     25  CAS OAN d          32.174  41.879  20.966  0.00  0.00     0.036 A 
ATOM     26  CAT OAN d          33.102  40.807  20.966  0.00  0.00    -0.057 A 
ATOM     27  CAU OAN d          34.218  40.793  21.825  0.00  0.00    -0.081 A 
ATOM     28  H15 OAN d          32.948  39.977  20.287  0.00  0.00     0.086 H 
ATOM     29  CAV OAN d          34.424  41.858  22.703  0.00  0.00    -0.083 A 
ATOM     30  H16 OAN d          34.913  39.961  21.804  0.00  0.00     0.083 H 
ATOM     31  CAW OAN d          33.528  42.938  22.717  0.00  0.00    -0.081 A 
ATOM     32  H17 OAN d          35.275  41.850  23.374  0.00  0.00     0.083 H 
ATOM     33  CAX OAN d          32.422  42.944  21.852  0.00  0.00    -0.057 A 
ATOM     34  H18 OAN d          33.689  43.768  23.395  0.00  0.00     0.083 H 
ATOM     35  H19 OAN d          31.743  43.790  21.867  0.00  0.00     0.086 H 
ENDBRANCH  23  25
ENDBRANCH  20  21
ENDBRANCH   7  20
BRANCH   2  36
ATOM     36  OAJ OAN d          27.317  38.962  14.568  0.00  0.00    -0.390 OA
ATOM     37  H7  OAN d          26.371  38.906  14.642  0.00  0.00     0.210 HD
ENDBRANCH   2  36
BRANCH   4  38
ATOM     38  CAF OAN d          26.051  43.612  16.112  0.00  0.00     0.044 C 
ATOM     39  H11 OAN d          25.057  43.290  15.768  0.00  0.00     0.078 H 
ATOM     40  H12 OAN d          26.362  44.505  15.550  0.00  0.00     0.078 H 
BRANCH  38  41
ATOM     41  OAM OAN d          25.987  43.930  17.502  0.00  0.00    -0.398 OA
ATOM     42  H13 OAN d          25.993  44.874  17.610  0.00  0.00     0.209 HD
ENDBRANCH  38  41
ENDBRANCH   4  38
BRANCH   3  43
ATOM     43  OAK OAN d          25.701  41.203  14.304  0.00  0.00    -0.390 OA
ATOM     44  H9  OAN d          24.919  41.681  14.557  0.00  0.00     0.210 HD
ENDBRANCH   3  43
TORSDOF 9
ENDMDL
MODEL 5
REMARK VINA RESULT:      -4.5      3.667      5.475
REMARK  9 active torsions:
REMARK  status: ('A' for Active; 'I' for Inactive)
REMARK    1  A    between atoms: CAH_1  and  CAG_2 
REMARK       I    between atoms: CAG_2  and  NAI_4 
REMARK    2  A    between atoms: NAI_4  and  CAB_5 
REMARK    3  A    between atoms: CAC_6  and  OAJ_7 
REMARK    4  A    between atoms: CAD_8  and  OAK_9 
REMARK    5  A    between atoms: CAE_10  and  CAF_11 
REMARK    6  A    between atoms: CAF_11  and  OAM_12 
REMARK    7  A    between atoms: NAY_15  and  OAQ_16 
REMARK    8  A    between atoms: OAQ_16  and  CAP_17 
REMARK       I    between atoms: CAP_17  and  NAO_19 
REMARK    9  A    between atoms: NAO_19  and  CAS_20 
ROOT
ATOM      1  CAB OAN d          29.793  41.613  20.732  0.00  0.00     0.105 C 
ATOM      2  CAC OAN d          31.109  41.435  19.914  0.00  0.00     0.089 C 
ATOM      3  CAD OAN d          30.832  41.346  18.424  0.00  0.00     0.090 C 
ATOM      4  CAE OAN d          30.190  42.670  17.969  0.00  0.00     0.094 C 
ATOM      5  OAL OAN d          28.922  42.814  18.660  0.00  0.00    -0.324 OA
ATOM      6  CAA OAN d          28.676  42.217  19.870  0.00  0.00     0.194 C 
ATOM      7  NAY OAN d          27.404  42.129  20.289  0.00  0.00    -0.100 NA
ATOM      8  H5  OAN d          29.455  40.620  21.063  0.00  0.00     0.090 H 
ATOM      9  H6  OAN d          31.742  42.317  20.093  0.00  0.00     0.090 H 
ATOM     10  H8  OAN d          30.136  40.517  18.233  0.00  0.00     0.091 H 
ATOM     11  H10 OAN d          30.864  43.472  18.305  0.00  0.00     0.091 H 
ENDROOT
BRANCH   1  12
ATOM     12  NAI OAN d          30.086  42.420  21.935  0.00  0.00    -0.347 N 
ATOM     13  CAG OAN d          30.737  41.963  23.016  0.00  0.00     0.214 C 
ATOM     14  OAN OAN d          31.215  40.827  23.123  0.00  0.00    -0.274 OA
ATOM     15  H4  OAN d          29.779  43.371  21.943  0.00  0.00     0.163 HD
BRANCH  13  16
ATOM     16  CAH OAN d          30.852  42.977  24.170  0.00  0.00    -0.003 C 
ATOM     17  H1  OAN d          31.901  43.046  24.494  0.00  0.00     0.040 H 
ATOM     18  H2  OAN d          30.229  42.644  25.014  0.00  0.00     0.040 H 
ATOM     19  H3  OAN d          30.509  43.964  23.827  0.00  0.00     0.040 H 
ENDBRANCH  13  16
ENDBRANCH   1  12
BRANCH   7  20
ATOM     20  OAQ OAN d          26.321  42.621  19.573  0.00  0.00    -0.153 OA
BRANCH  20  21
ATOM     21  CAP OAN d          26.351  42.290  18.251  0.00  0.00     0.389 C 
ATOM     22  OAR OAN d          26.034  43.140  17.407  0.00  0.00    -0.236 OA
ATOM     23  NAO OAN d          26.747  41.024  17.941  0.00  0.00    -0.301 N 
ATOM     24  H14 OAN d          27.008  40.423  18.696  0.00  0.00     0.171 HD
BRANCH  23  25
ATOM     25  CAS OAN d          26.814  40.512  16.666  0.00  0.00     0.036 A 
ATOM     26  CAT OAN d          25.701  40.477  15.790  0.00  0.00    -0.057 A 
ATOM     27  CAU OAN d          25.794  39.931  14.494  0.00  0.00    -0.081 A 
ATOM     28  H15 OAN d          24.752  40.880  16.125  0.00  0.00     0.086 H 
ATOM     29  CAV OAN d          27.011  39.408  14.055  0.00  0.00    -0.083 A 
ATOM     30  H16 OAN d          24.927  39.917  13.843  0.00  0.00     0.083 H 
ATOM     31  CAW OAN d          28.133  39.440  14.897  0.00  0.00    -0.081 A 
ATOM     32  H17 OAN d          27.089  38.978  13.063  0.00  0.00     0.083 H 
ATOM     33  CAX OAN d          28.029  39.991  16.184  0.00  0.00    -0.057 A 
ATOM     34  H18 OAN d          29.080  39.038  14.555  0.00  0.00     0.083 H 
ATOM     35  H19 OAN d          28.906  40.018  16.821  0.00  0.00     0.086 H 
ENDBRANCH  23  25
ENDBRANCH  20  21
ENDBRANCH   7  20
BRANCH   2  36
ATOM     36  OAJ OAN d          31.820  40.280  20.342  0.00  0.00    -0.390 OA
ATOM     37  H7  OAN d          31.892  40.286  21.290  0.00  0.00     0.210 HD
ENDBRANCH   2  36
BRANCH   4  38
ATOM     38  CAF OAN d          29.944  42.914  16.450  0.00  0.00     0.044 C 
ATOM     39  H11 OAN d          30.216  43.950  16.202  0.00  0.00     0.078 H 
ATOM     40  H12 OAN d          28.881  42.749  16.225  0.00  0.00     0.078 H 
BRANCH  38  41
ATOM     41  OAM OAN d          30.734  42.020  15.665  0.00  0.00    -0.398 OA
ATOM     42  H13 OAN d          31.449  41.684  16.193  0.00  0.00     0.209 HD
ENDBRANCH  38  41
ENDBRANCH   4  38
BRANCH   3  43
ATOM     43  OAK OAN d          32.036  41.113  17.703  0.00  0.00    -0.390 OA
ATOM     44  H9  OAN d          32.717  40.838  18.306  0.00  0.00     0.210 HD
ENDBRANCH   3  43
TORSDOF 9
ENDMDL
