MODEL 1
REMARK VINA RESULT:     -10.9      0.000      0.000
REMARK  13 active torsions:
REMARK  status: ('A' for Active; 'I' for Inactive)
REMARK    1  A    between atoms: C_1  and  CA_4 
REMARK       I    between atoms: NAV_21  and  C_1 
REMARK    2  A    between atoms: CAH_9  and  CAL_13 
REMARK    3  A    between atoms: CAL_13  and  CAT_20 
REMARK    4  A    between atoms: CAL_13  and  CBZ_50 
REMARK    5  A    between atoms: CAL_13  and  CCA_51 
REMARK    6  A    between atoms: CAR_18  and  CAS_19 
REMARK    7  A    between atoms: CAZ_24  and  CAR_18 
REMARK    8  A    between atoms: CAX_22  and  NAV_21 
REMARK    9  A    between atoms: CAX_22  and  CAY_23 
REMARK       I    between atoms: CAY_23  and  NBK_35 
REMARK   10  A    between atoms: NBK_35  and  SBM_37 
REMARK   11  A    between atoms: SBM_37  and  CBN_38 
REMARK   12  A    between atoms: CBV_46  and  CBX_48 
REMARK   13  A    between atoms: CBV_46  and  CBY_49 
ROOT
ATOM      1  N   SU3 d         -15.083  -9.725  13.626  0.00  0.00    -0.334 N 
ATOM      2  CA  SU3 d         -13.693  -9.749  14.141  0.00  0.00     0.094 C 
ATOM      3  CB  SU3 d         -12.956 -10.623  13.145  0.00  0.00    -0.011 C 
ATOM      4  CG  SU3 d         -14.037 -11.629  12.706  0.00  0.00     0.067 C 
ATOM      5  CAF SU3 d         -16.041  -8.968  14.155  0.00  0.00     0.244 C 
ATOM      6  OAG SU3 d         -15.756  -8.184  15.069  0.00  0.00    -0.271 OA
ATOM      7  CAH SU3 d         -17.432  -8.944  13.536  0.00  0.00     0.098 C 
ATOM      8  NAI SU3 d         -18.367  -9.190  14.621  0.00  0.00    -0.323 N 
ATOM      9  CAJ SU3 d         -18.948 -10.363  14.769  0.00  0.00     0.361 C 
ATOM     10  OAK SU3 d         -19.759 -10.434  15.847  0.00  0.00    -0.303 OA
ATOM     11  OAM SU3 d         -18.813 -11.312  13.998  0.00  0.00    -0.238 OA
ATOM     12  CAO SU3 d         -13.530 -13.620  13.913  0.00  0.00     0.371 C 
ATOM     13  OAP SU3 d         -12.615 -13.862  13.122  0.00  0.00    -0.238 OA
ATOM     14  NAQ SU3 d         -13.743 -14.387  14.935  0.00  0.00    -0.278 N 
ATOM     15  CBB SU3 d         -13.070 -15.637  15.302  0.00  0.00     0.000 A 
ATOM     16  CBC SU3 d         -13.689 -16.047  16.604  0.00  0.00    -0.008 A 
ATOM     17  CBD SU3 d         -14.657 -15.114  16.967  0.00  0.00    -0.002 A 
ATOM     18  CBE SU3 d         -14.774 -14.032  15.918  0.00  0.00     0.001 A 
ATOM     19  CBF SU3 d         -13.421 -17.135  17.422  0.00  0.00    -0.071 A 
ATOM     20  CBG SU3 d         -14.129 -17.275  18.599  0.00  0.00    -0.082 A 
ATOM     21  CBH SU3 d         -15.103 -16.343  18.952  0.00  0.00    -0.076 A 
ATOM     22  CBI SU3 d         -15.390 -15.235  18.142  0.00  0.00    -0.046 A 
ATOM     23  CBJ SU3 d         -16.427 -14.169  18.569  0.00  0.00    -0.040 C 
ATOM     24  CBS SU3 d         -17.844 -14.595  18.826  0.00  0.00    -0.061 C 
ATOM     25  CBT SU3 d         -18.665 -13.304  18.908  0.00  0.00    -0.064 C 
ATOM     26  CBU SU3 d         -19.001 -12.761  17.513  0.00  0.00    -0.057 C 
ATOM     27  CBV SU3 d         -20.380 -12.115  17.456  0.00  0.00    -0.025 C 
ATOM     28  CBW SU3 d         -20.549 -11.611  16.054  0.00  0.00     0.037 C 
ATOM     29  CD1 SU3 d         -15.264 -10.740  12.551  0.00  0.00     0.023 C 
ATOM     30  OD2 SU3 d         -14.309 -12.528  13.794  0.00  0.00    -0.296 OA
ATOM     31  H1  SU3 d         -13.633 -10.171  15.154  0.00  0.00     0.088 H 
ATOM     32  H2  SU3 d         -12.108 -11.137  13.621  0.00  0.00     0.040 H 
ATOM     33  H3  SU3 d         -12.594 -10.033  12.291  0.00  0.00     0.040 H 
ATOM     34  H4  SU3 d         -13.771 -12.167  11.785  0.00  0.00     0.086 H 
ATOM     35  H5  SU3 d         -17.506  -9.765  12.807  0.00  0.00     0.088 H 
ATOM     36  H6  SU3 d         -18.573  -8.456  15.268  0.00  0.00     0.165 HD
ATOM     37  H19 SU3 d         -12.288 -16.156  14.748  0.00  0.00     0.113 H 
ATOM     38  H20 SU3 d         -15.461 -13.188  15.896  0.00  0.00     0.113 H 
ATOM     39  H21 SU3 d         -12.668 -17.863  17.142  0.00  0.00     0.084 H 
ATOM     40  H22 SU3 d         -13.927 -18.116  19.252  0.00  0.00     0.083 H 
ATOM     41  H23 SU3 d         -15.653 -16.477  19.876  0.00  0.00     0.084 H 
ATOM     42  H24 SU3 d         -16.457 -13.412  17.772  0.00  0.00     0.040 H 
ATOM     43  H25 SU3 d         -16.055 -13.711  19.496  0.00  0.00     0.040 H 
ATOM     44  H32 SU3 d         -17.911 -15.150  19.774  0.00  0.00     0.033 H 
ATOM     45  H33 SU3 d         -18.209 -15.228  18.004  0.00  0.00     0.033 H 
ATOM     46  H34 SU3 d         -18.085 -12.547  19.456  0.00  0.00     0.033 H 
ATOM     47  H35 SU3 d         -19.602 -13.509  19.446  0.00  0.00     0.033 H 
ATOM     48  H36 SU3 d         -18.971 -13.592  16.793  0.00  0.00     0.034 H 
ATOM     49  H37 SU3 d         -18.248 -12.009  17.236  0.00  0.00     0.034 H 
ATOM     50  H38 SU3 d         -20.229 -12.391  15.348  0.00  0.00     0.076 H 
ATOM     51  H39 SU3 d         -21.608 -11.372  15.879  0.00  0.00     0.076 H 
ATOM     52  H52 SU3 d         -15.285 -10.265  11.559  0.00  0.00     0.068 H 
ATOM     53  H53 SU3 d         -16.190 -11.314  12.702  0.00  0.00     0.068 H 
ENDROOT
BRANCH   2  54
ATOM     54  C   SU3 d         -13.191  -8.295  14.135  0.00  0.00     0.241 C 
ATOM     55  O   SU3 d         -13.138  -7.618  13.102  0.00  0.00    -0.271 OA
ATOM     56  NAV SU3 d         -12.729  -7.856  15.299  0.00  0.00    -0.341 N 
ATOM     57  H15 SU3 d         -12.568  -8.519  16.030  0.00  0.00     0.163 HD
BRANCH  56  58
ATOM     58  CAX SU3 d         -12.449  -6.454  15.562  0.00  0.00     0.119 A 
ATOM     59  CAZ SU3 d         -13.747  -5.588  15.604  0.00  0.00    -0.018 A 
ATOM     60  CBA SU3 d         -13.016  -5.913  16.884  0.00  0.00    -0.027 A 
ATOM     61  H16 SU3 d         -14.723  -6.038  15.373  0.00  0.00     0.044 H 
ATOM     62  H17 SU3 d         -12.480  -5.119  17.423  0.00  0.00     0.038 H 
ATOM     63  H18 SU3 d         -13.467  -6.608  17.608  0.00  0.00     0.038 H 
BRANCH  58  64
ATOM     64  CAY SU3 d         -11.106  -5.879  15.138  0.00  0.00     0.259 C 
ATOM     65  NBK SU3 d         -10.490  -6.497  14.168  0.00  0.00    -0.252 N 
ATOM     66  H26 SU3 d         -10.865  -7.318  13.739  0.00  0.00     0.181 HD
ATOM     67  OBL SU3 d         -10.671  -4.904  15.746  0.00  0.00    -0.270 OA
BRANCH  65  68
ATOM     68  SBM SU3 d          -9.106  -5.860  13.713  0.00  0.00     0.237 S 
ATOM     69  OBO SU3 d          -9.307  -4.704  12.811  0.00  0.00    -0.205 OA
ATOM     70  OBP SU3 d          -8.211  -5.560  14.832  0.00  0.00    -0.205 OA
BRANCH  68  71
ATOM     71  CBN SU3 d          -8.342  -7.147  12.730  0.00  0.00     0.063 A 
ATOM     72  CBQ SU3 d          -6.943  -6.811  12.201  0.00  0.00    -0.046 A 
ATOM     73  CBR SU3 d          -7.125  -7.757  13.386  0.00  0.00    -0.046 A 
ATOM     74  H28 SU3 d          -6.521  -5.808  12.356  0.00  0.00     0.035 H 
ATOM     75  H29 SU3 d          -6.612  -7.203  11.227  0.00  0.00     0.035 H 
ATOM     76  H30 SU3 d          -6.918  -8.832  13.266  0.00  0.00     0.035 H 
ATOM     77  H31 SU3 d          -6.826  -7.436  14.395  0.00  0.00     0.035 H 
ATOM     78  H27 SU3 d          -9.070  -7.734  12.150  0.00  0.00     0.066 H 
ENDBRANCH  68  71
ENDBRANCH  65  68
ENDBRANCH  58  64
BRANCH  59  79
ATOM     79  CAR SU3 d         -13.702  -4.138  15.136  0.00  0.00    -0.062 C 
ATOM     80  H7  SU3 d         -13.229  -3.524  15.917  0.00  0.00     0.033 H 
ATOM     81  H8  SU3 d         -13.107  -4.078  14.213  0.00  0.00     0.033 H 
BRANCH  79  82
ATOM     82  CAS SU3 d         -15.103  -3.599  14.861  0.00  0.00    -0.076 C 
ATOM     83  H9  SU3 d         -15.420  -2.959  15.699  0.00  0.00     0.027 H 
ATOM     84  H10 SU3 d         -15.804  -4.439  14.755  0.00  0.00     0.027 H 
ATOM     85  H11 SU3 d         -15.093  -3.009  13.933  0.00  0.00     0.027 H 
ENDBRANCH  79  82
ENDBRANCH  59  79
ENDBRANCH  56  58
ENDBRANCH   2  54
BRANCH   7  86
ATOM     86  CAL SU3 d         -17.754  -7.623  12.786  0.00  0.00    -0.022 C 
BRANCH  86  87
ATOM     87  CAT SU3 d         -18.239  -6.575  13.809  0.00  0.00    -0.067 C 
ATOM     88  H12 SU3 d         -19.220  -6.876  14.205  0.00  0.00     0.028 H 
ATOM     89  H13 SU3 d         -18.326  -5.595  13.316  0.00  0.00     0.028 H 
ATOM     90  H14 SU3 d         -17.515  -6.506  14.635  0.00  0.00     0.028 H 
ENDBRANCH  86  87
BRANCH  86  91
ATOM     91  CBZ SU3 d         -16.559  -7.046  12.038  0.00  0.00    -0.067 C 
ATOM     92  H46 SU3 d         -16.716  -7.158  10.955  0.00  0.00     0.028 H 
ATOM     93  H47 SU3 d         -15.646  -7.583  12.334  0.00  0.00     0.028 H 
ATOM     94  H48 SU3 d         -16.453  -5.979  12.284  0.00  0.00     0.028 H 
ENDBRANCH  86  91
BRANCH  86  95
ATOM     95  CCA SU3 d         -18.901  -7.885  11.796  0.00  0.00    -0.067 C 
ATOM     96  H49 SU3 d         -19.827  -8.090  12.354  0.00  0.00     0.028 H 
ATOM     97  H50 SU3 d         -18.652  -8.753  11.167  0.00  0.00     0.028 H 
ATOM     98  H51 SU3 d         -19.045  -7.000  11.159  0.00  0.00     0.028 H 
ENDBRANCH  86  95
ENDBRANCH   7  86
BRANCH  27  99
ATOM     99  CBX SU3 d         -21.488 -13.155  17.682  0.00  0.00    -0.067 C 
ATOM    100  H40 SU3 d         -21.719 -13.218  18.756  0.00  0.00     0.028 H 
ATOM    101  H41 SU3 d         -21.148 -14.137  17.321  0.00  0.00     0.028 H 
ATOM    102  H42 SU3 d         -22.391 -12.854  17.130  0.00  0.00     0.028 H 
ENDBRANCH  27  99
BRANCH  27 103
ATOM    103  CBY SU3 d         -20.498 -10.968  18.481  0.00  0.00    -0.067 C 
ATOM    104  H43 SU3 d         -21.012 -11.334  19.383  0.00  0.00     0.028 H 
ATOM    105  H44 SU3 d         -21.074 -10.141  18.042  0.00  0.00     0.028 H 
ATOM    106  H45 SU3 d         -19.492 -10.612  18.751  0.00  0.00     0.028 H 
ENDBRANCH  27 103
TORSDOF 13
ENDMDL
