MODEL 1
REMARK VINA RESULT:      -5.9      0.000      0.000
REMARK  6 active torsions:
REMARK  status: ('A' for Active; 'I' for Inactive)
REMARK    1  A    between atoms: C1_17  and  N1_1 
REMARK    2  A    between atoms: C5_10  and  O5_9 
REMARK    3  A    between atoms: C4_11  and  C5_10 
REMARK    4  A    between atoms: C3_13  and  O3_14 
REMARK    5  A    between atoms: O3_14  and  P_19 
REMARK    6  A    between atoms: C2_15  and  O2_16 
ROOT
ATOM      1  C4  UA3 d          39.055   0.283  12.254  0.00  0.00     0.089 C 
ATOM      2  O4  UA3 d          38.887  -0.982  11.623  0.00  0.00    -0.353 OA
ATOM      3  C3  UA3 d          38.139   1.065  12.920  0.00  0.00     0.107 C 
ATOM      4  C2  UA3 d          37.063  -0.295  13.108  0.00  0.00     0.106 C 
ATOM      5  C1  UA3 d          37.327  -0.960  11.581  0.00  0.00     0.141 C 
ATOM      6  H7  UA3 d          38.924   0.838  11.313  0.00  0.00     0.090 H 
ATOM      7  H8  UA3 d          38.608   1.347  13.874  0.00  0.00     0.092 H 
ATOM      8  H9  UA3 d          36.013   0.031  13.150  0.00  0.00     0.093 H 
ATOM      9  H11 UA3 d          36.929  -0.383  10.733  0.00  0.00     0.123 H 
ENDROOT
BRANCH   5  10
ATOM     10  N1  UA3 d          36.717  -2.219  11.698  0.00  0.00    -0.280 N 
ATOM     11  C2  UA3 d          35.373  -2.314  11.233  0.00  0.00     0.331 A 
ATOM     12  O2  UA3 d          34.806  -1.397  10.756  0.00  0.00    -0.246 OA
ATOM     13  N3  UA3 d          34.821  -3.592  11.399  0.00  0.00    -0.275 N 
ATOM     14  C4  UA3 d          35.430  -4.737  11.960  0.00  0.00     0.250 A 
ATOM     15  H1  UA3 d          33.879  -3.708  11.081  0.00  0.00     0.173 HD
ATOM     16  O4  UA3 d          34.782  -5.758  12.018  0.00  0.00    -0.268 OA
ATOM     17  C5  UA3 d          36.798  -4.541  12.414  0.00  0.00    -0.002 A 
ATOM     18  C6  UA3 d          37.386  -3.339  12.279  0.00  0.00    -0.008 A 
ATOM     19  H2  UA3 d          37.345  -5.367  12.863  0.00  0.00     0.094 H 
ATOM     20  H3  UA3 d          38.410  -3.215  12.626  0.00  0.00     0.112 H 
ENDBRANCH   5  10
BRANCH   4  21
ATOM     21  O2  UA3 d          37.346  -1.026  14.552  0.00  0.00    -0.388 OA
ATOM     22  H10 UA3 d          36.859  -0.578  15.233  0.00  0.00     0.210 HD
ENDBRANCH   4  21
BRANCH   1  23
ATOM     23  C5  UA3 d          40.335   0.615  12.438  0.00  0.00     0.043 C 
ATOM     24  H5  UA3 d          40.776  -0.137  13.109  0.00  0.00     0.078 H 
ATOM     25  H6  UA3 d          40.831   0.568  11.458  0.00  0.00     0.078 H 
BRANCH  23  26
ATOM     26  O5  UA3 d          40.643   2.028  13.052  0.00  0.00    -0.398 OA
ATOM     27  H4  UA3 d          40.799   1.941  13.985  0.00  0.00     0.209 HD
ENDBRANCH  23  26
ENDBRANCH   1  23
BRANCH   3  28
ATOM     28  O3  UA3 d          37.336   2.322  12.537  0.00  0.00    -0.272 OA
BRANCH  28  29
ATOM     29  P   UA3 d          37.318   3.709  13.127  0.00  0.00     0.422 P 
ATOM     30  O3P UA3 d          37.767   4.686  11.938  0.00  0.00    -0.617 OA
ATOM     31  O1P UA3 d          38.241   3.749  14.309  0.00  0.00    -0.617 OA
ATOM     32  O2P UA3 d          35.910   4.055  13.531  0.00  0.00    -0.617 OA
ENDBRANCH  28  29
ENDBRANCH   3  28
TORSDOF 6
ENDMDL
MODEL 2
REMARK VINA RESULT:      -4.9      3.078      6.282
REMARK  6 active torsions:
REMARK  status: ('A' for Active; 'I' for Inactive)
REMARK    1  A    between atoms: C1_17  and  N1_1 
REMARK    2  A    between atoms: C5_10  and  O5_9 
REMARK    3  A    between atoms: C4_11  and  C5_10 
REMARK    4  A    between atoms: C3_13  and  O3_14 
REMARK    5  A    between atoms: O3_14  and  P_19 
REMARK    6  A    between atoms: C2_15  and  O2_16 
ROOT
ATOM      1  C4  UA3 d          39.175  -2.652  13.843  0.00  0.00     0.089 C 
ATOM      2  O4  UA3 d          38.968  -1.379  14.448  0.00  0.00    -0.353 OA
ATOM      3  C3  UA3 d          38.695  -3.153  12.654  0.00  0.00     0.107 C 
ATOM      4  C2  UA3 d          38.315  -1.546  12.092  0.00  0.00     0.106 C 
ATOM      5  C1  UA3 d          37.751  -0.955  13.567  0.00  0.00     0.141 C 
ATOM      6  H7  UA3 d          38.375  -3.128  14.428  0.00  0.00     0.090 H 
ATOM      7  H8  UA3 d          39.561  -3.575  12.124  0.00  0.00     0.092 H 
ATOM      8  H9  UA3 d          37.464  -1.559  11.394  0.00  0.00     0.093 H 
ATOM      9  H11 UA3 d          36.798  -1.379  13.919  0.00  0.00     0.123 H 
ENDROOT
BRANCH   5  10
ATOM     10  N1  UA3 d          37.658   0.423  13.316  0.00  0.00    -0.280 N 
ATOM     11  C2  UA3 d          36.506   0.857  12.598  0.00  0.00     0.331 A 
ATOM     12  O2  UA3 d          35.664   0.109  12.248  0.00  0.00    -0.246 OA
ATOM     13  N3  UA3 d          36.488   2.239  12.365  0.00  0.00    -0.275 N 
ATOM     14  C4  UA3 d          37.454   3.198  12.748  0.00  0.00     0.250 A 
ATOM     15  H1  UA3 d          35.695   2.591  11.868  0.00  0.00     0.173 HD
ATOM     16  O4  UA3 d          37.257   4.355  12.451  0.00  0.00    -0.268 OA
ATOM     17  C5  UA3 d          38.596   2.661  13.469  0.00  0.00    -0.002 A 
ATOM     18  C6  UA3 d          38.670   1.343  13.727  0.00  0.00    -0.008 A 
ATOM     19  H2  UA3 d          39.392   3.326  13.800  0.00  0.00     0.094 H 
ATOM     20  H3  UA3 d          39.535   0.963  14.268  0.00  0.00     0.112 H 
ENDBRANCH   5  10
BRANCH   4  21
ATOM     21  O2  UA3 d          39.577  -0.954  11.223  0.00  0.00    -0.388 OA
ATOM     22  H10 UA3 d          40.242  -1.626  11.134  0.00  0.00     0.210 HD
ENDBRANCH   4  21
BRANCH   1  23
ATOM     23  C5  UA3 d          40.181  -3.339  14.391  0.00  0.00     0.043 C 
ATOM     24  H5  UA3 d          41.101  -3.055  13.859  0.00  0.00     0.078 H 
ATOM     25  H6  UA3 d          40.255  -3.028  15.443  0.00  0.00     0.078 H 
BRANCH  23  26
ATOM     26  O5  UA3 d          40.092  -4.907  14.371  0.00  0.00    -0.398 OA
ATOM     27  H4  UA3 d          40.373  -5.250  15.211  0.00  0.00     0.209 HD
ENDBRANCH  23  26
ENDBRANCH   1  23
BRANCH   3  28
ATOM     28  O3  UA3 d          37.554  -4.121  12.292  0.00  0.00    -0.272 OA
BRANCH  28  29
ATOM     29  P   UA3 d          36.477  -4.750  13.138  0.00  0.00     0.422 P 
ATOM     30  O3P UA3 d          35.438  -3.570  13.454  0.00  0.00    -0.617 OA
ATOM     31  O1P UA3 d          37.102  -5.336  14.370  0.00  0.00    -0.617 OA
ATOM     32  O2P UA3 d          35.773  -5.810  12.334  0.00  0.00    -0.617 OA
ENDBRANCH  28  29
ENDBRANCH   3  28
TORSDOF 6
ENDMDL
MODEL 3
REMARK VINA RESULT:      -4.8      1.889      3.193
REMARK  6 active torsions:
REMARK  status: ('A' for Active; 'I' for Inactive)
REMARK    1  A    between atoms: C1_17  and  N1_1 
REMARK    2  A    between atoms: C5_10  and  O5_9 
REMARK    3  A    between atoms: C4_11  and  C5_10 
REMARK    4  A    between atoms: C3_13  and  O3_14 
REMARK    5  A    between atoms: O3_14  and  P_19 
REMARK    6  A    between atoms: C2_15  and  O2_16 
ROOT
ATOM      1  C4  UA3 d          37.120   1.596  13.151  0.00  0.00     0.089 C 
ATOM      2  O4  UA3 d          36.576   0.406  13.713  0.00  0.00    -0.353 OA
ATOM      3  C3  UA3 d          38.141   1.756  12.241  0.00  0.00     0.107 C 
ATOM      4  C2  UA3 d          38.014   0.085  11.755  0.00  0.00     0.106 C 
ATOM      5  C1  UA3 d          37.743  -0.542  13.297  0.00  0.00     0.141 C 
ATOM      6  H7  UA3 d          37.786   1.769  14.009  0.00  0.00     0.090 H 
ATOM      7  H8  UA3 d          37.760   2.434  11.464  0.00  0.00     0.092 H 
ATOM      8  H9  UA3 d          38.983  -0.303  11.406  0.00  0.00     0.093 H 
ATOM      9  H11 UA3 d          38.599  -0.499  13.988  0.00  0.00     0.123 H 
ENDROOT
BRANCH   5  10
ATOM     10  N1  UA3 d          37.357  -1.862  13.014  0.00  0.00    -0.280 N 
ATOM     11  C2  UA3 d          38.397  -2.838  13.012  0.00  0.00     0.331 A 
ATOM     12  O2  UA3 d          39.517  -2.563  13.254  0.00  0.00    -0.246 OA
ATOM     13  N3  UA3 d          37.943  -4.127  12.703  0.00  0.00    -0.275 N 
ATOM     14  C4  UA3 d          36.624  -4.537  12.401  0.00  0.00     0.250 A 
ATOM     15  H1  UA3 d          38.638  -4.847  12.695  0.00  0.00     0.173 HD
ATOM     16  O4  UA3 d          36.432  -5.707  12.157  0.00  0.00    -0.268 OA
ATOM     17  C5  UA3 d          35.634  -3.472  12.420  0.00  0.00    -0.002 A 
ATOM     18  C6  UA3 d          36.005  -2.213  12.713  0.00  0.00    -0.008 A 
ATOM     19  H2  UA3 d          34.592  -3.694  12.196  0.00  0.00     0.094 H 
ATOM     20  H3  UA3 d          35.247  -1.432  12.721  0.00  0.00     0.112 H 
ENDBRANCH   5  10
BRANCH   4  21
ATOM     21  O2  UA3 d          37.008  -0.038  10.462  0.00  0.00    -0.388 OA
ATOM     22  H10 UA3 d          36.231   0.486  10.616  0.00  0.00     0.210 HD
ENDBRANCH   4  21
BRANCH   1  23
ATOM     23  C5  UA3 d          36.353   2.671  13.347  0.00  0.00     0.043 C 
ATOM     24  H5  UA3 d          35.332   2.314  13.550  0.00  0.00     0.078 H 
ATOM     25  H6  UA3 d          36.741   3.194  14.233  0.00  0.00     0.078 H 
BRANCH  23  26
ATOM     26  O5  UA3 d          36.259   3.725  12.185  0.00  0.00    -0.398 OA
ATOM     27  H4  UA3 d          37.019   3.641  11.621  0.00  0.00     0.209 HD
ENDBRANCH  23  26
ENDBRANCH   1  23
BRANCH   3  28
ATOM     28  O3  UA3 d          39.622   2.157  12.364  0.00  0.00    -0.272 OA
BRANCH  28  29
ATOM     29  P   UA3 d          40.303   3.496  12.242  0.00  0.00     0.422 P 
ATOM     30  O3P UA3 d          39.150   4.526  11.820  0.00  0.00    -0.617 OA
ATOM     31  O1P UA3 d          41.407   3.393  11.232  0.00  0.00    -0.617 OA
ATOM     32  O2P UA3 d          40.841   3.901  13.589  0.00  0.00    -0.617 OA
ENDBRANCH  28  29
ENDBRANCH   3  28
TORSDOF 6
ENDMDL
MODEL 4
REMARK VINA RESULT:      -4.5      3.188      6.665
REMARK  6 active torsions:
REMARK  status: ('A' for Active; 'I' for Inactive)
REMARK    1  A    between atoms: C1_17  and  N1_1 
REMARK    2  A    between atoms: C5_10  and  O5_9 
REMARK    3  A    between atoms: C4_11  and  C5_10 
REMARK    4  A    between atoms: C3_13  and  O3_14 
REMARK    5  A    between atoms: O3_14  and  P_19 
REMARK    6  A    between atoms: C2_15  and  O2_16 
ROOT
ATOM      1  C4  UA3 d          36.893  -2.228  11.573  0.00  0.00     0.089 C 
ATOM      2  O4  UA3 d          36.667  -0.858  11.258  0.00  0.00    -0.353 OA
ATOM      3  C3  UA3 d          37.788  -2.795  12.451  0.00  0.00     0.107 C 
ATOM      4  C2  UA3 d          38.005  -1.269  13.269  0.00  0.00     0.106 C 
ATOM      5  C1  UA3 d          37.985  -0.306  11.884  0.00  0.00     0.141 C 
ATOM      6  H7  UA3 d          37.560  -2.379  10.712  0.00  0.00     0.090 H 
ATOM      7  H8  UA3 d          37.215  -3.506  13.063  0.00  0.00     0.092 H 
ATOM      8  H9  UA3 d          39.010  -1.193  13.710  0.00  0.00     0.093 H 
ATOM      9  H11 UA3 d          38.854  -0.410  11.217  0.00  0.00     0.123 H 
ENDROOT
BRANCH   5  10
ATOM     10  N1  UA3 d          37.884   0.985  12.426  0.00  0.00    -0.280 N 
ATOM     11  C2  UA3 d          39.113   1.643  12.723  0.00  0.00     0.331 A 
ATOM     12  O2  UA3 d          40.160   1.145  12.511  0.00  0.00    -0.246 OA
ATOM     13  N3  UA3 d          38.937   2.918  13.279  0.00  0.00    -0.275 N 
ATOM     14  C4  UA3 d          37.723   3.582  13.565  0.00  0.00     0.250 A 
ATOM     15  H1  UA3 d          39.774   3.420  13.499  0.00  0.00     0.173 HD
ATOM     16  O4  UA3 d          37.779   4.690  14.050  0.00  0.00    -0.268 OA
ATOM     17  C5  UA3 d          36.523   2.830  13.235  0.00  0.00    -0.002 A 
ATOM     18  C6  UA3 d          36.624   1.602  12.696  0.00  0.00    -0.008 A 
ATOM     19  H2  UA3 d          35.541   3.261  13.425  0.00  0.00     0.094 H 
ATOM     20  H3  UA3 d          35.712   1.058  12.458  0.00  0.00     0.112 H 
ENDBRANCH   5  10
BRANCH   4  21
ATOM     21  O2  UA3 d          36.967  -1.173  14.538  0.00  0.00    -0.388 OA
ATOM     22  H10 UA3 d          36.492  -0.351  14.496  0.00  0.00     0.210 HD
ENDBRANCH   4  21
BRANCH   1  23
ATOM     23  C5  UA3 d          35.920  -3.036  11.143  0.00  0.00     0.043 C 
ATOM     24  H5  UA3 d          36.280  -3.522  10.224  0.00  0.00     0.078 H 
ATOM     25  H6  UA3 d          35.758  -3.796  11.921  0.00  0.00     0.078 H 
BRANCH  23  26
ATOM     26  O5  UA3 d          34.525  -2.392  10.819  0.00  0.00    -0.398 OA
ATOM     27  H4  UA3 d          34.302  -2.561   9.911  0.00  0.00     0.209 HD
ENDBRANCH  23  26
ENDBRANCH   1  23
BRANCH   3  28
ATOM     28  O3  UA3 d          39.148  -3.497  12.278  0.00  0.00    -0.272 OA
BRANCH  28  29
ATOM     29  P   UA3 d          39.917  -4.414  13.193  0.00  0.00     0.422 P 
ATOM     30  O3P UA3 d          41.150  -3.544  13.734  0.00  0.00    -0.617 OA
ATOM     31  O1P UA3 d          40.341  -5.630  12.423  0.00  0.00    -0.617 OA
ATOM     32  O2P UA3 d          39.045  -4.793  14.361  0.00  0.00    -0.617 OA
ENDBRANCH  28  29
ENDBRANCH   3  28
TORSDOF 6
ENDMDL
MODEL 5
REMARK VINA RESULT:      -4.4      2.295      2.860
REMARK  6 active torsions:
REMARK  status: ('A' for Active; 'I' for Inactive)
REMARK    1  A    between atoms: C1_17  and  N1_1 
REMARK    2  A    between atoms: C5_10  and  O5_9 
REMARK    3  A    between atoms: C4_11  and  C5_10 
REMARK    4  A    between atoms: C3_13  and  O3_14 
REMARK    5  A    between atoms: O3_14  and  P_19 
REMARK    6  A    between atoms: C2_15  and  O2_16 
ROOT
ATOM      1  C4  UA3 d          40.118   1.825  12.237  0.00  0.00     0.089 C 
ATOM      2  O4  UA3 d          40.261   0.669  11.418  0.00  0.00    -0.353 OA
ATOM      3  C3  UA3 d          39.437   1.989  13.421  0.00  0.00     0.107 C 
ATOM      4  C2  UA3 d          39.389   0.263  13.672  0.00  0.00     0.106 C 
ATOM      5  C1  UA3 d          39.103  -0.156  12.063  0.00  0.00     0.141 C 
ATOM      6  H7  UA3 d          39.283   2.220  11.640  0.00  0.00     0.090 H 
ATOM      7  H8  UA3 d          40.134   2.481  14.115  0.00  0.00     0.092 H 
ATOM      8  H9  UA3 d          38.502  -0.031  14.253  0.00  0.00     0.093 H 
ATOM      9  H11 UA3 d          38.112   0.113  11.668  0.00  0.00     0.123 H 
ENDROOT
BRANCH   5  10
ATOM     10  N1  UA3 d          39.308  -1.544  12.080  0.00  0.00    -0.280 N 
ATOM     11  C2  UA3 d          38.161  -2.348  12.343  0.00  0.00     0.331 A 
ATOM     12  O2  UA3 d          37.093  -1.881  12.519  0.00  0.00    -0.246 OA
ATOM     13  N3  UA3 d          38.442  -3.722  12.365  0.00  0.00    -0.275 N 
ATOM     14  C4  UA3 d          39.688  -4.357  12.167  0.00  0.00     0.250 A 
ATOM     15  H1  UA3 d          37.664  -4.326  12.542  0.00  0.00     0.173 HD
ATOM     16  O4  UA3 d          39.728  -5.566  12.226  0.00  0.00    -0.268 OA
ATOM     17  C5  UA3 d          40.801  -3.457  11.913  0.00  0.00    -0.002 A 
ATOM     18  C6  UA3 d          40.596  -2.128  11.876  0.00  0.00    -0.008 A 
ATOM     19  H2  UA3 d          41.800  -3.857  11.752  0.00  0.00     0.094 H 
ATOM     20  H3  UA3 d          41.443  -1.472  11.684  0.00  0.00     0.112 H 
ENDBRANCH   5  10
BRANCH   4  21
ATOM     21  O2  UA3 d          40.675  -0.197  14.585  0.00  0.00    -0.388 OA
ATOM     22  H10 UA3 d          41.461  -0.185  14.052  0.00  0.00     0.210 HD
ENDBRANCH   4  21
BRANCH   1  23
ATOM     23  C5  UA3 d          40.982   2.797  11.933  0.00  0.00     0.043 C 
ATOM     24  H5  UA3 d          41.867   2.661  12.572  0.00  0.00     0.078 H 
ATOM     25  H6  UA3 d          41.267   2.664  10.879  0.00  0.00     0.078 H 
BRANCH  23  26
ATOM     26  O5  UA3 d          40.502   4.283  12.105  0.00  0.00    -0.398 OA
ATOM     27  H4  UA3 d          41.157   4.773  12.588  0.00  0.00     0.209 HD
ENDBRANCH  23  26
ENDBRANCH   1  23
BRANCH   3  28
ATOM     28  O3  UA3 d          38.077   2.612  13.789  0.00  0.00    -0.272 OA
BRANCH  28  29
ATOM     29  P   UA3 d          36.942   3.100  12.926  0.00  0.00     0.422 P 
ATOM     30  O3P UA3 d          37.540   4.325  12.084  0.00  0.00    -0.617 OA
ATOM     31  O1P UA3 d          35.792   3.491  13.808  0.00  0.00    -0.617 OA
ATOM     32  O2P UA3 d          36.541   2.008  11.971  0.00  0.00    -0.617 OA
ENDBRANCH  28  29
ENDBRANCH   3  28
TORSDOF 6
ENDMDL
MODEL 6
REMARK VINA RESULT:      -3.9      3.040      6.725
REMARK  6 active torsions:
REMARK  status: ('A' for Active; 'I' for Inactive)
REMARK    1  A    between atoms: C1_17  and  N1_1 
REMARK    2  A    between atoms: C5_10  and  O5_9 
REMARK    3  A    between atoms: C4_11  and  C5_10 
REMARK    4  A    between atoms: C3_13  and  O3_14 
REMARK    5  A    between atoms: O3_14  and  P_19 
REMARK    6  A    between atoms: C2_15  and  O2_16 
ROOT
ATOM      1  C4  UA3 d          38.431  -2.429  14.075  0.00  0.00     0.089 C 
ATOM      2  O4  UA3 d          38.658  -1.090  14.504  0.00  0.00    -0.353 OA
ATOM      3  C3  UA3 d          37.573  -2.915  13.115  0.00  0.00     0.107 C 
ATOM      4  C2  UA3 d          37.415  -1.328  12.406  0.00  0.00     0.106 C 
ATOM      5  C1  UA3 d          37.379  -0.473  13.858  0.00  0.00     0.141 C 
ATOM      6  H7  UA3 d          37.721  -2.634  14.889  0.00  0.00     0.090 H 
ATOM      7  H8  UA3 d          38.168  -3.587  12.479  0.00  0.00     0.092 H 
ATOM      8  H9  UA3 d          36.434  -1.204  11.923  0.00  0.00     0.093 H 
ATOM      9  H11 UA3 d          36.477  -0.613  14.473  0.00  0.00     0.123 H 
ENDROOT
BRANCH   5  10
ATOM     10  N1  UA3 d          37.522   0.854  13.422  0.00  0.00    -0.280 N 
ATOM     11  C2  UA3 d          38.856   1.350  13.335  0.00  0.00     0.331 A 
ATOM     12  O2  UA3 d          39.792   0.683  13.594  0.00  0.00    -0.246 OA
ATOM     13  N3  UA3 d          38.922   2.685  12.913  0.00  0.00    -0.275 N 
ATOM     14  C4  UA3 d          37.851   3.548  12.587  0.00  0.00     0.250 A 
ATOM     15  H1  UA3 d          39.840   3.075  12.832  0.00  0.00     0.173 HD
ATOM     16  O4  UA3 d          38.115   4.678  12.241  0.00  0.00    -0.268 OA
ATOM     17  C5  UA3 d          36.529   2.957  12.713  0.00  0.00    -0.002 A 
ATOM     18  C6  UA3 d          36.398   1.679  13.110  0.00  0.00    -0.008 A 
ATOM     19  H2  UA3 d          35.644   3.549  12.485  0.00  0.00     0.094 H 
ATOM     20  H3  UA3 d          35.398   1.257  13.197  0.00  0.00     0.112 H 
ENDBRANCH   5  10
BRANCH   4  21
ATOM     21  O2  UA3 d          38.515  -1.153  11.198  0.00  0.00    -0.388 OA
ATOM     22  H10 UA3 d          39.357  -0.914  11.570  0.00  0.00     0.210 HD
ENDBRANCH   4  21
BRANCH   1  23
ATOM     23  C5  UA3 d          39.372  -3.282  14.489  0.00  0.00     0.043 C 
ATOM     24  H5  UA3 d          40.312  -3.000  13.992  0.00  0.00     0.078 H 
ATOM     25  H6  UA3 d          39.478  -3.152  15.575  0.00  0.00     0.078 H 
BRANCH  23  26
ATOM     26  O5  UA3 d          39.140  -4.813  14.220  0.00  0.00    -0.398 OA
ATOM     27  H4  UA3 d          39.544  -5.320  14.914  0.00  0.00     0.209 HD
ENDBRANCH  23  26
ENDBRANCH   1  23
BRANCH   3  28
ATOM     28  O3  UA3 d          36.199  -3.606  13.169  0.00  0.00    -0.272 OA
BRANCH  28  29
ATOM     29  P   UA3 d          35.726  -4.925  12.613  0.00  0.00     0.422 P 
ATOM     30  O3P UA3 d          35.030  -4.574  11.212  0.00  0.00    -0.617 OA
ATOM     31  O1P UA3 d          34.791  -5.563  13.597  0.00  0.00    -0.617 OA
ATOM     32  O2P UA3 d          36.917  -5.807  12.352  0.00  0.00    -0.617 OA
ENDBRANCH  28  29
ENDBRANCH   3  28
TORSDOF 6
ENDMDL
MODEL 7
REMARK VINA RESULT:      -3.6      1.622      2.831
REMARK  6 active torsions:
REMARK  status: ('A' for Active; 'I' for Inactive)
REMARK    1  A    between atoms: C1_17  and  N1_1 
REMARK    2  A    between atoms: C5_10  and  O5_9 
REMARK    3  A    between atoms: C4_11  and  C5_10 
REMARK    4  A    between atoms: C3_13  and  O3_14 
REMARK    5  A    between atoms: O3_14  and  P_19 
REMARK    6  A    between atoms: C2_15  and  O2_16 
ROOT
ATOM      1  C4  UA3 d          37.243   1.886  13.067  0.00  0.00     0.089 C 
ATOM      2  O4  UA3 d          36.470   0.777  13.514  0.00  0.00    -0.353 OA
ATOM      3  C3  UA3 d          38.466   1.913  12.436  0.00  0.00     0.107 C 
ATOM      4  C2  UA3 d          38.310   0.234  11.989  0.00  0.00     0.106 C 
ATOM      5  C1  UA3 d          37.611  -0.284  13.434  0.00  0.00     0.141 C 
ATOM      6  H7  UA3 d          37.691   2.052  14.058  0.00  0.00     0.090 H 
ATOM      7  H8  UA3 d          38.352   2.577  11.567  0.00  0.00     0.092 H 
ATOM      8  H9  UA3 d          39.294  -0.250  11.906  0.00  0.00     0.093 H 
ATOM      9  H11 UA3 d          38.271  -0.273  14.315  0.00  0.00     0.123 H 
ENDROOT
BRANCH   5  10
ATOM     10  N1  UA3 d          37.186  -1.582  13.107  0.00  0.00    -0.280 N 
ATOM     11  C2  UA3 d          35.959  -1.682  12.389  0.00  0.00     0.331 A 
ATOM     12  O2  UA3 d          35.340  -0.732  12.066  0.00  0.00    -0.246 OA
ATOM     13  N3  UA3 d          35.587  -3.005  12.114  0.00  0.00    -0.275 N 
ATOM     14  C4  UA3 d          36.269  -4.192  12.466  0.00  0.00     0.250 A 
ATOM     15  H1  UA3 d          34.733  -3.124  11.606  0.00  0.00     0.173 HD
ATOM     16  O4  UA3 d          35.781  -5.250  12.136  0.00  0.00    -0.268 OA
ATOM     17  C5  UA3 d          37.505  -3.990  13.203  0.00  0.00    -0.002 A 
ATOM     18  C6  UA3 d          37.920  -2.745  13.495  0.00  0.00    -0.008 A 
ATOM     19  H2  UA3 d          38.096  -4.848  13.519  0.00  0.00     0.094 H 
ATOM     20  H3  UA3 d          38.849  -2.617  14.048  0.00  0.00     0.112 H 
ENDBRANCH   5  10
BRANCH   4  21
ATOM     21  O2  UA3 d          37.645   0.122  10.491  0.00  0.00    -0.388 OA
ATOM     22  H10 UA3 d          37.296  -0.752  10.364  0.00  0.00     0.210 HD
ENDBRANCH   4  21
BRANCH   1  23
ATOM     23  C5  UA3 d          36.553   3.029  13.030  0.00  0.00     0.043 C 
ATOM     24  H5  UA3 d          35.525   2.783  12.725  0.00  0.00     0.078 H 
ATOM     25  H6  UA3 d          36.544   3.440  14.050  0.00  0.00     0.078 H 
BRANCH  23  26
ATOM     26  O5  UA3 d          37.068   4.164  12.073  0.00  0.00    -0.398 OA
ATOM     27  H4  UA3 d          37.510   4.832  12.584  0.00  0.00     0.209 HD
ENDBRANCH  23  26
ENDBRANCH   1  23
BRANCH   3  28
ATOM     28  O3  UA3 d          39.902   2.199  12.912  0.00  0.00    -0.272 OA
BRANCH  28  29
ATOM     29  P   UA3 d          40.564   3.475  13.365  0.00  0.00     0.422 P 
ATOM     30  O3P UA3 d          39.366   4.453  13.788  0.00  0.00    -0.617 OA
ATOM     31  O1P UA3 d          41.403   4.015  12.244  0.00  0.00    -0.617 OA
ATOM     32  O2P UA3 d          41.406   3.191  14.579  0.00  0.00    -0.617 OA
ENDBRANCH  28  29
ENDBRANCH   3  28
TORSDOF 6
ENDMDL
MODEL 8
REMARK VINA RESULT:      -3.0      3.245      6.860
REMARK  6 active torsions:
REMARK  status: ('A' for Active; 'I' for Inactive)
REMARK    1  A    between atoms: C1_17  and  N1_1 
REMARK    2  A    between atoms: C5_10  and  O5_9 
REMARK    3  A    between atoms: C4_11  and  C5_10 
REMARK    4  A    between atoms: C3_13  and  O3_14 
REMARK    5  A    between atoms: O3_14  and  P_19 
REMARK    6  A    between atoms: C2_15  and  O2_16 
ROOT
ATOM      1  C4  UA3 d          37.138  -2.416  12.108  0.00  0.00     0.089 C 
ATOM      2  O4  UA3 d          37.701  -1.329  11.381  0.00  0.00    -0.353 OA
ATOM      3  C3  UA3 d          37.345  -2.807  13.412  0.00  0.00     0.107 C 
ATOM      4  C2  UA3 d          38.012  -1.244  13.810  0.00  0.00     0.106 C 
ATOM      5  C1  UA3 d          38.868  -1.029  12.373  0.00  0.00     0.141 C 
ATOM      6  H7  UA3 d          37.873  -3.136  11.720  0.00  0.00     0.090 H 
ATOM      7  H8  UA3 d          36.349  -2.949  13.855  0.00  0.00     0.092 H 
ATOM      8  H9  UA3 d          38.747  -1.321  14.625  0.00  0.00     0.093 H 
ATOM      9  H11 UA3 d          39.734  -1.692  12.229  0.00  0.00     0.123 H 
ENDROOT
BRANCH   5  10
ATOM     10  N1  UA3 d          39.241   0.321  12.453  0.00  0.00    -0.280 N 
ATOM     11  C2  UA3 d          40.590   0.624  12.106  0.00  0.00     0.331 A 
ATOM     12  O2  UA3 d          41.350  -0.204  11.752  0.00  0.00    -0.246 OA
ATOM     13  N3  UA3 d          40.899   1.987  12.227  0.00  0.00    -0.275 N 
ATOM     14  C4  UA3 d          40.050   3.037  12.644  0.00  0.00     0.250 A 
ATOM     15  H1  UA3 d          41.835   2.247  11.989  0.00  0.00     0.173 HD
ATOM     16  O4  UA3 d          40.507   4.157  12.685  0.00  0.00    -0.268 OA
ATOM     17  C5  UA3 d          38.697   2.631  12.985  0.00  0.00    -0.002 A 
ATOM     18  C6  UA3 d          38.337   1.339  12.886  0.00  0.00    -0.008 A 
ATOM     19  H2  UA3 d          37.974   3.372  13.320  0.00  0.00     0.094 H 
ATOM     20  H3  UA3 d          37.318   1.057  13.146  0.00  0.00     0.112 H 
ENDBRANCH   5  10
BRANCH   4  21
ATOM     21  O2  UA3 d          36.822  -0.271  14.391  0.00  0.00    -0.388 OA
ATOM     22  H10 UA3 d          36.742   0.496  13.836  0.00  0.00     0.210 HD
ENDBRANCH   4  21
BRANCH   1  23
ATOM     23  C5  UA3 d          36.076  -2.959  11.508  0.00  0.00     0.043 C 
ATOM     24  H5  UA3 d          36.451  -3.664  10.752  0.00  0.00     0.078 H 
ATOM     25  H6  UA3 d          35.512  -3.509  12.275  0.00  0.00     0.078 H 
BRANCH  23  26
ATOM     26  O5  UA3 d          35.069  -1.991  10.789  0.00  0.00    -0.398 OA
ATOM     27  H4  UA3 d          34.238  -2.000  11.250  0.00  0.00     0.209 HD
ENDBRANCH  23  26
ENDBRANCH   1  23
BRANCH   3  28
ATOM     28  O3  UA3 d          38.184  -3.919  14.067  0.00  0.00    -0.272 OA
BRANCH  28  29
ATOM     29  P   UA3 d          39.082  -4.972  13.469  0.00  0.00     0.422 P 
ATOM     30  O3P UA3 d          38.154  -5.803  12.460  0.00  0.00    -0.617 OA
ATOM     31  O1P UA3 d          39.656  -5.809  14.574  0.00  0.00    -0.617 OA
ATOM     32  O2P UA3 d          40.173  -4.300  12.679  0.00  0.00    -0.617 OA
ENDBRANCH  28  29
ENDBRANCH   3  28
TORSDOF 6
ENDMDL
