MODEL 1
REMARK VINA RESULT:      -7.5      0.000      0.000
REMARK  23 active torsions:
REMARK  status: ('A' for Active; 'I' for Inactive)
REMARK    1  A    between atoms: N4B_18  and  C1A_1 
REMARK    2  A    between atoms: C2A_2  and  O2A_8 
REMARK    3  A    between atoms: C3A_3  and  O3A_9 
REMARK    4  A    between atoms: C4A_4  and  O4A_10 
REMARK    5  A    between atoms: C5A_5  and  C6A_6 
REMARK    6  A    between atoms: C6A_6  and  O6A_11 
REMARK    7  A    between atoms: O4C_30  and  C1B_12 
REMARK    8  A    between atoms: C2B_13  and  O2B_19 
REMARK    9  A    between atoms: C3B_14  and  O3B_20 
REMARK   10  A    between atoms: C4B_15  and  N4B_18 
REMARK   11  A    between atoms: C5B_16  and  C6B_17 
REMARK   12  A    between atoms: O4D_42  and  C1C_22 
REMARK   13  A    between atoms: C2C_23  and  O2C_28 
REMARK   14  A    between atoms: C3C_24  and  O3C_29 
REMARK   15  A    between atoms: C4C_25  and  O4C_30 
REMARK   16  A    between atoms: C5C_26  and  C6C_27 
REMARK   17  A    between atoms: C6C_27  and  O6C_32 
REMARK   18  A    between atoms: C1D_33  and  O1D_39 
REMARK   19  A    between atoms: C2D_34  and  O2D_40 
REMARK   20  A    between atoms: C3D_35  and  O3D_41 
REMARK   21  A    between atoms: C4D_36  and  O4D_42 
REMARK   22  A    between atoms: C5D_37  and  C6D_38 
REMARK   23  A    between atoms: C6D_38  and  O6D_44 
ROOT
ATOM      1  C1B ACR d         -18.278  -6.849  -5.252  0.00  0.00     0.159 C 
ATOM      2  C2B ACR d         -17.814  -5.678  -6.117  0.00  0.00     0.110 C 
ATOM      3  C3B ACR d         -18.906  -5.294  -7.128  0.00  0.00     0.094 C 
ATOM      4  C4B ACR d         -19.224  -6.487  -8.030  0.00  0.00     0.154 C 
ATOM      5  C5B ACR d         -19.667  -7.657  -7.125  0.00  0.00     0.068 C 
ATOM      6  O5B ACR d         -18.648  -7.920  -6.127  0.00  0.00    -0.351 OA
ATOM      7  H12 ACR d         -17.460  -7.175  -4.595  0.00  0.00     0.133 H 
ATOM      8  H13 ACR d         -16.898  -5.960  -6.657  0.00  0.00     0.094 H 
ATOM      9  H14 ACR d         -19.813  -4.994  -6.582  0.00  0.00     0.090 H 
ATOM     10  H15 ACR d         -18.285  -6.797  -8.510  0.00  0.00     0.092 H 
ATOM     11  H16 ACR d         -20.604  -7.375  -6.625  0.00  0.00     0.086 H 
ENDROOT
BRANCH   1  12
ATOM     12  O4C ACR d         -19.401  -6.439  -4.446  0.00  0.00    -0.348 OA
BRANCH  12  13
ATOM     13  C4C ACR d         -19.841  -7.363  -3.451  0.00  0.00     0.096 C 
ATOM     14  C3C ACR d         -19.342  -6.875  -2.090  0.00  0.00     0.092 C 
ATOM     15  C2C ACR d         -19.956  -7.631  -0.909  0.00  0.00     0.110 C 
ATOM     16  H26 ACR d         -19.634  -5.819  -1.990  0.00  0.00     0.091 H 
ATOM     17  C1C ACR d         -21.474  -7.738  -1.020  0.00  0.00     0.159 C 
ATOM     18  H25 ACR d         -19.518  -8.637  -0.837  0.00  0.00     0.094 H 
ATOM     19  O5C ACR d         -21.811  -8.251  -2.321  0.00  0.00    -0.348 OA
ATOM     20  H24 ACR d         -21.855  -8.418  -0.245  0.00  0.00     0.133 H 
ATOM     21  C5C ACR d         -21.370  -7.466  -3.448  0.00  0.00     0.089 C 
ATOM     22  H28 ACR d         -21.780  -6.449  -3.356  0.00  0.00     0.090 H 
ATOM     23  H27 ACR d         -19.417  -8.356  -3.662  0.00  0.00     0.091 H 
BRANCH  14  24
ATOM     24  O3C ACR d         -17.910  -6.944  -2.050  0.00  0.00    -0.390 OA
ATOM     25  H32 ACR d         -17.549  -6.395  -2.736  0.00  0.00     0.210 HD
ENDBRANCH  14  24
BRANCH  15  26
ATOM     26  O2C ACR d         -19.663  -6.865   0.254  0.00  0.00    -0.388 OA
ATOM     27  H31 ACR d         -20.046  -5.999   0.166  0.00  0.00     0.210 HD
ENDBRANCH  15  26
BRANCH  17  28
ATOM     28  O4D ACR d         -22.058  -6.440  -0.846  0.00  0.00    -0.348 OA
BRANCH  28  29
ATOM     29  C4D ACR d         -23.174  -6.319   0.046  0.00  0.00     0.096 C 
ATOM     30  C3D ACR d         -22.754  -5.217   1.024  0.00  0.00     0.092 C 
ATOM     31  C2D ACR d         -23.862  -4.813   2.004  0.00  0.00     0.110 C 
ATOM     32  H36 ACR d         -22.514  -4.327   0.424  0.00  0.00     0.091 H 
ATOM     33  C1D ACR d         -25.238  -4.594   1.319  0.00  0.00     0.156 C 
ATOM     34  H35 ACR d         -23.986  -5.624   2.736  0.00  0.00     0.094 H 
ATOM     35  O5D ACR d         -25.529  -5.567   0.293  0.00  0.00    -0.349 OA
ATOM     36  H34 ACR d         -26.004  -4.704   2.101  0.00  0.00     0.133 H 
ATOM     37  C5D ACR d         -24.474  -5.856  -0.654  0.00  0.00     0.089 C 
ATOM     38  H38 ACR d         -24.231  -4.923  -1.183  0.00  0.00     0.090 H 
ATOM     39  H37 ACR d         -23.354  -7.272   0.566  0.00  0.00     0.091 H 
BRANCH  30  40
ATOM     40  O3D ACR d         -21.558  -5.599   1.734  0.00  0.00    -0.390 OA
ATOM     41  H43 ACR d         -20.855  -5.744   1.113  0.00  0.00     0.210 HD
ENDBRANCH  30  40
BRANCH  31  42
ATOM     42  O2D ACR d         -23.417  -3.631   2.700  0.00  0.00    -0.388 OA
ATOM     43  H42 ACR d         -23.259  -2.936   2.071  0.00  0.00     0.210 HD
ENDBRANCH  31  42
BRANCH  33  44
ATOM     44  O1D ACR d         -25.357  -3.268   0.776  0.00  0.00    -0.369 OA
ATOM     45  H41 ACR d         -25.165  -2.630   1.454  0.00  0.00     0.212 HD
ENDBRANCH  33  44
BRANCH  37  46
ATOM     46  C6D ACR d         -25.019  -6.842  -1.692  0.00  0.00     0.043 C 
ATOM     47  H39 ACR d         -25.190  -7.820  -1.217  0.00  0.00     0.078 H 
ATOM     48  H40 ACR d         -24.293  -6.953  -2.511  0.00  0.00     0.078 H 
BRANCH  46  49
ATOM     49  O6D ACR d         -26.261  -6.336  -2.215  0.00  0.00    -0.398 OA
ATOM     50  H44 ACR d         -26.886  -6.240  -1.506  0.00  0.00     0.209 HD
ENDBRANCH  46  49
ENDBRANCH  37  46
ENDBRANCH  28  29
ENDBRANCH  17  28
BRANCH  21  51
ATOM     51  C6C ACR d         -21.921  -8.093  -4.725  0.00  0.00     0.043 C 
ATOM     52  H29 ACR d         -21.451  -9.074  -4.883  0.00  0.00     0.078 H 
ATOM     53  H30 ACR d         -21.699  -7.437  -5.580  0.00  0.00     0.078 H 
BRANCH  51  54
ATOM     54  O6C ACR d         -23.342  -8.258  -4.606  0.00  0.00    -0.398 OA
ATOM     55  H33 ACR d         -23.533  -8.825  -3.868  0.00  0.00     0.209 HD
ENDBRANCH  51  54
ENDBRANCH  21  51
ENDBRANCH  12  13
ENDBRANCH   1  12
BRANCH   2  56
ATOM     56  O2B ACR d         -17.549  -4.562  -5.268  0.00  0.00    -0.388 OA
ATOM     57  H22 ACR d         -18.344  -4.322  -4.805  0.00  0.00     0.210 HD
ENDBRANCH   2  56
BRANCH   3  58
ATOM     58  O3B ACR d         -18.469  -4.218  -7.950  0.00  0.00    -0.391 OA
ATOM     59  H23 ACR d         -18.267  -3.466  -7.406  0.00  0.00     0.210 HD
ENDBRANCH   3  58
BRANCH   5  60
ATOM     60  C6B ACR d         -19.895  -8.943  -7.912  0.00  0.00    -0.050 C 
ATOM     61  H17 ACR d         -20.208  -9.743  -7.224  0.00  0.00     0.031 H 
ATOM     62  H18 ACR d         -18.962  -9.236  -8.415  0.00  0.00     0.031 H 
ATOM     63  H19 ACR d         -20.681  -8.779  -8.663  0.00  0.00     0.031 H 
ENDBRANCH   5  60
BRANCH   4  64
ATOM     64  N4B ACR d         -20.142  -6.131  -9.134  0.00  0.00    -0.056 N 
ATOM     65  H20 ACR d         -20.876  -6.822  -9.146  0.00  0.00     0.278 HD
ATOM     66  H21 ACR d         -20.534  -5.229  -8.916  0.00  0.00     0.278 HD
BRANCH  64  67
ATOM     67  C1A ACR d         -19.590  -6.050 -10.513  0.00  0.00     0.146 C 
ATOM     68  C2A ACR d         -20.617  -5.726 -11.618  0.00  0.00     0.093 C 
ATOM     69  C3A ACR d         -21.529  -6.932 -11.846  0.00  0.00     0.091 C 
ATOM     70  H2  ACR d         -20.079  -5.495 -12.549  0.00  0.00     0.090 H 
ATOM     71  C4A ACR d         -20.704  -8.051 -12.452  0.00  0.00     0.086 C 
ATOM     72  H3  ACR d         -21.873  -7.265 -10.856  0.00  0.00     0.091 H 
ATOM     73  C5A ACR d         -19.403  -8.245 -11.702  0.00  0.00    -0.027 C 
ATOM     74  H4  ACR d         -20.476  -7.800 -13.498  0.00  0.00     0.094 H 
ATOM     75  C7A ACR d         -18.832  -7.306 -10.932  0.00  0.00    -0.064 C 
ATOM     76  H7  ACR d         -17.805  -7.443 -10.598  0.00  0.00     0.080 H 
ATOM     77  H1  ACR d         -18.867  -5.222 -10.498  0.00  0.00     0.095 H 
BRANCH  68  78
ATOM     78  O2A ACR d         -21.414  -4.609 -11.251  0.00  0.00    -0.390 OA
ATOM     79  H8  ACR d         -22.031  -4.418 -11.949  0.00  0.00     0.210 HD
ENDBRANCH  68  78
BRANCH  69  80
ATOM     80  O3A ACR d         -22.740  -6.676 -12.642  0.00  0.00    -0.390 OA
ATOM     81  H9  ACR d         -23.238  -5.972 -12.242  0.00  0.00     0.210 HD
ENDBRANCH  69  80
BRANCH  71  82
ATOM     82  O4A ACR d         -21.463  -9.259 -12.413  0.00  0.00    -0.388 OA
ATOM     83  H10 ACR d         -22.279  -9.134 -12.884  0.00  0.00     0.210 HD
ENDBRANCH  71  82
BRANCH  73  84
ATOM     84  C6A ACR d         -18.732  -9.569 -11.899  0.00  0.00     0.039 C 
ATOM     85  H5  ACR d         -19.445 -10.326 -12.258  0.00  0.00     0.081 H 
ATOM     86  H6  ACR d         -18.264  -9.919 -10.968  0.00  0.00     0.081 H 
BRANCH  84  87
ATOM     87  O6A ACR d         -17.738  -9.278 -12.902  0.00  0.00    -0.397 OA
ATOM     88  H11 ACR d         -17.250 -10.068 -13.100  0.00  0.00     0.209 HD
ENDBRANCH  84  87
ENDBRANCH  73  84
ENDBRANCH  64  67
ENDBRANCH   4  64
TORSDOF 23
ENDMDL
