MODEL 1
REMARK VINA RESULT:      -7.2      0.000      0.000
REMARK  23 active torsions:
REMARK  status: ('A' for Active; 'I' for Inactive)
REMARK    1  A    between atoms: N4B_18  and  C1A_1 
REMARK    2  A    between atoms: C2A_2  and  O2A_8 
REMARK    3  A    between atoms: C3A_3  and  O3A_9 
REMARK    4  A    between atoms: C4A_4  and  O4A_10 
REMARK    5  A    between atoms: C5A_5  and  C6A_6 
REMARK    6  A    between atoms: C6A_6  and  O6A_11 
REMARK    7  A    between atoms: O4C_30  and  C1B_12 
REMARK    8  A    between atoms: C2B_13  and  O2B_19 
REMARK    9  A    between atoms: C3B_14  and  O3B_20 
REMARK   10  A    between atoms: C4B_15  and  N4B_18 
REMARK   11  A    between atoms: C5B_16  and  C6B_17 
REMARK   12  A    between atoms: O4D_42  and  C1C_22 
REMARK   13  A    between atoms: C2C_23  and  O2C_28 
REMARK   14  A    between atoms: C3C_24  and  O3C_29 
REMARK   15  A    between atoms: C4C_25  and  O4C_30 
REMARK   16  A    between atoms: C5C_26  and  C6C_27 
REMARK   17  A    between atoms: C6C_27  and  O6C_32 
REMARK   18  A    between atoms: C1D_33  and  O1D_39 
REMARK   19  A    between atoms: C2D_34  and  O2D_40 
REMARK   20  A    between atoms: C3D_35  and  O3D_41 
REMARK   21  A    between atoms: C4D_36  and  O4D_42 
REMARK   22  A    between atoms: C5D_37  and  C6D_38 
REMARK   23  A    between atoms: C6D_38  and  O6D_44 
ROOT
ATOM      1  C1B ACR d         -18.092  -6.826  -5.289  0.00  0.00     0.159 C 
ATOM      2  C2B ACR d         -17.675  -5.642  -6.160  0.00  0.00     0.110 C 
ATOM      3  C3B ACR d         -18.805  -5.271  -7.133  0.00  0.00     0.094 C 
ATOM      4  C4B ACR d         -19.132  -6.463  -8.033  0.00  0.00     0.154 C 
ATOM      5  C5B ACR d         -19.525  -7.646  -7.122  0.00  0.00     0.068 C 
ATOM      6  O5B ACR d         -18.471  -7.897  -6.158  0.00  0.00    -0.351 OA
ATOM      7  H12 ACR d         -17.248  -7.142  -4.660  0.00  0.00     0.133 H 
ATOM      8  H13 ACR d         -16.772  -5.905  -6.731  0.00  0.00     0.094 H 
ATOM      9  H14 ACR d         -19.699  -4.989  -6.557  0.00  0.00     0.090 H 
ATOM     10  H15 ACR d         -18.203  -6.755  -8.544  0.00  0.00     0.092 H 
ATOM     11  H16 ACR d         -20.451  -7.383  -6.590  0.00  0.00     0.086 H 
ENDROOT
BRANCH   1  12
ATOM     12  O4C ACR d         -19.196  -6.440  -4.445  0.00  0.00    -0.348 OA
BRANCH  12  13
ATOM     13  C4C ACR d         -19.176  -6.935  -3.106  0.00  0.00     0.096 C 
ATOM     14  C3C ACR d         -18.878  -5.764  -2.168  0.00  0.00     0.092 C 
ATOM     15  C2C ACR d         -19.081  -6.103  -0.688  0.00  0.00     0.110 C 
ATOM     16  H26 ACR d         -19.580  -4.954  -2.416  0.00  0.00     0.091 H 
ATOM     17  C1C ACR d         -20.419  -6.789  -0.432  0.00  0.00     0.159 C 
ATOM     18  H25 ACR d         -18.261  -6.745  -0.333  0.00  0.00     0.094 H 
ATOM     19  O5C ACR d         -20.557  -7.895  -1.341  0.00  0.00    -0.348 OA
ATOM     20  H24 ACR d         -20.455  -7.156   0.604  0.00  0.00     0.133 H 
ATOM     21  C5C ACR d         -20.523  -7.572  -2.746  0.00  0.00     0.089 C 
ATOM     22  H28 ACR d         -21.315  -6.840  -2.963  0.00  0.00     0.090 H 
ATOM     23  H27 ACR d         -18.385  -7.692  -3.009  0.00  0.00     0.091 H 
BRANCH  14  24
ATOM     24  O3C ACR d         -17.547  -5.286  -2.403  0.00  0.00    -0.390 OA
ATOM     25  H32 ACR d         -17.012  -5.995  -2.737  0.00  0.00     0.210 HD
ENDBRANCH  14  24
BRANCH  15  26
ATOM     26  O2C ACR d         -19.092  -4.863   0.009  0.00  0.00    -0.388 OA
ATOM     27  H31 ACR d         -18.282  -4.768   0.497  0.00  0.00     0.210 HD
ENDBRANCH  15  26
BRANCH  17  28
ATOM     28  O4D ACR d         -21.483  -5.852  -0.645  0.00  0.00    -0.348 OA
BRANCH  28  29
ATOM     29  C4D ACR d         -22.617  -5.913   0.231  0.00  0.00     0.096 C 
ATOM     30  C3D ACR d         -22.446  -4.698   1.149  0.00  0.00     0.092 C 
ATOM     31  C2D ACR d         -23.632  -4.476   2.096  0.00  0.00     0.110 C 
ATOM     32  H36 ACR d         -22.380  -3.811   0.502  0.00  0.00     0.091 H 
ATOM     33  C1D ACR d         -25.010  -4.576   1.390  0.00  0.00     0.156 C 
ATOM     34  H35 ACR d         -23.602  -5.255   2.872  0.00  0.00     0.094 H 
ATOM     35  O5D ACR d         -25.080  -5.641   0.418  0.00  0.00    -0.349 OA
ATOM     36  H34 ACR d         -25.752  -4.797   2.171  0.00  0.00     0.133 H 
ATOM     37  C5D ACR d         -23.971  -5.760  -0.504  0.00  0.00     0.089 C 
ATOM     38  H38 ACR d         -23.912  -4.826  -1.082  0.00  0.00     0.090 H 
ATOM     39  H37 ACR d         -22.610  -6.853   0.801  0.00  0.00     0.091 H 
BRANCH  30  40
ATOM     40  O3D ACR d         -21.211  -4.792   1.888  0.00  0.00    -0.390 OA
ATOM     41  H43 ACR d         -20.598  -4.145   1.561  0.00  0.00     0.210 HD
ENDBRANCH  30  40
BRANCH  31  42
ATOM     42  O2D ACR d         -23.447  -3.193   2.729  0.00  0.00    -0.388 OA
ATOM     43  H42 ACR d         -22.547  -3.114   3.023  0.00  0.00     0.210 HD
ENDBRANCH  31  42
BRANCH  33  44
ATOM     44  O1D ACR d         -25.385  -3.332   0.774  0.00  0.00    -0.369 OA
ATOM     45  H41 ACR d         -25.179  -2.614   1.361  0.00  0.00     0.212 HD
ENDBRANCH  33  44
BRANCH  37  46
ATOM     46  C6D ACR d         -24.286  -6.889  -1.489  0.00  0.00     0.043 C 
ATOM     47  H39 ACR d         -23.973  -6.593  -2.501  0.00  0.00     0.078 H 
ATOM     48  H40 ACR d         -25.368  -7.091  -1.484  0.00  0.00     0.078 H 
BRANCH  46  49
ATOM     49  O6D ACR d         -23.574  -8.075  -1.092  0.00  0.00    -0.398 OA
ATOM     50  H44 ACR d         -24.031  -8.490  -0.369  0.00  0.00     0.209 HD
ENDBRANCH  46  49
ENDBRANCH  37  46
ENDBRANCH  28  29
ENDBRANCH  17  28
BRANCH  21  51
ATOM     51  C6C ACR d         -20.807  -8.839  -3.546  0.00  0.00     0.043 C 
ATOM     52  H29 ACR d         -21.246  -9.599  -2.883  0.00  0.00     0.078 H 
ATOM     53  H30 ACR d         -19.867  -9.222  -3.972  0.00  0.00     0.078 H 
BRANCH  51  54
ATOM     54  O6C ACR d         -21.727  -8.544  -4.607  0.00  0.00    -0.398 OA
ATOM     55  H33 ACR d         -21.744  -9.268  -5.221  0.00  0.00     0.209 HD
ENDBRANCH  51  54
ENDBRANCH  21  51
ENDBRANCH  12  13
ENDBRANCH   1  12
BRANCH   2  56
ATOM     56  O2B ACR d         -17.402  -4.527  -5.313  0.00  0.00    -0.388 OA
ATOM     57  H22 ACR d         -17.919  -4.600  -4.518  0.00  0.00     0.210 HD
ENDBRANCH   2  56
BRANCH   3  58
ATOM     58  O3B ACR d         -18.413  -4.182  -7.962  0.00  0.00    -0.391 OA
ATOM     59  H23 ACR d         -18.511  -4.429  -8.874  0.00  0.00     0.210 HD
ENDBRANCH   3  58
BRANCH   5  60
ATOM     60  C6B ACR d         -19.757  -8.931  -7.910  0.00  0.00    -0.050 C 
ATOM     61  H17 ACR d         -20.214  -8.689  -8.880  0.00  0.00     0.031 H 
ATOM     62  H18 ACR d         -20.429  -9.592  -7.342  0.00  0.00     0.031 H 
ATOM     63  H19 ACR d         -18.795  -9.439  -8.075  0.00  0.00     0.031 H 
ENDBRANCH   5  60
BRANCH   4  64
ATOM     64  N4B ACR d         -20.090  -6.116  -9.104  0.00  0.00    -0.056 N 
ATOM     65  H20 ACR d         -20.814  -6.817  -9.096  0.00  0.00     0.278 HD
ATOM     66  H21 ACR d         -20.487  -5.220  -8.870  0.00  0.00     0.278 HD
BRANCH  64  67
ATOM     67  C1A ACR d         -19.585  -6.023 -10.501  0.00  0.00     0.146 C 
ATOM     68  C2A ACR d         -20.652  -5.717 -11.571  0.00  0.00     0.093 C 
ATOM     69  C3A ACR d         -21.548  -6.939 -11.772  0.00  0.00     0.091 C 
ATOM     70  H2  ACR d         -20.149  -5.473 -12.519  0.00  0.00     0.090 H 
ATOM     71  C4A ACR d         -20.722  -8.041 -12.407  0.00  0.00     0.086 C 
ATOM     72  H3  ACR d         -21.854  -7.280 -10.772  0.00  0.00     0.091 H 
ATOM     73  C5A ACR d         -19.393  -8.212 -11.700  0.00  0.00    -0.027 C 
ATOM     74  H4  ACR d         -20.532  -7.784 -13.459  0.00  0.00     0.094 H 
ATOM     75  C7A ACR d         -18.816  -7.263 -10.947  0.00  0.00    -0.064 C 
ATOM     76  H7  ACR d         -17.776  -7.381 -10.647  0.00  0.00     0.080 H 
ATOM     77  H1  ACR d         -18.877  -5.180 -10.507  0.00  0.00     0.095 H 
BRANCH  68  78
ATOM     78  O2A ACR d         -21.459  -4.615 -11.177  0.00  0.00    -0.390 OA
ATOM     79  H8  ACR d         -21.186  -4.316 -10.317  0.00  0.00     0.210 HD
ENDBRANCH  68  78
BRANCH  69  80
ATOM     80  O3A ACR d         -22.789  -6.705 -12.528  0.00  0.00    -0.390 OA
ATOM     81  H9  ACR d         -23.513  -6.602 -11.922  0.00  0.00     0.210 HD
ENDBRANCH  69  80
BRANCH  71  82
ATOM     82  O4A ACR d         -21.456  -9.264 -12.346  0.00  0.00    -0.388 OA
ATOM     83  H10 ACR d         -21.438  -9.599 -11.457  0.00  0.00     0.210 HD
ENDBRANCH  71  82
BRANCH  73  84
ATOM     84  C6A ACR d         -18.704  -9.522 -11.922  0.00  0.00     0.039 C 
ATOM     85  H5  ACR d         -19.373 -10.244 -12.412  0.00  0.00     0.081 H 
ATOM     86  H6  ACR d         -18.341  -9.944 -10.974  0.00  0.00     0.081 H 
BRANCH  84  87
ATOM     87  O6A ACR d         -17.606  -9.164 -12.784  0.00  0.00    -0.397 OA
ATOM     88  H11 ACR d         -17.810  -9.420 -13.676  0.00  0.00     0.209 HD
ENDBRANCH  84  87
ENDBRANCH  73  84
ENDBRANCH  64  67
ENDBRANCH   4  64
TORSDOF 23
ENDMDL
MODEL 2
REMARK VINA RESULT:      -7.2      1.338      2.344
REMARK  23 active torsions:
REMARK  status: ('A' for Active; 'I' for Inactive)
REMARK    1  A    between atoms: N4B_18  and  C1A_1 
REMARK    2  A    between atoms: C2A_2  and  O2A_8 
REMARK    3  A    between atoms: C3A_3  and  O3A_9 
REMARK    4  A    between atoms: C4A_4  and  O4A_10 
REMARK    5  A    between atoms: C5A_5  and  C6A_6 
REMARK    6  A    between atoms: C6A_6  and  O6A_11 
REMARK    7  A    between atoms: O4C_30  and  C1B_12 
REMARK    8  A    between atoms: C2B_13  and  O2B_19 
REMARK    9  A    between atoms: C3B_14  and  O3B_20 
REMARK   10  A    between atoms: C4B_15  and  N4B_18 
REMARK   11  A    between atoms: C5B_16  and  C6B_17 
REMARK   12  A    between atoms: O4D_42  and  C1C_22 
REMARK   13  A    between atoms: C2C_23  and  O2C_28 
REMARK   14  A    between atoms: C3C_24  and  O3C_29 
REMARK   15  A    between atoms: C4C_25  and  O4C_30 
REMARK   16  A    between atoms: C5C_26  and  C6C_27 
REMARK   17  A    between atoms: C6C_27  and  O6C_32 
REMARK   18  A    between atoms: C1D_33  and  O1D_39 
REMARK   19  A    between atoms: C2D_34  and  O2D_40 
REMARK   20  A    between atoms: C3D_35  and  O3D_41 
REMARK   21  A    between atoms: C4D_36  and  O4D_42 
REMARK   22  A    between atoms: C5D_37  and  C6D_38 
REMARK   23  A    between atoms: C6D_38  and  O6D_44 
ROOT
ATOM      1  C1B ACR d         -18.753  -6.499  -4.956  0.00  0.00     0.159 C 
ATOM      2  C2B ACR d         -18.280  -5.406  -5.914  0.00  0.00     0.110 C 
ATOM      3  C3B ACR d         -19.300  -5.212  -7.047  0.00  0.00     0.094 C 
ATOM      4  C4B ACR d         -19.473  -6.518  -7.824  0.00  0.00     0.154 C 
ATOM      5  C5B ACR d         -19.927  -7.603  -6.824  0.00  0.00     0.068 C 
ATOM      6  O5B ACR d         -18.986  -7.684  -5.723  0.00  0.00    -0.351 OA
ATOM      7  H12 ACR d         -17.978  -6.695  -4.201  0.00  0.00     0.133 H 
ATOM      8  H13 ACR d         -17.307  -5.688  -6.342  0.00  0.00     0.094 H 
ATOM      9  H14 ACR d         -20.266  -4.910  -6.615  0.00  0.00     0.090 H 
ATOM     10  H15 ACR d         -18.480  -6.819  -8.187  0.00  0.00     0.092 H 
ATOM     11  H16 ACR d         -20.919  -7.327  -6.437  0.00  0.00     0.086 H 
ENDROOT
BRANCH   1  12
ATOM     12  O4C ACR d         -19.963  -6.073  -4.297  0.00  0.00    -0.348 OA
BRANCH  12  13
ATOM     13  C4C ACR d         -19.962  -6.126  -2.870  0.00  0.00     0.096 C 
ATOM     14  C3C ACR d         -20.320  -4.738  -2.339  0.00  0.00     0.092 C 
ATOM     15  C2C ACR d         -20.606  -4.716  -0.835  0.00  0.00     0.110 C 
ATOM     16  H26 ACR d         -21.240  -4.415  -2.851  0.00  0.00     0.091 H 
ATOM     17  C1C ACR d         -21.574  -5.818  -0.416  0.00  0.00     0.159 C 
ATOM     18  H25 ACR d         -19.666  -4.814  -0.272  0.00  0.00     0.094 H 
ATOM     19  O5C ACR d         -21.103  -7.074  -0.934  0.00  0.00    -0.348 OA
ATOM     20  H24 ACR d         -21.626  -5.867   0.682  0.00  0.00     0.133 H 
ATOM     21  C5C ACR d         -20.974  -7.162  -2.368  0.00  0.00     0.089 C 
ATOM     22  H28 ACR d         -21.948  -6.938  -2.828  0.00  0.00     0.090 H 
ATOM     23  H27 ACR d         -18.959  -6.406  -2.516  0.00  0.00     0.091 H 
BRANCH  14  24
ATOM     24  O3C ACR d         -19.278  -3.812  -2.673  0.00  0.00    -0.390 OA
ATOM     25  H32 ACR d         -18.932  -3.427  -1.878  0.00  0.00     0.210 HD
ENDBRANCH  14  24
BRANCH  15  26
ATOM     26  O2C ACR d         -21.232  -3.467  -0.563  0.00  0.00    -0.388 OA
ATOM     27  H31 ACR d         -22.022  -3.390  -1.085  0.00  0.00     0.210 HD
ENDBRANCH  15  26
BRANCH  17  28
ATOM     28  O4D ACR d         -22.876  -5.534  -0.944  0.00  0.00    -0.348 OA
BRANCH  28  29
ATOM     29  C4D ACR d         -24.016  -5.895  -0.152  0.00  0.00     0.096 C 
ATOM     30  C3D ACR d         -24.248  -7.374  -0.481  0.00  0.00     0.092 C 
ATOM     31  C2D ACR d         -25.350  -8.023   0.364  0.00  0.00     0.110 C 
ATOM     32  H36 ACR d         -23.312  -7.905  -0.254  0.00  0.00     0.091 H 
ATOM     33  C1D ACR d         -25.237  -7.697   1.877  0.00  0.00     0.156 C 
ATOM     34  H35 ACR d         -26.320  -7.639   0.017  0.00  0.00     0.094 H 
ATOM     35  O5D ACR d         -24.865  -6.328   2.142  0.00  0.00    -0.349 OA
ATOM     36  H34 ACR d         -26.235  -7.855   2.313  0.00  0.00     0.133 H 
ATOM     37  C5D ACR d         -23.768  -5.786   1.371  0.00  0.00     0.089 C 
ATOM     38  H38 ACR d         -22.874  -6.389   1.588  0.00  0.00     0.090 H 
ATOM     39  H37 ACR d         -24.885  -5.280  -0.430  0.00  0.00     0.091 H 
BRANCH  30  40
ATOM     40  O3D ACR d         -24.515  -7.544  -1.888  0.00  0.00    -0.390 OA
ATOM     41  H43 ACR d         -23.951  -8.223  -2.237  0.00  0.00     0.210 HD
ENDBRANCH  30  40
BRANCH  31  42
ATOM     42  O2D ACR d         -25.305  -9.443   0.118  0.00  0.00    -0.388 OA
ATOM     43  H42 ACR d         -24.413  -9.754   0.223  0.00  0.00     0.210 HD
ENDBRANCH  31  42
BRANCH  33  44
ATOM     44  O1D ACR d         -24.324  -8.585   2.547  0.00  0.00    -0.369 OA
ATOM     45  H41 ACR d         -24.310  -8.382   3.475  0.00  0.00     0.212 HD
ENDBRANCH  33  44
BRANCH  37  46
ATOM     46  C6D ACR d         -23.491  -4.363   1.866  0.00  0.00     0.043 C 
ATOM     47  H39 ACR d         -22.418  -4.250   2.083  0.00  0.00     0.078 H 
ATOM     48  H40 ACR d         -24.072  -4.172   2.781  0.00  0.00     0.078 H 
BRANCH  46  49
ATOM     49  O6D ACR d         -23.877  -3.425   0.845  0.00  0.00    -0.398 OA
ATOM     50  H44 ACR d         -23.139  -3.262   0.270  0.00  0.00     0.209 HD
ENDBRANCH  46  49
ENDBRANCH  37  46
ENDBRANCH  28  29
ENDBRANCH  17  28
BRANCH  21  51
ATOM     51  C6C ACR d         -20.587  -8.591  -2.737  0.00  0.00     0.043 C 
ATOM     52  H29 ACR d         -20.943  -9.279  -1.956  0.00  0.00     0.078 H 
ATOM     53  H30 ACR d         -19.492  -8.664  -2.820  0.00  0.00     0.078 H 
BRANCH  51  54
ATOM     54  O6C ACR d         -21.186  -8.944  -3.993  0.00  0.00    -0.398 OA
ATOM     55  H33 ACR d         -21.018  -9.861  -4.176  0.00  0.00     0.209 HD
ENDBRANCH  51  54
ENDBRANCH  21  51
ENDBRANCH  12  13
ENDBRANCH   1  12
BRANCH   2  56
ATOM     56  O2B ACR d         -18.152  -4.187  -5.186  0.00  0.00    -0.388 OA
ATOM     57  H22 ACR d         -18.985  -3.730  -5.185  0.00  0.00     0.210 HD
ENDBRANCH   2  56
BRANCH   3  58
ATOM     58  O3B ACR d         -18.853  -4.210  -7.954  0.00  0.00    -0.391 OA
ATOM     59  H23 ACR d         -18.151  -3.712  -7.553  0.00  0.00     0.210 HD
ENDBRANCH   3  58
BRANCH   5  60
ATOM     60  C6B ACR d         -20.016  -8.983  -7.468  0.00  0.00    -0.050 C 
ATOM     61  H17 ACR d         -20.487  -9.686  -6.765  0.00  0.00     0.031 H 
ATOM     62  H18 ACR d         -19.005  -9.336  -7.718  0.00  0.00     0.031 H 
ATOM     63  H19 ACR d         -20.621  -8.922  -8.384  0.00  0.00     0.031 H 
ENDBRANCH   5  60
BRANCH   4  64
ATOM     64  N4B ACR d         -20.310  -6.350  -9.031  0.00  0.00    -0.056 N 
ATOM     65  H20 ACR d         -20.899  -7.165  -9.102  0.00  0.00     0.278 HD
ATOM     66  H21 ACR d         -20.882  -5.533  -8.886  0.00  0.00     0.278 HD
BRANCH  64  67
ATOM     67  C1A ACR d         -19.629  -6.183 -10.344  0.00  0.00     0.146 C 
ATOM     68  C2A ACR d         -20.541  -5.750 -11.511  0.00  0.00     0.093 C 
ATOM     69  C3A ACR d         -21.453  -6.909 -11.913  0.00  0.00     0.091 C 
ATOM     70  H2  ACR d         -19.913  -5.466 -12.369  0.00  0.00     0.090 H 
ATOM     71  C4A ACR d         -20.599  -8.003 -12.523  0.00  0.00     0.086 C 
ATOM     72  H3  ACR d         -21.896  -7.304 -10.986  0.00  0.00     0.091 H 
ATOM     73  C5A ACR d         -19.378  -8.289 -11.675  0.00  0.00    -0.027 C 
ATOM     74  H4  ACR d         -20.269  -7.682 -13.522  0.00  0.00     0.094 H 
ATOM     75  C7A ACR d         -18.862  -7.426 -10.786  0.00  0.00    -0.064 C 
ATOM     76  H7  ACR d         -17.874  -7.616 -10.371  0.00  0.00     0.080 H 
ATOM     77  H1  ACR d         -18.893  -5.379 -10.200  0.00  0.00     0.095 H 
BRANCH  68  78
ATOM     78  O2A ACR d         -21.345  -4.640 -11.135  0.00  0.00    -0.390 OA
ATOM     79  H8  ACR d         -20.899  -4.141 -10.461  0.00  0.00     0.210 HD
ENDBRANCH  68  78
BRANCH  69  80
ATOM     80  O3A ACR d         -22.579  -6.560 -12.794  0.00  0.00    -0.390 OA
ATOM     81  H9  ACR d         -22.538  -5.636 -13.009  0.00  0.00     0.210 HD
ENDBRANCH  69  80
BRANCH  71  82
ATOM     82  O4A ACR d         -21.384  -9.189 -12.646  0.00  0.00    -0.388 OA
ATOM     83  H10 ACR d         -22.024  -9.219 -11.944  0.00  0.00     0.210 HD
ENDBRANCH  71  82
BRANCH  73  84
ATOM     84  C6A ACR d         -18.721  -9.614 -11.910  0.00  0.00     0.039 C 
ATOM     85  H5  ACR d         -19.425 -10.333 -12.351  0.00  0.00     0.081 H 
ATOM     86  H6  ACR d         -18.314 -10.025 -10.975  0.00  0.00     0.081 H 
BRANCH  84  87
ATOM     87  O6A ACR d         -17.666  -9.287 -12.835  0.00  0.00    -0.397 OA
ATOM     88  H11 ACR d         -16.888  -9.787 -12.616  0.00  0.00     0.209 HD
ENDBRANCH  84  87
ENDBRANCH  73  84
ENDBRANCH  64  67
ENDBRANCH   4  64
TORSDOF 23
ENDMDL
MODEL 3
REMARK VINA RESULT:      -6.0      1.550      2.325
REMARK  23 active torsions:
REMARK  status: ('A' for Active; 'I' for Inactive)
REMARK    1  A    between atoms: N4B_18  and  C1A_1 
REMARK    2  A    between atoms: C2A_2  and  O2A_8 
REMARK    3  A    between atoms: C3A_3  and  O3A_9 
REMARK    4  A    between atoms: C4A_4  and  O4A_10 
REMARK    5  A    between atoms: C5A_5  and  C6A_6 
REMARK    6  A    between atoms: C6A_6  and  O6A_11 
REMARK    7  A    between atoms: O4C_30  and  C1B_12 
REMARK    8  A    between atoms: C2B_13  and  O2B_19 
REMARK    9  A    between atoms: C3B_14  and  O3B_20 
REMARK   10  A    between atoms: C4B_15  and  N4B_18 
REMARK   11  A    between atoms: C5B_16  and  C6B_17 
REMARK   12  A    between atoms: O4D_42  and  C1C_22 
REMARK   13  A    between atoms: C2C_23  and  O2C_28 
REMARK   14  A    between atoms: C3C_24  and  O3C_29 
REMARK   15  A    between atoms: C4C_25  and  O4C_30 
REMARK   16  A    between atoms: C5C_26  and  C6C_27 
REMARK   17  A    between atoms: C6C_27  and  O6C_32 
REMARK   18  A    between atoms: C1D_33  and  O1D_39 
REMARK   19  A    between atoms: C2D_34  and  O2D_40 
REMARK   20  A    between atoms: C3D_35  and  O3D_41 
REMARK   21  A    between atoms: C4D_36  and  O4D_42 
REMARK   22  A    between atoms: C5D_37  and  C6D_38 
REMARK   23  A    between atoms: C6D_38  and  O6D_44 
ROOT
ATOM      1  C1B ACR d         -18.092  -6.850  -5.281  0.00  0.00     0.159 C 
ATOM      2  C2B ACR d         -17.744  -5.634  -6.138  0.00  0.00     0.110 C 
ATOM      3  C3B ACR d         -18.892  -5.321  -7.111  0.00  0.00     0.094 C 
ATOM      4  C4B ACR d         -19.144  -6.521  -8.024  0.00  0.00     0.154 C 
ATOM      5  C5B ACR d         -19.469  -7.735  -7.128  0.00  0.00     0.068 C 
ATOM      6  O5B ACR d         -18.404  -7.933  -6.163  0.00  0.00    -0.351 OA
ATOM      7  H12 ACR d         -17.232  -7.123  -4.653  0.00  0.00     0.133 H 
ATOM      8  H13 ACR d         -16.826  -5.837  -6.708  0.00  0.00     0.094 H 
ATOM      9  H14 ACR d         -19.802  -5.099  -6.535  0.00  0.00     0.090 H 
ATOM     10  H15 ACR d         -18.198  -6.751  -8.536  0.00  0.00     0.092 H 
ATOM     11  H16 ACR d         -20.410  -7.533  -6.596  0.00  0.00     0.086 H 
ENDROOT
BRANCH   1  12
ATOM     12  O4C ACR d         -19.219  -6.540  -4.437  0.00  0.00    -0.348 OA
BRANCH  12  13
ATOM     13  C4C ACR d         -18.921  -5.976  -3.159  0.00  0.00     0.096 C 
ATOM     14  C3C ACR d         -20.026  -4.979  -2.807  0.00  0.00     0.092 C 
ATOM     15  C2C ACR d         -19.968  -4.493  -1.356  0.00  0.00     0.110 C 
ATOM     16  H26 ACR d         -20.990  -5.493  -2.941  0.00  0.00     0.091 H 
ATOM     17  C1C ACR d         -19.822  -5.646  -0.368  0.00  0.00     0.159 C 
ATOM     18  H25 ACR d         -19.133  -3.788  -1.229  0.00  0.00     0.094 H 
ATOM     19  O5C ACR d         -18.725  -6.479  -0.782  0.00  0.00    -0.348 OA
ATOM     20  H24 ACR d         -19.624  -5.248   0.639  0.00  0.00     0.133 H 
ATOM     21  C5C ACR d         -18.837  -7.073  -2.092  0.00  0.00     0.089 C 
ATOM     22  H28 ACR d         -19.763  -7.665  -2.137  0.00  0.00     0.090 H 
ATOM     23  H27 ACR d         -17.956  -5.451  -3.209  0.00  0.00     0.091 H 
BRANCH  14  24
ATOM     24  O3C ACR d         -19.983  -3.872  -3.717  0.00  0.00    -0.390 OA
ATOM     25  H32 ACR d         -20.145  -4.184  -4.600  0.00  0.00     0.210 HD
ENDBRANCH  14  24
BRANCH  15  26
ATOM     26  O2C ACR d         -21.213  -3.857  -1.096  0.00  0.00    -0.388 OA
ATOM     27  H31 ACR d         -21.125  -3.289  -0.339  0.00  0.00     0.210 HD
ENDBRANCH  15  26
BRANCH  17  28
ATOM     28  O4D ACR d         -21.033  -6.413  -0.348  0.00  0.00    -0.348 OA
BRANCH  28  29
ATOM     29  C4D ACR d         -21.914  -6.251   0.771  0.00  0.00     0.096 C 
ATOM     30  C3D ACR d         -23.316  -6.369   0.164  0.00  0.00     0.092 C 
ATOM     31  C2D ACR d         -24.438  -6.363   1.210  0.00  0.00     0.110 C 
ATOM     32  H36 ACR d         -23.363  -7.338  -0.353  0.00  0.00     0.091 H 
ATOM     33  C1D ACR d         -24.161  -7.304   2.412  0.00  0.00     0.156 C 
ATOM     34  H35 ACR d         -24.532  -5.342   1.607  0.00  0.00     0.094 H 
ATOM     35  O5D ACR d         -22.789  -7.279   2.857  0.00  0.00    -0.349 OA
ATOM     36  H34 ACR d         -24.782  -6.945   3.247  0.00  0.00     0.133 H 
ATOM     37  C5D ACR d         -21.767  -7.364   1.836  0.00  0.00     0.089 C 
ATOM     38  H38 ACR d         -21.897  -8.322   1.310  0.00  0.00     0.090 H 
ATOM     39  H37 ACR d         -21.759  -5.268   1.241  0.00  0.00     0.091 H 
BRANCH  30  40
ATOM     40  O3D ACR d         -23.530  -5.337  -0.821  0.00  0.00    -0.390 OA
ATOM     41  H43 ACR d         -24.236  -5.596  -1.400  0.00  0.00     0.210 HD
ENDBRANCH  30  40
BRANCH  31  42
ATOM     42  O2D ACR d         -25.664  -6.706   0.533  0.00  0.00    -0.388 OA
ATOM     43  H42 ACR d         -26.162  -5.915   0.365  0.00  0.00     0.210 HD
ENDBRANCH  31  42
BRANCH  33  44
ATOM     44  O1D ACR d         -24.554  -8.659   2.130  0.00  0.00    -0.369 OA
ATOM     45  H41 ACR d         -25.286  -8.656   1.525  0.00  0.00     0.212 HD
ENDBRANCH  33  44
BRANCH  37  46
ATOM     46  C6D ACR d         -20.401  -7.403   2.527  0.00  0.00     0.043 C 
ATOM     47  H39 ACR d         -20.541  -7.478   3.616  0.00  0.00     0.078 H 
ATOM     48  H40 ACR d         -19.843  -6.484   2.291  0.00  0.00     0.078 H 
BRANCH  46  49
ATOM     49  O6D ACR d         -19.666  -8.547   2.055  0.00  0.00    -0.398 OA
ATOM     50  H44 ACR d         -19.294  -8.353   1.203  0.00  0.00     0.209 HD
ENDBRANCH  46  49
ENDBRANCH  37  46
ENDBRANCH  28  29
ENDBRANCH  17  28
BRANCH  21  51
ATOM     51  C6C ACR d         -17.655  -8.013  -2.304  0.00  0.00     0.043 C 
ATOM     52  H29 ACR d         -16.824  -7.708  -1.652  0.00  0.00     0.078 H 
ATOM     53  H30 ACR d         -17.333  -7.964  -3.356  0.00  0.00     0.078 H 
BRANCH  51  54
ATOM     54  O6C ACR d         -18.044  -9.357  -1.985  0.00  0.00    -0.398 OA
ATOM     55  H33 ACR d         -18.947  -9.362  -1.691  0.00  0.00     0.209 HD
ENDBRANCH  51  54
ENDBRANCH  21  51
ENDBRANCH  12  13
ENDBRANCH   1  12
BRANCH   2  56
ATOM     56  O2B ACR d         -17.541  -4.514  -5.278  0.00  0.00    -0.388 OA
ATOM     57  H22 ACR d         -17.034  -4.785  -4.521  0.00  0.00     0.210 HD
ENDBRANCH   2  56
BRANCH   3  58
ATOM     58  O3B ACR d         -18.562  -4.202  -7.927  0.00  0.00    -0.391 OA
ATOM     59  H23 ACR d         -18.752  -3.400  -7.454  0.00  0.00     0.210 HD
ENDBRANCH   3  58
BRANCH   5  60
ATOM     60  C6B ACR d         -19.622  -9.023  -7.929  0.00  0.00    -0.050 C 
ATOM     61  H17 ACR d         -19.551  -8.797  -9.004  0.00  0.00     0.031 H 
ATOM     62  H18 ACR d         -20.600  -9.475  -7.713  0.00  0.00     0.031 H 
ATOM     63  H19 ACR d         -18.823  -9.725  -7.650  0.00  0.00     0.031 H 
ENDBRANCH   5  60
BRANCH   4  64
ATOM     64  N4B ACR d         -20.118  -6.220  -9.095  0.00  0.00    -0.056 N 
ATOM     65  H20 ACR d         -20.804  -6.959  -9.091  0.00  0.00     0.278 HD
ATOM     66  H21 ACR d         -20.563  -5.348  -8.857  0.00  0.00     0.278 HD
BRANCH  64  67
ATOM     67  C1A ACR d         -19.617  -6.092 -10.491  0.00  0.00     0.146 C 
ATOM     68  C2A ACR d         -20.678  -5.705 -11.542  0.00  0.00     0.093 C 
ATOM     69  C3A ACR d         -21.620  -6.885 -11.783  0.00  0.00     0.091 C 
ATOM     70  H2  ACR d         -20.171  -5.445 -12.483  0.00  0.00     0.090 H 
ATOM     71  C4A ACR d         -20.839  -7.992 -12.465  0.00  0.00     0.086 C 
ATOM     72  H3  ACR d         -21.933  -7.252 -10.795  0.00  0.00     0.091 H 
ATOM     73  C5A ACR d         -19.515  -8.239 -11.774  0.00  0.00    -0.027 C 
ATOM     74  H4  ACR d         -20.646  -7.702 -13.508  0.00  0.00     0.094 H 
ATOM     75  C7A ACR d         -18.898  -7.342 -10.989  0.00  0.00    -0.064 C 
ATOM     76  H7  ACR d         -17.862  -7.510 -10.700  0.00  0.00     0.080 H 
ATOM     77  H1  ACR d         -18.878  -5.277 -10.469  0.00  0.00     0.095 H 
BRANCH  68  78
ATOM     78  O2A ACR d         -21.440  -4.590 -11.100  0.00  0.00    -0.390 OA
ATOM     79  H8  ACR d         -21.507  -4.609 -10.152  0.00  0.00     0.210 HD
ENDBRANCH  68  78
BRANCH  69  80
ATOM     80  O3A ACR d         -22.856  -6.576 -12.521  0.00  0.00    -0.390 OA
ATOM     81  H9  ACR d         -22.743  -6.806 -13.436  0.00  0.00     0.210 HD
ENDBRANCH  69  80
BRANCH  71  82
ATOM     82  O4A ACR d         -21.619  -9.187 -12.446  0.00  0.00    -0.388 OA
ATOM     83  H10 ACR d         -21.066  -9.921 -12.203  0.00  0.00     0.210 HD
ENDBRANCH  71  82
BRANCH  73  84
ATOM     84  C6A ACR d         -18.876  -9.565 -12.050  0.00  0.00     0.039 C 
ATOM     85  H5  ACR d         -19.458 -10.140 -12.785  0.00  0.00     0.081 H 
ATOM     86  H6  ACR d         -18.769 -10.153 -11.127  0.00  0.00     0.081 H 
BRANCH  84  87
ATOM     87  O6A ACR d         -17.590  -9.195 -12.583  0.00  0.00    -0.397 OA
ATOM     88  H11 ACR d         -17.707  -8.776 -13.427  0.00  0.00     0.209 HD
ENDBRANCH  84  87
ENDBRANCH  73  84
ENDBRANCH  64  67
ENDBRANCH   4  64
TORSDOF 23
ENDMDL
MODEL 4
REMARK VINA RESULT:      -5.2      1.711      2.645
REMARK  23 active torsions:
REMARK  status: ('A' for Active; 'I' for Inactive)
REMARK    1  A    between atoms: N4B_18  and  C1A_1 
REMARK    2  A    between atoms: C2A_2  and  O2A_8 
REMARK    3  A    between atoms: C3A_3  and  O3A_9 
REMARK    4  A    between atoms: C4A_4  and  O4A_10 
REMARK    5  A    between atoms: C5A_5  and  C6A_6 
REMARK    6  A    between atoms: C6A_6  and  O6A_11 
REMARK    7  A    between atoms: O4C_30  and  C1B_12 
REMARK    8  A    between atoms: C2B_13  and  O2B_19 
REMARK    9  A    between atoms: C3B_14  and  O3B_20 
REMARK   10  A    between atoms: C4B_15  and  N4B_18 
REMARK   11  A    between atoms: C5B_16  and  C6B_17 
REMARK   12  A    between atoms: O4D_42  and  C1C_22 
REMARK   13  A    between atoms: C2C_23  and  O2C_28 
REMARK   14  A    between atoms: C3C_24  and  O3C_29 
REMARK   15  A    between atoms: C4C_25  and  O4C_30 
REMARK   16  A    between atoms: C5C_26  and  C6C_27 
REMARK   17  A    between atoms: C6C_27  and  O6C_32 
REMARK   18  A    between atoms: C1D_33  and  O1D_39 
REMARK   19  A    between atoms: C2D_34  and  O2D_40 
REMARK   20  A    between atoms: C3D_35  and  O3D_41 
REMARK   21  A    between atoms: C4D_36  and  O4D_42 
REMARK   22  A    between atoms: C5D_37  and  C6D_38 
REMARK   23  A    between atoms: C6D_38  and  O6D_44 
ROOT
ATOM      1  C1B ACR d         -18.224  -6.305  -5.074  0.00  0.00     0.159 C 
ATOM      2  C2B ACR d         -17.596  -5.433  -6.160  0.00  0.00     0.110 C 
ATOM      3  C3B ACR d         -18.652  -5.040  -7.206  0.00  0.00     0.094 C 
ATOM      4  C4B ACR d         -19.240  -6.296  -7.851  0.00  0.00     0.154 C 
ATOM      5  C5B ACR d         -19.843  -7.164  -6.726  0.00  0.00     0.068 C 
ATOM      6  O5B ACR d         -18.838  -7.428  -5.715  0.00  0.00    -0.351 OA
ATOM      7  H12 ACR d         -17.446  -6.656  -4.381  0.00  0.00     0.133 H 
ATOM      8  H13 ACR d         -16.783  -5.986  -6.651  0.00  0.00     0.094 H 
ATOM      9  H14 ACR d         -19.453  -4.470  -6.713  0.00  0.00     0.090 H 
ATOM     10  H15 ACR d         -18.404  -6.870  -8.278  0.00  0.00     0.092 H 
ATOM     11  H16 ACR d         -20.681  -6.615  -6.273  0.00  0.00     0.086 H 
ENDROOT
BRANCH   1  12
ATOM     12  O4C ACR d         -19.202  -5.538  -4.344  0.00  0.00    -0.348 OA
BRANCH  12  13
ATOM     13  C4C ACR d         -19.045  -5.492  -2.925  0.00  0.00     0.096 C 
ATOM     14  C3C ACR d         -20.248  -4.757  -2.334  0.00  0.00     0.092 C 
ATOM     15  C2C ACR d         -20.335  -4.859  -0.808  0.00  0.00     0.110 C 
ATOM     16  H26 ACR d         -21.156  -5.223  -2.745  0.00  0.00     0.091 H 
ATOM     17  C1C ACR d         -20.172  -6.294  -0.318  0.00  0.00     0.159 C 
ATOM     18  H25 ACR d         -19.570  -4.219  -0.344  0.00  0.00     0.094 H 
ATOM     19  O5C ACR d         -18.985  -6.856  -0.905  0.00  0.00    -0.348 OA
ATOM     20  H24 ACR d         -20.080  -6.303   0.779  0.00  0.00     0.133 H 
ATOM     21  C5C ACR d         -18.953  -6.908  -2.346  0.00  0.00     0.089 C 
ATOM     22  H28 ACR d         -19.823  -7.479  -2.702  0.00  0.00     0.090 H 
ATOM     23  H27 ACR d         -18.124  -4.945  -2.679  0.00  0.00     0.091 H 
BRANCH  14  24
ATOM     24  O3C ACR d         -20.226  -3.385  -2.752  0.00  0.00    -0.390 OA
ATOM     25  H32 ACR d         -20.500  -3.328  -3.659  0.00  0.00     0.210 HD
ENDBRANCH  14  24
BRANCH  15  26
ATOM     26  O2C ACR d         -21.643  -4.428  -0.451  0.00  0.00    -0.388 OA
ATOM     27  H31 ACR d         -21.656  -4.189   0.469  0.00  0.00     0.210 HD
ENDBRANCH  15  26
BRANCH  17  28
ATOM     28  O4D ACR d         -21.316  -7.065  -0.707  0.00  0.00    -0.348 OA
BRANCH  28  29
ATOM     29  C4D ACR d         -21.903  -7.938   0.267  0.00  0.00     0.096 C 
ATOM     30  C3D ACR d         -23.372  -7.506   0.320  0.00  0.00     0.092 C 
ATOM     31  C2D ACR d         -24.242  -8.402   1.209  0.00  0.00     0.110 C 
ATOM     32  H36 ACR d         -23.769  -7.585  -0.703  0.00  0.00     0.091 H 
ATOM     33  C1D ACR d         -24.012  -9.917   0.967  0.00  0.00     0.156 C 
ATOM     34  H35 ACR d         -23.988  -8.195   2.259  0.00  0.00     0.094 H 
ATOM     35  O5D ACR d         -22.624 -10.262   0.768  0.00  0.00    -0.349 OA
ATOM     36  H34 ACR d         -24.352 -10.440   1.873  0.00  0.00     0.133 H 
ATOM     37  C5D ACR d         -21.866  -9.429  -0.141  0.00  0.00     0.089 C 
ATOM     38  H38 ACR d         -22.339  -9.497  -1.132  0.00  0.00     0.090 H 
ATOM     39  H37 ACR d         -21.410  -7.809   1.242  0.00  0.00     0.091 H 
BRANCH  30  40
ATOM     40  O3D ACR d         -23.480  -6.125   0.724  0.00  0.00    -0.390 OA
ATOM     41  H43 ACR d         -24.324  -5.782   0.454  0.00  0.00     0.210 HD
ENDBRANCH  30  40
BRANCH  31  42
ATOM     42  O2D ACR d         -25.617  -8.028   0.990  0.00  0.00    -0.388 OA
ATOM     43  H42 ACR d         -25.910  -7.471   1.701  0.00  0.00     0.210 HD
ENDBRANCH  31  42
BRANCH  33  44
ATOM     44  O1D ACR d         -24.794 -10.405  -0.136  0.00  0.00    -0.369 OA
ATOM     45  H41 ACR d         -25.711 -10.207   0.015  0.00  0.00     0.212 HD
ENDBRANCH  33  44
BRANCH  37  46
ATOM     46  C6D ACR d         -20.457 -10.016  -0.266  0.00  0.00     0.043 C 
ATOM     47  H39 ACR d         -20.395 -10.951   0.311  0.00  0.00     0.078 H 
ATOM     48  H40 ACR d         -19.722  -9.296   0.123  0.00  0.00     0.078 H 
BRANCH  46  49
ATOM     49  O6D ACR d         -20.180 -10.286  -1.652  0.00  0.00    -0.398 OA
ATOM     50  H44 ACR d         -19.943  -9.476  -2.089  0.00  0.00     0.209 HD
ENDBRANCH  46  49
ENDBRANCH  37  46
ENDBRANCH  28  29
ENDBRANCH  17  28
BRANCH  21  51
ATOM     51  C6C ACR d         -17.688  -7.642  -2.780  0.00  0.00     0.043 C 
ATOM     52  H29 ACR d         -16.896  -7.479  -2.034  0.00  0.00     0.078 H 
ATOM     53  H30 ACR d         -17.357  -7.255  -3.756  0.00  0.00     0.078 H 
BRANCH  51  54
ATOM     54  O6C ACR d         -17.958  -9.047  -2.889  0.00  0.00    -0.398 OA
ATOM     55  H33 ACR d         -17.182  -9.538  -2.646  0.00  0.00     0.209 HD
ENDBRANCH  51  54
ENDBRANCH  21  51
ENDBRANCH  12  13
ENDBRANCH   1  12
BRANCH   2  56
ATOM     56  O2B ACR d         -17.079  -4.251  -5.552  0.00  0.00    -0.388 OA
ATOM     57  H22 ACR d         -16.637  -4.479  -4.742  0.00  0.00     0.210 HD
ENDBRANCH   2  56
BRANCH   3  58
ATOM     58  O3B ACR d         -18.067  -4.246  -8.232  0.00  0.00    -0.391 OA
ATOM     59  H23 ACR d         -17.211  -4.595  -8.452  0.00  0.00     0.210 HD
ENDBRANCH   3  58
BRANCH   5  60
ATOM     60  C6B ACR d         -20.355  -8.506  -7.240  0.00  0.00    -0.050 C 
ATOM     61  H17 ACR d         -20.261  -8.538  -8.336  0.00  0.00     0.031 H 
ATOM     62  H18 ACR d         -21.410  -8.628  -6.958  0.00  0.00     0.031 H 
ATOM     63  H19 ACR d         -19.760  -9.319  -6.798  0.00  0.00     0.031 H 
ENDBRANCH   5  60
BRANCH   4  64
ATOM     64  N4B ACR d         -20.135  -5.982  -8.986  0.00  0.00    -0.056 N 
ATOM     65  H20 ACR d         -20.856  -6.687  -9.001  0.00  0.00     0.278 HD
ATOM     66  H21 ACR d         -20.549  -5.082  -8.799  0.00  0.00     0.278 HD
BRANCH  64  67
ATOM     67  C1A ACR d         -19.548  -5.922 -10.352  0.00  0.00     0.146 C 
ATOM     68  C2A ACR d         -20.555  -5.665 -11.493  0.00  0.00     0.093 C 
ATOM     69  C3A ACR d         -21.420  -6.907 -11.709  0.00  0.00     0.091 C 
ATOM     70  H2  ACR d         -19.999  -5.442 -12.416  0.00  0.00     0.090 H 
ATOM     71  C4A ACR d         -20.542  -8.014 -12.259  0.00  0.00     0.086 C 
ATOM     72  H3  ACR d         -21.780  -7.223 -10.719  0.00  0.00     0.091 H 
ATOM     73  C5A ACR d         -19.256  -8.143 -11.471  0.00  0.00    -0.027 C 
ATOM     74  H4  ACR d         -20.294  -7.785 -13.306  0.00  0.00     0.094 H 
ATOM     75  C7A ACR d         -18.738  -7.163 -10.714  0.00  0.00    -0.064 C 
ATOM     76  H7  ACR d         -17.716  -7.256 -10.349  0.00  0.00     0.080 H 
ATOM     77  H1  ACR d         -18.853  -5.069 -10.342  0.00  0.00     0.095 H 
BRANCH  68  78
ATOM     78  O2A ACR d         -21.398  -4.565 -11.180  0.00  0.00    -0.390 OA
ATOM     79  H8  ACR d         -21.066  -3.782 -11.603  0.00  0.00     0.210 HD
ENDBRANCH  68  78
BRANCH  69  80
ATOM     80  O3A ACR d         -22.617  -6.714 -12.543  0.00  0.00    -0.390 OA
ATOM     81  H9  ACR d         -22.356  -6.619 -13.452  0.00  0.00     0.210 HD
ENDBRANCH  69  80
BRANCH  71  82
ATOM     82  O4A ACR d         -21.262  -9.245 -12.205  0.00  0.00    -0.388 OA
ATOM     83  H10 ACR d         -20.691  -9.930 -11.876  0.00  0.00     0.210 HD
ENDBRANCH  71  82
BRANCH  73  84
ATOM     84  C6A ACR d         -18.536  -9.448 -11.611  0.00  0.00     0.039 C 
ATOM     85  H5  ACR d         -19.063 -10.118 -12.306  0.00  0.00     0.081 H 
ATOM     86  H6  ACR d         -18.424  -9.946 -10.637  0.00  0.00     0.081 H 
BRANCH  84  87
ATOM     87  O6A ACR d         -17.257  -9.053 -12.142  0.00  0.00    -0.397 OA
ATOM     88  H11 ACR d         -17.210  -8.104 -12.178  0.00  0.00     0.209 HD
ENDBRANCH  84  87
ENDBRANCH  73  84
ENDBRANCH  64  67
ENDBRANCH   4  64
TORSDOF 23
ENDMDL
MODEL 5
REMARK VINA RESULT:      -5.1      2.126      4.312
REMARK  23 active torsions:
REMARK  status: ('A' for Active; 'I' for Inactive)
REMARK    1  A    between atoms: N4B_18  and  C1A_1 
REMARK    2  A    between atoms: C2A_2  and  O2A_8 
REMARK    3  A    between atoms: C3A_3  and  O3A_9 
REMARK    4  A    between atoms: C4A_4  and  O4A_10 
REMARK    5  A    between atoms: C5A_5  and  C6A_6 
REMARK    6  A    between atoms: C6A_6  and  O6A_11 
REMARK    7  A    between atoms: O4C_30  and  C1B_12 
REMARK    8  A    between atoms: C2B_13  and  O2B_19 
REMARK    9  A    between atoms: C3B_14  and  O3B_20 
REMARK   10  A    between atoms: C4B_15  and  N4B_18 
REMARK   11  A    between atoms: C5B_16  and  C6B_17 
REMARK   12  A    between atoms: O4D_42  and  C1C_22 
REMARK   13  A    between atoms: C2C_23  and  O2C_28 
REMARK   14  A    between atoms: C3C_24  and  O3C_29 
REMARK   15  A    between atoms: C4C_25  and  O4C_30 
REMARK   16  A    between atoms: C5C_26  and  C6C_27 
REMARK   17  A    between atoms: C6C_27  and  O6C_32 
REMARK   18  A    between atoms: C1D_33  and  O1D_39 
REMARK   19  A    between atoms: C2D_34  and  O2D_40 
REMARK   20  A    between atoms: C3D_35  and  O3D_41 
REMARK   21  A    between atoms: C4D_36  and  O4D_42 
REMARK   22  A    between atoms: C5D_37  and  C6D_38 
REMARK   23  A    between atoms: C6D_38  and  O6D_44 
ROOT
ATOM      1  C1B ACR d         -19.535  -6.251  -4.966  0.00  0.00     0.159 C 
ATOM      2  C2B ACR d         -18.432  -5.528  -5.738  0.00  0.00     0.110 C 
ATOM      3  C3B ACR d         -18.733  -5.549  -7.245  0.00  0.00     0.094 C 
ATOM      4  C4B ACR d         -18.825  -6.994  -7.738  0.00  0.00     0.154 C 
ATOM      5  C5B ACR d         -19.930  -7.700  -6.924  0.00  0.00     0.068 C 
ATOM      6  O5B ACR d         -19.654  -7.571  -5.505  0.00  0.00    -0.351 OA
ATOM      7  H12 ACR d         -19.268  -6.310  -3.901  0.00  0.00     0.133 H 
ATOM      8  H13 ACR d         -17.467  -6.022  -5.550  0.00  0.00     0.094 H 
ATOM      9  H14 ACR d         -19.688  -5.036  -7.429  0.00  0.00     0.090 H 
ATOM     10  H15 ACR d         -17.878  -7.491  -7.482  0.00  0.00     0.092 H 
ATOM     11  H16 ACR d         -20.892  -7.221  -7.154  0.00  0.00     0.086 H 
ENDROOT
BRANCH   1  12
ATOM     12  O4C ACR d         -20.775  -5.529  -5.106  0.00  0.00    -0.348 OA
BRANCH  12  13
ATOM     13  C4C ACR d         -21.561  -5.379  -3.924  0.00  0.00     0.096 C 
ATOM     14  C3C ACR d         -21.869  -6.772  -3.374  0.00  0.00     0.092 C 
ATOM     15  C2C ACR d         -22.485  -6.751  -1.972  0.00  0.00     0.110 C 
ATOM     16  H26 ACR d         -20.916  -7.318  -3.303  0.00  0.00     0.091 H 
ATOM     17  C1C ACR d         -21.707  -5.854  -1.014  0.00  0.00     0.159 C 
ATOM     18  H25 ACR d         -23.532  -6.415  -2.026  0.00  0.00     0.094 H 
ATOM     19  O5C ACR d         -21.525  -4.565  -1.625  0.00  0.00    -0.348 OA
ATOM     20  H24 ACR d         -22.268  -5.741  -0.074  0.00  0.00     0.133 H 
ATOM     21  C5C ACR d         -20.808  -4.551  -2.877  0.00  0.00     0.089 C 
ATOM     22  H28 ACR d         -19.819  -5.009  -2.726  0.00  0.00     0.090 H 
ATOM     23  H27 ACR d         -22.502  -4.868  -4.174  0.00  0.00     0.091 H 
BRANCH  14  24
ATOM     24  O3C ACR d         -22.716  -7.475  -4.292  0.00  0.00    -0.390 OA
ATOM     25  H32 ACR d         -22.229  -7.673  -5.082  0.00  0.00     0.210 HD
ENDBRANCH  14  24
BRANCH  15  26
ATOM     26  O2C ACR d         -22.405  -8.082  -1.478  0.00  0.00    -0.388 OA
ATOM     27  H31 ACR d         -22.251  -8.679  -2.202  0.00  0.00     0.210 HD
ENDBRANCH  15  26
BRANCH  17  28
ATOM     28  O4D ACR d         -20.430  -6.445  -0.740  0.00  0.00    -0.348 OA
BRANCH  28  29
ATOM     29  C4D ACR d         -19.879  -6.277   0.573  0.00  0.00     0.096 C 
ATOM     30  C3D ACR d         -19.756  -7.705   1.113  0.00  0.00     0.092 C 
ATOM     31  C2D ACR d         -19.052  -7.787   2.473  0.00  0.00     0.110 C 
ATOM     32  H36 ACR d         -19.139  -8.269   0.397  0.00  0.00     0.091 H 
ATOM     33  C1D ACR d         -17.751  -6.944   2.544  0.00  0.00     0.156 C 
ATOM     34  H35 ACR d         -19.738  -7.396   3.239  0.00  0.00     0.094 H 
ATOM     35  O5D ACR d         -17.861  -5.664   1.887  0.00  0.00    -0.349 OA
ATOM     36  H34 ACR d         -17.554  -6.750   3.608  0.00  0.00     0.133 H 
ATOM     37  C5D ACR d         -18.464  -5.651   0.571  0.00  0.00     0.089 C 
ATOM     38  H38 ACR d         -17.844  -6.277  -0.088  0.00  0.00     0.090 H 
ATOM     39  H37 ACR d         -20.551  -5.667   1.195  0.00  0.00     0.091 H 
BRANCH  30  40
ATOM     40  O3D ACR d         -21.050  -8.339   1.168  0.00  0.00    -0.390 OA
ATOM     41  H43 ACR d         -21.048  -9.002   1.849  0.00  0.00     0.210 HD
ENDBRANCH  30  40
BRANCH  31  42
ATOM     42  O2D ACR d         -18.803  -9.180   2.750  0.00  0.00    -0.388 OA
ATOM     43  H42 ACR d         -17.997  -9.263   3.246  0.00  0.00     0.210 HD
ENDBRANCH  31  42
BRANCH  33  44
ATOM     44  O1D ACR d         -16.622  -7.663   2.017  0.00  0.00    -0.369 OA
ATOM     45  H41 ACR d         -15.895  -7.599   2.626  0.00  0.00     0.212 HD
ENDBRANCH  33  44
BRANCH  37  46
ATOM     46  C6D ACR d         -18.406  -4.219   0.031  0.00  0.00     0.043 C 
ATOM     47  H39 ACR d         -18.274  -4.243  -1.061  0.00  0.00     0.078 H 
ATOM     48  H40 ACR d         -17.560  -3.686   0.491  0.00  0.00     0.078 H 
BRANCH  46  49
ATOM     49  O6D ACR d         -19.634  -3.543   0.354  0.00  0.00    -0.398 OA
ATOM     50  H44 ACR d         -19.826  -2.899  -0.317  0.00  0.00     0.209 HD
ENDBRANCH  46  49
ENDBRANCH  37  46
ENDBRANCH  28  29
ENDBRANCH  17  28
BRANCH  21  51
ATOM     51  C6C ACR d         -20.605  -3.101  -3.306  0.00  0.00     0.043 C 
ATOM     52  H29 ACR d         -19.530  -2.867  -3.307  0.00  0.00     0.078 H 
ATOM     53  H30 ACR d         -21.125  -2.435  -2.602  0.00  0.00     0.078 H 
BRANCH  51  54
ATOM     54  O6C ACR d         -21.135  -2.911  -4.626  0.00  0.00    -0.398 OA
ATOM     55  H33 ACR d         -20.479  -2.496  -5.173  0.00  0.00     0.209 HD
ENDBRANCH  51  54
ENDBRANCH  21  51
ENDBRANCH  12  13
ENDBRANCH   1  12
BRANCH   2  56
ATOM     56  O2B ACR d         -18.375  -4.175  -5.291  0.00  0.00    -0.388 OA
ATOM     57  H22 ACR d         -18.507  -4.146  -4.351  0.00  0.00     0.210 HD
ENDBRANCH   2  56
BRANCH   3  58
ATOM     58  O3B ACR d         -17.696  -4.897  -7.970  0.00  0.00    -0.391 OA
ATOM     59  H23 ACR d         -16.870  -5.335  -7.804  0.00  0.00     0.210 HD
ENDBRANCH   3  58
BRANCH   5  60
ATOM     60  C6B ACR d         -20.029  -9.187  -7.249  0.00  0.00    -0.050 C 
ATOM     61  H17 ACR d         -20.718  -9.332  -8.094  0.00  0.00     0.031 H 
ATOM     62  H18 ACR d         -20.406  -9.729  -6.370  0.00  0.00     0.031 H 
ATOM     63  H19 ACR d         -19.034  -9.570  -7.518  0.00  0.00     0.031 H 
ENDBRANCH   5  60
BRANCH   4  64
ATOM     64  N4B ACR d         -18.941  -7.081  -9.210  0.00  0.00    -0.056 N 
ATOM     65  H20 ACR d         -19.273  -6.186  -9.537  0.00  0.00     0.278 HD
ATOM     66  H21 ACR d         -18.016  -7.249  -9.573  0.00  0.00     0.278 HD
BRANCH  64  67
ATOM     67  C1A ACR d         -19.836  -8.120  -9.787  0.00  0.00     0.146 C 
ATOM     68  C2A ACR d         -19.218  -8.972 -10.915  0.00  0.00     0.093 C 
ATOM     69  C3A ACR d         -19.067  -8.125 -12.179  0.00  0.00     0.091 C 
ATOM     70  H2  ACR d         -19.882  -9.824 -11.125  0.00  0.00     0.090 H 
ATOM     71  C4A ACR d         -20.450  -7.796 -12.706  0.00  0.00     0.086 C 
ATOM     72  H3  ACR d         -18.588  -7.182 -11.877  0.00  0.00     0.091 H 
ATOM     73  C5A ACR d         -21.361  -7.308 -11.599  0.00  0.00    -0.027 C 
ATOM     74  H4  ACR d         -20.887  -8.703 -13.150  0.00  0.00     0.094 H 
ATOM     75  C7A ACR d         -21.160  -7.559 -10.296  0.00  0.00    -0.064 C 
ATOM     76  H7  ACR d         -21.960  -7.357  -9.585  0.00  0.00     0.080 H 
ATOM     77  H1  ACR d         -20.068  -8.808  -8.961  0.00  0.00     0.095 H 
BRANCH  68  78
ATOM     78  O2A ACR d         -17.940  -9.461 -10.534  0.00  0.00    -0.390 OA
ATOM     79  H8  ACR d         -18.010  -9.912  -9.700  0.00  0.00     0.210 HD
ENDBRANCH  68  78
BRANCH  69  80
ATOM     80  O3A ACR d         -18.220  -8.700 -13.237  0.00  0.00    -0.390 OA
ATOM     81  H9  ACR d         -17.713  -8.008 -13.646  0.00  0.00     0.210 HD
ENDBRANCH  69  80
BRANCH  71  82
ATOM     82  O4A ACR d         -20.336  -6.789 -13.710  0.00  0.00    -0.388 OA
ATOM     83  H10 ACR d         -20.988  -6.939 -14.385  0.00  0.00     0.210 HD
ENDBRANCH  71  82
BRANCH  73  84
ATOM     84  C6A ACR d         -22.567  -6.539 -12.042  0.00  0.00     0.039 C 
ATOM     85  H5  ACR d         -23.437  -6.768 -11.410  0.00  0.00     0.081 H 
ATOM     86  H6  ACR d         -22.810  -6.755 -13.093  0.00  0.00     0.081 H 
BRANCH  84  87
ATOM     87  O6A ACR d         -22.151  -5.170 -11.877  0.00  0.00    -0.397 OA
ATOM     88  H11 ACR d         -22.582  -4.628 -12.528  0.00  0.00     0.209 HD
ENDBRANCH  84  87
ENDBRANCH  73  84
ENDBRANCH  64  67
ENDBRANCH   4  64
TORSDOF 23
ENDMDL
MODEL 6
REMARK VINA RESULT:      -4.9      2.005      3.508
REMARK  23 active torsions:
REMARK  status: ('A' for Active; 'I' for Inactive)
REMARK    1  A    between atoms: N4B_18  and  C1A_1 
REMARK    2  A    between atoms: C2A_2  and  O2A_8 
REMARK    3  A    between atoms: C3A_3  and  O3A_9 
REMARK    4  A    between atoms: C4A_4  and  O4A_10 
REMARK    5  A    between atoms: C5A_5  and  C6A_6 
REMARK    6  A    between atoms: C6A_6  and  O6A_11 
REMARK    7  A    between atoms: O4C_30  and  C1B_12 
REMARK    8  A    between atoms: C2B_13  and  O2B_19 
REMARK    9  A    between atoms: C3B_14  and  O3B_20 
REMARK   10  A    between atoms: C4B_15  and  N4B_18 
REMARK   11  A    between atoms: C5B_16  and  C6B_17 
REMARK   12  A    between atoms: O4D_42  and  C1C_22 
REMARK   13  A    between atoms: C2C_23  and  O2C_28 
REMARK   14  A    between atoms: C3C_24  and  O3C_29 
REMARK   15  A    between atoms: C4C_25  and  O4C_30 
REMARK   16  A    between atoms: C5C_26  and  C6C_27 
REMARK   17  A    between atoms: C6C_27  and  O6C_32 
REMARK   18  A    between atoms: C1D_33  and  O1D_39 
REMARK   19  A    between atoms: C2D_34  and  O2D_40 
REMARK   20  A    between atoms: C3D_35  and  O3D_41 
REMARK   21  A    between atoms: C4D_36  and  O4D_42 
REMARK   22  A    between atoms: C5D_37  and  C6D_38 
REMARK   23  A    between atoms: C6D_38  and  O6D_44 
ROOT
ATOM      1  C1B ACR d         -20.467  -7.394  -5.182  0.00  0.00     0.159 C 
ATOM      2  C2B ACR d         -19.903  -6.141  -5.850  0.00  0.00     0.110 C 
ATOM      3  C3B ACR d         -19.893  -6.309  -7.378  0.00  0.00     0.094 C 
ATOM      4  C4B ACR d         -19.032  -7.513  -7.765  0.00  0.00     0.154 C 
ATOM      5  C5B ACR d         -19.614  -8.754  -7.056  0.00  0.00     0.068 C 
ATOM      6  O5B ACR d         -19.695  -8.514  -5.628  0.00  0.00    -0.351 OA
ATOM      7  H12 ACR d         -20.387  -7.303  -4.089  0.00  0.00     0.133 H 
ATOM      8  H13 ACR d         -18.877  -5.965  -5.494  0.00  0.00     0.094 H 
ATOM      9  H14 ACR d         -20.923  -6.465  -7.730  0.00  0.00     0.090 H 
ATOM     10  H15 ACR d         -18.029  -7.350  -7.343  0.00  0.00     0.092 H 
ATOM     11  H16 ACR d         -20.623  -8.941  -7.452  0.00  0.00     0.086 H 
ENDROOT
BRANCH   1  12
ATOM     12  O4C ACR d         -21.853  -7.554  -5.547  0.00  0.00    -0.348 OA
BRANCH  12  13
ATOM     13  C4C ACR d         -22.738  -7.980  -4.511  0.00  0.00     0.096 C 
ATOM     14  C3C ACR d         -22.079  -9.141  -3.765  0.00  0.00     0.092 C 
ATOM     15  C2C ACR d         -22.804  -9.525  -2.472  0.00  0.00     0.110 C 
ATOM     16  H26 ACR d         -21.063  -8.822  -3.487  0.00  0.00     0.091 H 
ATOM     17  C1C ACR d         -23.110  -8.311  -1.602  0.00  0.00     0.159 C 
ATOM     18  H25 ACR d         -23.738 -10.057  -2.709  0.00  0.00     0.094 H 
ATOM     19  O5C ACR d         -23.769  -7.315  -2.403  0.00  0.00    -0.348 OA
ATOM     20  H24 ACR d         -23.766  -8.608  -0.770  0.00  0.00     0.133 H 
ATOM     21  C5C ACR d         -23.032  -6.828  -3.544  0.00  0.00     0.089 C 
ATOM     22  H28 ACR d         -22.070  -6.419  -3.199  0.00  0.00     0.090 H 
ATOM     23  H27 ACR d         -23.683  -8.321  -4.957  0.00  0.00     0.091 H 
BRANCH  14  24
ATOM     24  O3C ACR d         -21.964 -10.271  -4.640  0.00  0.00    -0.390 OA
ATOM     25  H32 ACR d         -21.341 -10.889  -4.277  0.00  0.00     0.210 HD
ENDBRANCH  14  24
BRANCH  15  26
ATOM     26  O2C ACR d         -21.913 -10.363  -1.746  0.00  0.00    -0.388 OA
ATOM     27  H31 ACR d         -21.304  -9.825  -1.254  0.00  0.00     0.210 HD
ENDBRANCH  15  26
BRANCH  17  28
ATOM     28  O4D ACR d         -21.886  -7.779  -1.078  0.00  0.00    -0.348 OA
BRANCH  28  29
ATOM     29  C4D ACR d         -21.929  -7.121   0.195  0.00  0.00     0.096 C 
ATOM     30  C3D ACR d         -22.678  -5.814  -0.084  0.00  0.00     0.092 C 
ATOM     31  C2D ACR d         -22.968  -4.993   1.178  0.00  0.00     0.110 C 
ATOM     32  H36 ACR d         -23.650  -6.086  -0.522  0.00  0.00     0.091 H 
ATOM     33  C1D ACR d         -23.540  -5.841   2.345  0.00  0.00     0.156 C 
ATOM     34  H35 ACR d         -22.023  -4.552   1.526  0.00  0.00     0.094 H 
ATOM     35  O5D ACR d         -22.909  -7.132   2.478  0.00  0.00    -0.349 OA
ATOM     36  H34 ACR d         -23.342  -5.283   3.272  0.00  0.00     0.133 H 
ATOM     37  C5D ACR d         -22.728  -7.901   1.266  0.00  0.00     0.089 C 
ATOM     38  H38 ACR d         -23.723  -8.094   0.838  0.00  0.00     0.090 H 
ATOM     39  H37 ACR d         -20.909  -6.930   0.561  0.00  0.00     0.091 H 
BRANCH  30  40
ATOM     40  O3D ACR d         -21.968  -5.021  -1.058  0.00  0.00    -0.390 OA
ATOM     41  H43 ACR d         -21.572  -5.595  -1.703  0.00  0.00     0.210 HD
ENDBRANCH  30  40
BRANCH  31  42
ATOM     42  O2D ACR d         -23.862  -3.925   0.805  0.00  0.00    -0.388 OA
ATOM     43  H42 ACR d         -24.332  -3.624   1.573  0.00  0.00     0.210 HD
ENDBRANCH  31  42
BRANCH  33  44
ATOM     44  O1D ACR d         -24.965  -6.008   2.234  0.00  0.00    -0.369 OA
ATOM     45  H41 ACR d         -25.183  -6.280   1.350  0.00  0.00     0.212 HD
ENDBRANCH  33  44
BRANCH  37  46
ATOM     46  C6D ACR d         -22.122  -9.256   1.644  0.00  0.00     0.043 C 
ATOM     47  H39 ACR d         -22.818 -10.061   1.365  0.00  0.00     0.078 H 
ATOM     48  H40 ACR d         -21.940  -9.288   2.728  0.00  0.00     0.078 H 
BRANCH  46  49
ATOM     49  O6D ACR d         -20.878  -9.429   0.941  0.00  0.00    -0.398 OA
ATOM     50  H44 ACR d         -20.544  -8.580   0.677  0.00  0.00     0.209 HD
ENDBRANCH  46  49
ENDBRANCH  37  46
ENDBRANCH  28  29
ENDBRANCH  17  28
BRANCH  21  51
ATOM     51  C6C ACR d         -23.827  -5.701  -4.194  0.00  0.00     0.043 C 
ATOM     52  H29 ACR d         -24.775  -5.563  -3.654  0.00  0.00     0.078 H 
ATOM     53  H30 ACR d         -24.037  -5.958  -5.243  0.00  0.00     0.078 H 
BRANCH  51  54
ATOM     54  O6C ACR d         -23.068  -4.483  -4.143  0.00  0.00    -0.398 OA
ATOM     55  H33 ACR d         -22.167  -4.663  -4.385  0.00  0.00     0.209 HD
ENDBRANCH  51  54
ENDBRANCH  21  51
ENDBRANCH  12  13
ENDBRANCH   1  12
BRANCH   2  56
ATOM     56  O2B ACR d         -20.730  -5.031  -5.507  0.00  0.00    -0.388 OA
ATOM     57  H22 ACR d         -20.321  -4.536  -4.807  0.00  0.00     0.210 HD
ENDBRANCH   2  56
BRANCH   3  58
ATOM     58  O3B ACR d         -19.347  -5.153  -8.003  0.00  0.00    -0.391 OA
ATOM     59  H23 ACR d         -20.038  -4.682  -8.454  0.00  0.00     0.210 HD
ENDBRANCH   3  58
BRANCH   5  60
ATOM     60  C6B ACR d         -18.761  -9.999  -7.274  0.00  0.00    -0.050 C 
ATOM     61  H17 ACR d         -18.224 -10.243  -6.345  0.00  0.00     0.031 H 
ATOM     62  H18 ACR d         -18.035  -9.810  -8.079  0.00  0.00     0.031 H 
ATOM     63  H19 ACR d         -19.408 -10.843  -7.555  0.00  0.00     0.031 H 
ENDBRANCH   5  60
BRANCH   4  64
ATOM     64  N4B ACR d         -18.842  -7.624  -9.227  0.00  0.00    -0.056 N 
ATOM     65  H20 ACR d         -19.021  -6.713  -9.621  0.00  0.00     0.278 HD
ATOM     66  H21 ACR d         -17.879  -7.874  -9.385  0.00  0.00     0.278 HD
BRANCH  64  67
ATOM     67  C1A ACR d         -19.679  -8.599  -9.976  0.00  0.00     0.146 C 
ATOM     68  C2A ACR d         -18.998  -9.259 -11.192  0.00  0.00     0.093 C 
ATOM     69  C3A ACR d         -18.843  -8.235 -12.317  0.00  0.00     0.091 C 
ATOM     70  H2  ACR d         -19.622 -10.095 -11.543  0.00  0.00     0.090 H 
ATOM     71  C4A ACR d         -20.223  -7.882 -12.838  0.00  0.00     0.086 C 
ATOM     72  H3  ACR d         -18.410  -7.329 -11.868  0.00  0.00     0.091 H 
ATOM     73  C5A ACR d         -21.183  -7.589 -11.704  0.00  0.00    -0.027 C 
ATOM     74  H4  ACR d         -20.612  -8.730 -13.421  0.00  0.00     0.094 H 
ATOM     75  C7A ACR d         -21.010  -8.016 -10.444  0.00  0.00    -0.064 C 
ATOM     76  H7  ACR d         -21.836  -7.946  -9.739  0.00  0.00     0.080 H 
ATOM     77  H1  ACR d         -19.909  -9.406  -9.263  0.00  0.00     0.095 H 
BRANCH  68  78
ATOM     78  O2A ACR d         -17.713  -9.754 -10.841  0.00  0.00    -0.390 OA
ATOM     79  H8  ACR d         -17.044  -9.208 -11.238  0.00  0.00     0.210 HD
ENDBRANCH  68  78
BRANCH  69  80
ATOM     80  O3A ACR d         -17.945  -8.624 -13.416  0.00  0.00    -0.390 OA
ATOM     81  H9  ACR d         -17.058  -8.706 -13.085  0.00  0.00     0.210 HD
ENDBRANCH  69  80
BRANCH  71  82
ATOM     82  O4A ACR d         -20.119  -6.738 -13.685  0.00  0.00    -0.388 OA
ATOM     83  H10 ACR d         -20.979  -6.352 -13.801  0.00  0.00     0.210 HD
ENDBRANCH  71  82
BRANCH  73  84
ATOM     84  C6A ACR d         -22.404  -6.806 -12.074  0.00  0.00     0.039 C 
ATOM     85  H5  ACR d         -23.245  -7.046 -11.407  0.00  0.00     0.081 H 
ATOM     86  H6  ACR d         -22.697  -6.997 -13.116  0.00  0.00     0.081 H 
BRANCH  84  87
ATOM     87  O6A ACR d         -21.975  -5.442 -11.897  0.00  0.00    -0.397 OA
ATOM     88  H11 ACR d         -21.027  -5.401 -11.940  0.00  0.00     0.209 HD
ENDBRANCH  84  87
ENDBRANCH  73  84
ENDBRANCH  64  67
ENDBRANCH   4  64
TORSDOF 23
ENDMDL
MODEL 7
REMARK VINA RESULT:      -4.9      2.187      4.075
REMARK  23 active torsions:
REMARK  status: ('A' for Active; 'I' for Inactive)
REMARK    1  A    between atoms: N4B_18  and  C1A_1 
REMARK    2  A    between atoms: C2A_2  and  O2A_8 
REMARK    3  A    between atoms: C3A_3  and  O3A_9 
REMARK    4  A    between atoms: C4A_4  and  O4A_10 
REMARK    5  A    between atoms: C5A_5  and  C6A_6 
REMARK    6  A    between atoms: C6A_6  and  O6A_11 
REMARK    7  A    between atoms: O4C_30  and  C1B_12 
REMARK    8  A    between atoms: C2B_13  and  O2B_19 
REMARK    9  A    between atoms: C3B_14  and  O3B_20 
REMARK   10  A    between atoms: C4B_15  and  N4B_18 
REMARK   11  A    between atoms: C5B_16  and  C6B_17 
REMARK   12  A    between atoms: O4D_42  and  C1C_22 
REMARK   13  A    between atoms: C2C_23  and  O2C_28 
REMARK   14  A    between atoms: C3C_24  and  O3C_29 
REMARK   15  A    between atoms: C4C_25  and  O4C_30 
REMARK   16  A    between atoms: C5C_26  and  C6C_27 
REMARK   17  A    between atoms: C6C_27  and  O6C_32 
REMARK   18  A    between atoms: C1D_33  and  O1D_39 
REMARK   19  A    between atoms: C2D_34  and  O2D_40 
REMARK   20  A    between atoms: C3D_35  and  O3D_41 
REMARK   21  A    between atoms: C4D_36  and  O4D_42 
REMARK   22  A    between atoms: C5D_37  and  C6D_38 
REMARK   23  A    between atoms: C6D_38  and  O6D_44 
ROOT
ATOM      1  C1B ACR d         -19.591  -6.207  -4.532  0.00  0.00     0.159 C 
ATOM      2  C2B ACR d         -18.560  -5.758  -5.567  0.00  0.00     0.110 C 
ATOM      3  C3B ACR d         -19.115  -5.942  -6.988  0.00  0.00     0.094 C 
ATOM      4  C4B ACR d         -19.458  -7.413  -7.228  0.00  0.00     0.154 C 
ATOM      5  C5B ACR d         -20.482  -7.839  -6.154  0.00  0.00     0.068 C 
ATOM      6  O5B ACR d         -19.955  -7.558  -4.833  0.00  0.00    -0.351 OA
ATOM      7  H12 ACR d         -19.154  -6.157  -3.524  0.00  0.00     0.133 H 
ATOM      8  H13 ACR d         -17.642  -6.353  -5.453  0.00  0.00     0.094 H 
ATOM      9  H14 ACR d         -20.021  -5.329  -7.103  0.00  0.00     0.090 H 
ATOM     10  H15 ACR d         -18.546  -7.999  -7.045  0.00  0.00     0.092 H 
ATOM     11  H16 ACR d         -21.407  -7.265  -6.308  0.00  0.00     0.086 H 
ENDROOT
BRANCH   1  12
ATOM     12  O4C ACR d         -20.744  -5.343  -4.594  0.00  0.00    -0.348 OA
BRANCH  12  13
ATOM     13  C4C ACR d         -21.384  -5.046  -3.352  0.00  0.00     0.096 C 
ATOM     14  C3C ACR d         -21.788  -6.365  -2.694  0.00  0.00     0.092 C 
ATOM     15  C2C ACR d         -22.252  -6.205  -1.243  0.00  0.00     0.110 C 
ATOM     16  H26 ACR d         -20.900  -7.015  -2.683  0.00  0.00     0.091 H 
ATOM     17  C1C ACR d         -21.284  -5.361  -0.419  0.00  0.00     0.159 C 
ATOM     18  H25 ACR d         -23.254  -5.752  -1.216  0.00  0.00     0.094 H 
ATOM     19  O5C ACR d         -21.022  -4.133  -1.120  0.00  0.00    -0.348 OA
ATOM     20  H24 ACR d         -21.729  -5.139   0.562  0.00  0.00     0.133 H 
ATOM     21  C5C ACR d         -20.439  -4.263  -2.434  0.00  0.00     0.089 C 
ATOM     22  H28 ACR d         -19.498  -4.826  -2.352  0.00  0.00     0.090 H 
ATOM     23  H27 ACR d         -22.282  -4.440  -3.541  0.00  0.00     0.091 H 
BRANCH  14  24
ATOM     24  O3C ACR d         -22.798  -7.007  -3.483  0.00  0.00    -0.390 OA
ATOM     25  H32 ACR d         -23.395  -6.352  -3.824  0.00  0.00     0.210 HD
ENDBRANCH  14  24
BRANCH  15  26
ATOM     26  O2C ACR d         -22.270  -7.512  -0.681  0.00  0.00    -0.388 OA
ATOM     27  H31 ACR d         -22.369  -8.153  -1.376  0.00  0.00     0.210 HD
ENDBRANCH  15  26
BRANCH  17  28
ATOM     28  O4D ACR d         -20.060  -6.084  -0.234  0.00  0.00    -0.348 OA
BRANCH  28  29
ATOM     29  C4D ACR d         -19.377  -5.943   1.019  0.00  0.00     0.096 C 
ATOM     30  C3D ACR d         -19.322  -7.368   1.578  0.00  0.00     0.092 C 
ATOM     31  C2D ACR d         -18.504  -7.488   2.870  0.00  0.00     0.110 C 
ATOM     32  H36 ACR d         -18.823  -7.992   0.822  0.00  0.00     0.091 H 
ATOM     33  C1D ACR d         -17.138  -6.755   2.802  0.00  0.00     0.156 C 
ATOM     34  H35 ACR d         -19.082  -7.029   3.686  0.00  0.00     0.094 H 
ATOM     35  O5D ACR d         -17.203  -5.480   2.129  0.00  0.00    -0.349 OA
ATOM     36  H34 ACR d         -16.828  -6.562   3.840  0.00  0.00     0.133 H 
ATOM     37  C5D ACR d         -17.922  -5.438   0.874  0.00  0.00     0.089 C 
ATOM     38  H38 ACR d         -17.419  -6.122   0.175  0.00  0.00     0.090 H 
ATOM     39  H37 ACR d         -19.937  -5.270   1.685  0.00  0.00     0.091 H 
BRANCH  30  40
ATOM     40  O3D ACR d         -20.653  -7.891   1.765  0.00  0.00    -0.390 OA
ATOM     41  H43 ACR d         -20.643  -8.537   2.460  0.00  0.00     0.210 HD
ENDBRANCH  30  40
BRANCH  31  42
ATOM     42  O2D ACR d         -18.345  -8.892   3.154  0.00  0.00    -0.388 OA
ATOM     43  H42 ACR d         -19.185  -9.260   3.405  0.00  0.00     0.210 HD
ENDBRANCH  31  42
BRANCH  33  44
ATOM     44  O1D ACR d         -16.125  -7.574   2.191  0.00  0.00    -0.369 OA
ATOM     45  H41 ACR d         -15.750  -8.152   2.844  0.00  0.00     0.212 HD
ENDBRANCH  33  44
BRANCH  37  46
ATOM     46  C6D ACR d         -17.797  -4.024   0.298  0.00  0.00     0.043 C 
ATOM     47  H39 ACR d         -17.756  -4.076  -0.800  0.00  0.00     0.078 H 
ATOM     48  H40 ACR d         -16.879  -3.551   0.678  0.00  0.00     0.078 H 
BRANCH  46  49
ATOM     49  O6D ACR d         -18.941  -3.248   0.701  0.00  0.00    -0.398 OA
ATOM     50  H44 ACR d         -19.219  -2.698  -0.022  0.00  0.00     0.209 HD
ENDBRANCH  46  49
ENDBRANCH  37  46
ENDBRANCH  28  29
ENDBRANCH  17  28
BRANCH  21  51
ATOM     51  C6C ACR d         -20.120  -2.869  -2.965  0.00  0.00     0.043 C 
ATOM     52  H29 ACR d         -19.030  -2.729  -2.994  0.00  0.00     0.078 H 
ATOM     53  H30 ACR d         -20.570  -2.113  -2.304  0.00  0.00     0.078 H 
BRANCH  51  54
ATOM     54  O6C ACR d         -20.654  -2.725  -4.290  0.00  0.00    -0.398 OA
ATOM     55  H33 ACR d         -20.694  -1.803  -4.515  0.00  0.00     0.209 HD
ENDBRANCH  51  54
ENDBRANCH  21  51
ENDBRANCH  12  13
ENDBRANCH   1  12
BRANCH   2  56
ATOM     56  O2B ACR d         -18.270  -4.378  -5.353  0.00  0.00    -0.388 OA
ATOM     57  H22 ACR d         -17.491  -4.139  -5.840  0.00  0.00     0.210 HD
ENDBRANCH   2  56
BRANCH   3  58
ATOM     58  O3B ACR d         -18.150  -5.547  -7.956  0.00  0.00    -0.391 OA
ATOM     59  H23 ACR d         -18.199  -6.127  -8.707  0.00  0.00     0.210 HD
ENDBRANCH   3  58
BRANCH   5  60
ATOM     60  C6B ACR d         -20.808  -9.327  -6.222  0.00  0.00    -0.050 C 
ATOM     61  H17 ACR d         -21.579  -9.499  -6.989  0.00  0.00     0.031 H 
ATOM     62  H18 ACR d         -21.181  -9.665  -5.245  0.00  0.00     0.031 H 
ATOM     63  H19 ACR d         -19.900  -9.890  -6.484  0.00  0.00     0.031 H 
ENDBRANCH   5  60
BRANCH   4  64
ATOM     64  N4B ACR d         -19.834  -7.682  -8.633  0.00  0.00    -0.056 N 
ATOM     65  H20 ACR d         -19.765  -8.678  -8.775  0.00  0.00     0.278 HD
ATOM     66  H21 ACR d         -20.793  -7.393  -8.746  0.00  0.00     0.278 HD
BRANCH  64  67
ATOM     67  C1A ACR d         -19.047  -7.029  -9.713  0.00  0.00     0.146 C 
ATOM     68  C2A ACR d         -19.839  -6.064 -10.618  0.00  0.00     0.093 C 
ATOM     69  C3A ACR d         -20.781  -6.860 -11.522  0.00  0.00     0.091 C 
ATOM     70  H2  ACR d         -19.133  -5.494 -11.240  0.00  0.00     0.090 H 
ATOM     71  C4A ACR d         -19.945  -7.655 -12.506  0.00  0.00     0.086 C 
ATOM     72  H3  ACR d         -21.315  -7.574 -10.879  0.00  0.00     0.091 H 
ATOM     73  C5A ACR d         -18.811  -8.377 -11.809  0.00  0.00    -0.027 C 
ATOM     74  H4  ACR d         -19.521  -6.967 -13.252  0.00  0.00     0.094 H 
ATOM     75  C7A ACR d         -18.318  -8.023 -10.612  0.00  0.00    -0.064 C 
ATOM     76  H7  ACR d         -17.377  -8.454 -10.275  0.00  0.00     0.080 H 
ATOM     77  H1  ACR d         -18.280  -6.427  -9.202  0.00  0.00     0.095 H 
BRANCH  68  78
ATOM     78  O2A ACR d         -20.607  -5.158  -9.838  0.00  0.00    -0.390 OA
ATOM     79  H8  ACR d         -21.532  -5.306 -10.001  0.00  0.00     0.210 HD
ENDBRANCH  68  78
BRANCH  69  80
ATOM     80  O3A ACR d         -21.814  -6.075 -12.218  0.00  0.00    -0.390 OA
ATOM     81  H9  ACR d         -22.673  -6.409 -11.986  0.00  0.00     0.210 HD
ENDBRANCH  69  80
BRANCH  71  82
ATOM     82  O4A ACR d         -20.783  -8.605 -13.164  0.00  0.00    -0.388 OA
ATOM     83  H10 ACR d         -21.180  -9.177 -12.518  0.00  0.00     0.210 HD
ENDBRANCH  71  82
BRANCH  73  84
ATOM     84  C6A ACR d         -18.212  -9.524 -12.562  0.00  0.00     0.039 C 
ATOM     85  H5  ACR d         -18.879  -9.861 -13.368  0.00  0.00     0.081 H 
ATOM     86  H6  ACR d         -17.993 -10.367 -11.891  0.00  0.00     0.081 H 
BRANCH  84  87
ATOM     87  O6A ACR d         -16.999  -8.958 -13.096  0.00  0.00    -0.397 OA
ATOM     88  H11 ACR d         -16.699  -8.260 -12.525  0.00  0.00     0.209 HD
ENDBRANCH  84  87
ENDBRANCH  73  84
ENDBRANCH  64  67
ENDBRANCH   4  64
TORSDOF 23
ENDMDL
MODEL 8
REMARK VINA RESULT:      -4.6      2.395     10.097
REMARK  23 active torsions:
REMARK  status: ('A' for Active; 'I' for Inactive)
REMARK    1  A    between atoms: N4B_18  and  C1A_1 
REMARK    2  A    between atoms: C2A_2  and  O2A_8 
REMARK    3  A    between atoms: C3A_3  and  O3A_9 
REMARK    4  A    between atoms: C4A_4  and  O4A_10 
REMARK    5  A    between atoms: C5A_5  and  C6A_6 
REMARK    6  A    between atoms: C6A_6  and  O6A_11 
REMARK    7  A    between atoms: O4C_30  and  C1B_12 
REMARK    8  A    between atoms: C2B_13  and  O2B_19 
REMARK    9  A    between atoms: C3B_14  and  O3B_20 
REMARK   10  A    between atoms: C4B_15  and  N4B_18 
REMARK   11  A    between atoms: C5B_16  and  C6B_17 
REMARK   12  A    between atoms: O4D_42  and  C1C_22 
REMARK   13  A    between atoms: C2C_23  and  O2C_28 
REMARK   14  A    between atoms: C3C_24  and  O3C_29 
REMARK   15  A    between atoms: C4C_25  and  O4C_30 
REMARK   16  A    between atoms: C5C_26  and  C6C_27 
REMARK   17  A    between atoms: C6C_27  and  O6C_32 
REMARK   18  A    between atoms: C1D_33  and  O1D_39 
REMARK   19  A    between atoms: C2D_34  and  O2D_40 
REMARK   20  A    between atoms: C3D_35  and  O3D_41 
REMARK   21  A    between atoms: C4D_36  and  O4D_42 
REMARK   22  A    between atoms: C5D_37  and  C6D_38 
REMARK   23  A    between atoms: C6D_38  and  O6D_44 
ROOT
ATOM      1  C1B ACR d         -22.092  -8.352  -3.503  0.00  0.00     0.159 C 
ATOM      2  C2B ACR d         -23.116  -7.224  -3.617  0.00  0.00     0.110 C 
ATOM      3  C3B ACR d         -23.533  -6.738  -2.220  0.00  0.00     0.094 C 
ATOM      4  C4B ACR d         -24.147  -7.893  -1.427  0.00  0.00     0.154 C 
ATOM      5  C5B ACR d         -23.097  -9.022  -1.351  0.00  0.00     0.068 C 
ATOM      6  O5B ACR d         -22.662  -9.381  -2.688  0.00  0.00    -0.351 OA
ATOM      7  H12 ACR d         -21.867  -8.755  -4.501  0.00  0.00     0.133 H 
ATOM      8  H13 ACR d         -24.003  -7.586  -4.158  0.00  0.00     0.094 H 
ATOM      9  H14 ACR d         -22.647  -6.359  -1.691  0.00  0.00     0.090 H 
ATOM     10  H15 ACR d         -24.990  -8.285  -2.015  0.00  0.00     0.092 H 
ATOM     11  H16 ACR d         -22.235  -8.658  -0.772  0.00  0.00     0.086 H 
ENDROOT
BRANCH   1  12
ATOM     12  O4C ACR d         -20.879  -7.845  -2.910  0.00  0.00    -0.348 OA
BRANCH  12  13
ATOM     13  C4C ACR d         -19.669  -8.092  -3.626  0.00  0.00     0.096 C 
ATOM     14  C3C ACR d         -19.923  -9.228  -4.617  0.00  0.00     0.092 C 
ATOM     15  C2C ACR d         -18.786  -9.422  -5.626  0.00  0.00     0.110 C 
ATOM     16  H26 ACR d         -20.827  -8.973  -5.190  0.00  0.00     0.091 H 
ATOM     17  C1C ACR d         -18.360  -8.108  -6.272  0.00  0.00     0.159 C 
ATOM     18  H25 ACR d         -17.922  -9.891  -5.133  0.00  0.00     0.094 H 
ATOM     19  O5C ACR d         -18.106  -7.141  -5.238  0.00  0.00    -0.348 OA
ATOM     20  H24 ACR d         -17.445  -8.265  -6.862  0.00  0.00     0.133 H 
ATOM     21  C5C ACR d         -19.217  -6.831  -4.371  0.00  0.00     0.089 C 
ATOM     22  H28 ACR d         -20.059  -6.476  -4.983  0.00  0.00     0.090 H 
ATOM     23  H27 ACR d         -18.882  -8.391  -2.919  0.00  0.00     0.091 H 
BRANCH  14  24
ATOM     24  O3C ACR d         -20.180 -10.443  -3.900  0.00  0.00    -0.390 OA
ATOM     25  H32 ACR d         -21.117 -10.557  -3.800  0.00  0.00     0.210 HD
ENDBRANCH  14  24
BRANCH  15  26
ATOM     26  O2C ACR d         -19.301 -10.261  -6.653  0.00  0.00    -0.388 OA
ATOM     27  H31 ACR d         -20.152  -9.938  -6.928  0.00  0.00     0.210 HD
ENDBRANCH  15  26
BRANCH  17  28
ATOM     28  O4D ACR d         -19.407  -7.636  -7.130  0.00  0.00    -0.348 OA
BRANCH  28  29
ATOM     29  C4D ACR d         -19.056  -7.233  -8.461  0.00  0.00     0.096 C 
ATOM     30  C3D ACR d         -20.107  -7.909  -9.346  0.00  0.00     0.092 C 
ATOM     31  C2D ACR d         -20.014  -7.507 -10.823  0.00  0.00     0.110 C 
ATOM     32  H36 ACR d         -21.093  -7.582  -8.984  0.00  0.00     0.091 H 
ATOM     33  C1D ACR d         -19.863  -5.977 -11.034  0.00  0.00     0.156 C 
ATOM     34  H35 ACR d         -19.124  -7.987 -11.254  0.00  0.00     0.094 H 
ATOM     35  O5D ACR d         -18.980  -5.350 -10.080  0.00  0.00    -0.349 OA
ATOM     36  H34 ACR d         -19.420  -5.835 -12.031  0.00  0.00     0.133 H 
ATOM     37  C5D ACR d         -19.160  -5.707  -8.689  0.00  0.00     0.089 C 
ATOM     38  H38 ACR d         -20.179  -5.413  -8.396  0.00  0.00     0.090 H 
ATOM     39  H37 ACR d         -18.040  -7.575  -8.708  0.00  0.00     0.091 H 
BRANCH  30  40
ATOM     40  O3D ACR d         -20.045  -9.343  -9.202  0.00  0.00    -0.390 OA
ATOM     41  H43 ACR d         -20.635  -9.749  -9.826  0.00  0.00     0.210 HD
ENDBRANCH  30  40
BRANCH  31  42
ATOM     42  O2D ACR d         -21.183  -8.026 -11.489  0.00  0.00    -0.388 OA
ATOM     43  H42 ACR d         -21.757  -8.430 -10.848  0.00  0.00     0.210 HD
ENDBRANCH  31  42
BRANCH  33  44
ATOM     44  O1D ACR d         -21.137  -5.310 -11.025  0.00  0.00    -0.369 OA
ATOM     45  H41 ACR d         -21.774  -5.838 -11.492  0.00  0.00     0.212 HD
ENDBRANCH  33  44
BRANCH  37  46
ATOM     46  C6D ACR d         -18.185  -4.874  -7.851  0.00  0.00     0.043 C 
ATOM     47  H39 ACR d         -17.917  -3.958  -8.400  0.00  0.00     0.078 H 
ATOM     48  H40 ACR d         -17.276  -5.461  -7.651  0.00  0.00     0.078 H 
BRANCH  46  49
ATOM     49  O6D ACR d         -18.815  -4.522  -6.606  0.00  0.00    -0.398 OA
ATOM     50  H44 ACR d         -19.436  -5.200  -6.364  0.00  0.00     0.209 HD
ENDBRANCH  46  49
ENDBRANCH  37  46
ENDBRANCH  28  29
ENDBRANCH  17  28
BRANCH  21  51
ATOM     51  C6C ACR d         -18.801  -5.706  -3.428  0.00  0.00     0.043 C 
ATOM     52  H29 ACR d         -18.072  -5.057  -3.933  0.00  0.00     0.078 H 
ATOM     53  H30 ACR d         -18.345  -6.137  -2.524  0.00  0.00     0.078 H 
BRANCH  51  54
ATOM     54  O6C ACR d         -19.954  -4.934  -3.061  0.00  0.00    -0.398 OA
ATOM     55  H33 ACR d         -20.316  -5.273  -2.250  0.00  0.00     0.209 HD
ENDBRANCH  51  54
ENDBRANCH  21  51
ENDBRANCH  12  13
ENDBRANCH   1  12
BRANCH   2  56
ATOM     56  O2B ACR d         -22.523  -6.141  -4.331  0.00  0.00    -0.388 OA
ATOM     57  H22 ACR d         -23.181  -5.724  -4.876  0.00  0.00     0.210 HD
ENDBRANCH   2  56
BRANCH   3  58
ATOM     58  O3B ACR d         -24.504  -5.702  -2.321  0.00  0.00    -0.391 OA
ATOM     59  H23 ACR d         -25.369  -6.064  -2.168  0.00  0.00     0.210 HD
ENDBRANCH   3  58
BRANCH   5  60
ATOM     60  C6B ACR d         -23.644 -10.278  -0.683  0.00  0.00    -0.050 C 
ATOM     61  H17 ACR d         -24.615 -10.539  -1.131  0.00  0.00     0.031 H 
ATOM     62  H18 ACR d         -23.775 -10.094   0.393  0.00  0.00     0.031 H 
ATOM     63  H19 ACR d         -22.939 -11.109  -0.830  0.00  0.00     0.031 H 
ENDBRANCH   5  60
BRANCH   4  64
ATOM     64  N4B ACR d         -24.725  -7.450  -0.140  0.00  0.00    -0.056 N 
ATOM     65  H20 ACR d         -25.193  -6.572  -0.310  0.00  0.00     0.278 HD
ATOM     66  H21 ACR d         -25.401  -8.143   0.138  0.00  0.00     0.278 HD
BRANCH  64  67
ATOM     67  C1A ACR d         -23.807  -7.243   1.012  0.00  0.00     0.146 C 
ATOM     68  C2A ACR d         -24.396  -6.443   2.192  0.00  0.00     0.093 C 
ATOM     69  C3A ACR d         -24.543  -4.973   1.797  0.00  0.00     0.091 C 
ATOM     70  H2  ACR d         -23.716  -6.523   3.054  0.00  0.00     0.090 H 
ATOM     71  C4A ACR d         -23.157  -4.380   1.629  0.00  0.00     0.086 C 
ATOM     72  H3  ACR d         -25.039  -4.952   0.816  0.00  0.00     0.091 H 
ATOM     73  C5A ACR d         -22.269  -5.279   0.795  0.00  0.00    -0.027 C 
ATOM     74  H4  ACR d         -22.700  -4.253   2.621  0.00  0.00     0.094 H 
ATOM     75  C7A ACR d         -22.484  -6.592   0.619  0.00  0.00    -0.064 C 
ATOM     76  H7  ACR d         -21.697  -7.207   0.185  0.00  0.00     0.080 H 
ATOM     77  H1  ACR d         -23.575  -8.249   1.394  0.00  0.00     0.095 H 
BRANCH  68  78
ATOM     78  O2A ACR d         -25.672  -6.950   2.557  0.00  0.00    -0.390 OA
ATOM     79  H8  ACR d         -25.583  -7.509   3.321  0.00  0.00     0.210 HD
ENDBRANCH  68  78
BRANCH  69  80
ATOM     80  O3A ACR d         -25.366  -4.148   2.696  0.00  0.00    -0.390 OA
ATOM     81  H9  ACR d         -24.800  -3.628   3.254  0.00  0.00     0.210 HD
ENDBRANCH  69  80
BRANCH  71  82
ATOM     82  O4A ACR d         -23.272  -3.105   0.998  0.00  0.00    -0.388 OA
ATOM     83  H10 ACR d         -23.053  -2.423   1.622  0.00  0.00     0.210 HD
ENDBRANCH  71  82
BRANCH  73  84
ATOM     84  C6A ACR d         -21.069  -4.623   0.186  0.00  0.00     0.039 C 
ATOM     85  H5  ACR d         -20.272  -5.356  -0.008  0.00  0.00     0.081 H 
ATOM     86  H6  ACR d         -20.682  -3.825   0.835  0.00  0.00     0.081 H 
BRANCH  84  87
ATOM     87  O6A ACR d         -21.589  -4.084  -1.045  0.00  0.00    -0.397 OA
ATOM     88  H11 ACR d         -21.000  -3.413  -1.369  0.00  0.00     0.209 HD
ENDBRANCH  84  87
ENDBRANCH  73  84
ENDBRANCH  64  67
ENDBRANCH   4  64
TORSDOF 23
ENDMDL
