MODEL 1
REMARK VINA RESULT:      -8.2      0.000      0.000
REMARK  10 active torsions:
REMARK  status: ('A' for Active; 'I' for Inactive)
REMARK    1  A    between atoms: C3_3  and  O3_4 
REMARK    2  A    between atoms: O3_4  and  C1X_29 
REMARK    3  A    between atoms: C10_11  and  C19_22 
REMARK    4  A    between atoms: C12_13  and  O12_14 
REMARK    5  A    between atoms: C13_15  and  C18_21 
REMARK    6  A    between atoms: C14_16  and  O14_17 
REMARK    7  A    between atoms: C17_20  and  C20_23 
REMARK    8  A    between atoms: C3X_31  and  O3X_32 
REMARK    9  A    between atoms: C4X_33  and  O4X_34 
REMARK   10  A    between atoms: C5X_35  and  C6X_37 
ROOT
ATOM      1  C1  DGX d         -12.586  30.825  29.510  0.00  0.00    -0.055 C 
ATOM      2  C2  DGX d         -13.948  31.155  28.905  0.00  0.00    -0.040 C 
ATOM      3  C3  DGX d         -15.067  30.950  29.917  0.00  0.00     0.042 C 
ATOM      4  C4  DGX d         -15.101  29.490  30.340  0.00  0.00    -0.037 C 
ATOM      5  C5  DGX d         -13.782  29.116  31.006  0.00  0.00    -0.044 C 
ATOM      6  C6  DGX d         -13.815  27.712  31.594  0.00  0.00    -0.060 C 
ATOM      7  C7  DGX d         -13.786  26.651  30.506  0.00  0.00    -0.058 C 
ATOM      8  C8  DGX d         -12.573  26.860  29.598  0.00  0.00    -0.019 C 
ATOM      9  C9  DGX d         -12.486  28.281  29.030  0.00  0.00    -0.038 C 
ATOM     10  C10 DGX d         -12.538  29.407  30.104  0.00  0.00    -0.036 C 
ATOM     11  C11 DGX d         -11.245  28.404  28.162  0.00  0.00    -0.036 C 
ATOM     12  C12 DGX d         -11.317  27.396  27.035  0.00  0.00     0.046 C 
ATOM     13  C13 DGX d         -11.280  25.931  27.555  0.00  0.00     0.021 C 
ATOM     14  C14 DGX d         -12.483  25.725  28.540  0.00  0.00     0.072 C 
ATOM     15  C15 DGX d         -13.693  25.547  27.601  0.00  0.00    -0.035 C 
ATOM     16  C16 DGX d         -13.169  24.985  26.279  0.00  0.00    -0.054 C 
ATOM     17  C17 DGX d         -11.639  25.077  26.299  0.00  0.00    -0.018 C 
ATOM     18  H1  DGX d         -11.821  30.906  28.724  0.00  0.00     0.034 H 
ATOM     19  H2  DGX d         -12.369  31.550  30.308  0.00  0.00     0.034 H 
ATOM     20  H3  DGX d         -14.124  30.500  28.039  0.00  0.00     0.036 H 
ATOM     21  H4  DGX d         -13.949  32.204  28.577  0.00  0.00     0.036 H 
ATOM     22  H5  DGX d         -16.028  31.229  29.461  0.00  0.00     0.083 H 
ATOM     23  H6  DGX d         -15.256  28.857  29.454  0.00  0.00     0.037 H 
ATOM     24  H7  DGX d         -15.927  29.334  31.050  0.00  0.00     0.037 H 
ATOM     25  H8  DGX d         -13.681  29.792  31.867  0.00  0.00     0.041 H 
ATOM     26  H9  DGX d         -14.736  27.593  32.184  0.00  0.00     0.033 H 
ATOM     27  H10 DGX d         -12.941  27.578  32.248  0.00  0.00     0.033 H 
ATOM     28  H11 DGX d         -14.705  26.721  29.906  0.00  0.00     0.033 H 
ATOM     29  H12 DGX d         -13.726  25.656  30.969  0.00  0.00     0.033 H 
ATOM     30  H13 DGX d         -11.685  26.746  30.238  0.00  0.00     0.045 H 
ATOM     31  H14 DGX d         -13.363  28.423  28.381  0.00  0.00     0.042 H 
ATOM     32  H15 DGX d         -10.350  28.210  28.772  0.00  0.00     0.037 H 
ATOM     33  H16 DGX d         -11.190  29.420  27.743  0.00  0.00     0.037 H 
ATOM     34  H17 DGX d         -12.287  27.537  26.535  0.00  0.00     0.084 H 
ATOM     35  H20 DGX d         -14.181  26.518  27.429  0.00  0.00     0.037 H 
ATOM     36  H21 DGX d         -14.415  24.848  28.046  0.00  0.00     0.037 H 
ATOM     37  H22 DGX d         -13.567  25.573  25.439  0.00  0.00     0.034 H 
ATOM     38  H23 DGX d         -13.480  23.935  26.172  0.00  0.00     0.034 H 
ATOM     39  H24 DGX d         -11.355  25.680  25.424  0.00  0.00     0.048 H 
ENDROOT
BRANCH   3  40
ATOM     40  O3  DGX d         -14.839  31.749  31.091  0.00  0.00    -0.356 OA
BRANCH  40  41
ATOM     41  C1X DGX d         -15.869  32.656  31.493  0.00  0.00     0.134 C 
ATOM     42  O5X DGX d         -17.093  32.176  30.958  0.00  0.00    -0.354 OA
ATOM     43  C5X DGX d         -18.243  32.950  31.237  0.00  0.00     0.065 C 
ATOM     44  C4X DGX d         -18.042  34.411  30.802  0.00  0.00     0.085 C 
ATOM     45  H41 DGX d         -18.493  32.916  32.307  0.00  0.00     0.086 H 
ATOM     46  C3X DGX d         -16.709  35.003  31.272  0.00  0.00     0.067 C 
ATOM     47  H39 DGX d         -18.074  34.454  29.704  0.00  0.00     0.090 H 
ATOM     48  C2X DGX d         -15.592  34.037  30.897  0.00  0.00     0.007 C 
ATOM     49  H37 DGX d         -16.540  35.953  30.744  0.00  0.00     0.087 H 
ATOM     50  H35 DGX d         -15.533  33.956  29.802  0.00  0.00     0.044 H 
ATOM     51  H36 DGX d         -14.637  34.416  31.288  0.00  0.00     0.044 H 
ATOM     52  H34 DGX d         -15.922  32.717  32.591  0.00  0.00     0.129 H 
BRANCH  43  53
ATOM     53  C6X DGX d         -19.314  32.272  30.403  0.00  0.00    -0.050 C 
ATOM     54  H42 DGX d         -19.115  32.450  29.336  0.00  0.00     0.031 H 
ATOM     55  H43 DGX d         -20.299  32.685  30.667  0.00  0.00     0.031 H 
ATOM     56  H44 DGX d         -19.305  31.191  30.603  0.00  0.00     0.031 H 
ENDBRANCH  43  53
BRANCH  44  57
ATOM     57  O4X DGX d         -19.110  35.208  31.340  0.00  0.00    -0.390 OA
ATOM     58  H40 DGX d         -19.631  35.558  30.627  0.00  0.00     0.210 HD
ENDBRANCH  44  57
BRANCH  46  59
ATOM     59  O3X DGX d         -16.731  35.278  32.690  0.00  0.00    -0.393 OA
ATOM     60  H38 DGX d         -17.554  35.694  32.918  0.00  0.00     0.210 HD
ENDBRANCH  46  59
ENDBRANCH  40  41
ENDBRANCH   3  40
BRANCH  10  61
ATOM     61  C19 DGX d         -11.233  29.464  30.917  0.00  0.00    -0.068 C 
ATOM     62  H28 DGX d         -11.116  30.468  31.353  0.00  0.00     0.028 H 
ATOM     63  H29 DGX d         -10.380  29.250  30.257  0.00  0.00     0.028 H 
ATOM     64  H30 DGX d         -11.269  28.717  31.723  0.00  0.00     0.028 H 
ENDBRANCH  10  61
BRANCH  14  65
ATOM     65  O14 DGX d         -12.375  24.466  29.256  0.00  0.00    -0.389 OA
ATOM     66  H19 DGX d         -12.529  24.615  30.181  0.00  0.00     0.210 HD
ENDBRANCH  14  65
BRANCH  12  67
ATOM     67  O12 DGX d         -10.299  27.636  26.059  0.00  0.00    -0.395 OA
ATOM     68  H18 DGX d          -9.910  26.810  25.799  0.00  0.00     0.210 HD
ENDBRANCH  12  67
BRANCH  13  69
ATOM     69  C18 DGX d          -9.913  25.640  28.216  0.00  0.00    -0.063 C 
ATOM     70  H25 DGX d          -9.364  26.584  28.354  0.00  0.00     0.028 H 
ATOM     71  H26 DGX d          -9.329  24.968  27.571  0.00  0.00     0.028 H 
ATOM     72  H27 DGX d         -10.072  25.163  29.193  0.00  0.00     0.028 H 
ENDBRANCH  13  69
BRANCH  17  73
ATOM     73  C20 DGX d         -10.888  23.793  26.120  0.00  0.00    -0.045 A 
ATOM     74  C22 DGX d          -9.770  23.580  25.412  0.00  0.00    -0.006 A 
ATOM     75  C23 DGX d          -9.336  22.211  25.614  0.00  0.00     0.283 A 
ATOM     76  H33 DGX d          -9.268  24.317  24.785  0.00  0.00     0.093 H 
ATOM     77  O21 DGX d         -10.163  21.613  26.471  0.00  0.00    -0.314 OA
ATOM     78  O23 DGX d          -8.355  21.617  25.185  0.00  0.00    -0.260 OA
ATOM     79  C21 DGX d         -11.235  22.526  26.799  0.00  0.00     0.050 A 
ATOM     80  H31 DGX d         -12.196  22.141  26.429  0.00  0.00     0.082 H 
ATOM     81  H32 DGX d         -11.295  22.676  27.888  0.00  0.00     0.082 H 
ENDBRANCH  17  73
TORSDOF 10
ENDMDL
MODEL 2
REMARK VINA RESULT:      -6.3      1.625      3.235
REMARK  10 active torsions:
REMARK  status: ('A' for Active; 'I' for Inactive)
REMARK    1  A    between atoms: C3_3  and  O3_4 
REMARK    2  A    between atoms: O3_4  and  C1X_29 
REMARK    3  A    between atoms: C10_11  and  C19_22 
REMARK    4  A    between atoms: C12_13  and  O12_14 
REMARK    5  A    between atoms: C13_15  and  C18_21 
REMARK    6  A    between atoms: C14_16  and  O14_17 
REMARK    7  A    between atoms: C17_20  and  C20_23 
REMARK    8  A    between atoms: C3X_31  and  O3X_32 
REMARK    9  A    between atoms: C4X_33  and  O4X_34 
REMARK   10  A    between atoms: C5X_35  and  C6X_37 
ROOT
ATOM      1  C1  DGX d         -13.508  30.773  30.797  0.00  0.00    -0.055 C 
ATOM      2  C2  DGX d         -12.412  31.201  31.769  0.00  0.00    -0.040 C 
ATOM      3  C3  DGX d         -11.704  32.459  31.284  0.00  0.00     0.042 C 
ATOM      4  C4  DGX d         -11.038  32.177  29.947  0.00  0.00    -0.037 C 
ATOM      5  C5  DGX d         -12.095  31.798  28.916  0.00  0.00    -0.044 C 
ATOM      6  C6  DGX d         -11.507  31.660  27.518  0.00  0.00    -0.060 C 
ATOM      7  C7  DGX d         -10.659  30.404  27.392  0.00  0.00    -0.058 C 
ATOM      8  C8  DGX d         -11.475  29.174  27.791  0.00  0.00    -0.019 C 
ATOM      9  C9  DGX d         -12.120  29.305  29.175  0.00  0.00    -0.038 C 
ATOM     10  C10 DGX d         -12.980  30.589  29.364  0.00  0.00    -0.036 C 
ATOM     11  C11 DGX d         -12.926  28.053  29.478  0.00  0.00    -0.036 C 
ATOM     12  C12 DGX d         -12.013  26.846  29.441  0.00  0.00     0.046 C 
ATOM     13  C13 DGX d         -11.430  26.595  28.021  0.00  0.00     0.021 C 
ATOM     14  C14 DGX d         -10.645  27.877  27.575  0.00  0.00     0.072 C 
ATOM     15  C15 DGX d          -9.309  27.767  28.335  0.00  0.00    -0.035 C 
ATOM     16  C16 DGX d          -9.050  26.284  28.595  0.00  0.00    -0.054 C 
ATOM     17  C17 DGX d         -10.330  25.512  28.252  0.00  0.00    -0.018 C 
ATOM     18  H1  DGX d         -13.934  29.819  31.142  0.00  0.00     0.034 H 
ATOM     19  H2  DGX d         -14.294  31.543  30.789  0.00  0.00     0.034 H 
ATOM     20  H3  DGX d         -11.677  30.388  31.861  0.00  0.00     0.036 H 
ATOM     21  H4  DGX d         -12.863  31.400  32.752  0.00  0.00     0.036 H 
ATOM     22  H5  DGX d         -10.947  32.759  32.023  0.00  0.00     0.083 H 
ATOM     23  H6  DGX d         -10.325  31.347  30.062  0.00  0.00     0.037 H 
ATOM     24  H7  DGX d         -10.502  33.076  29.609  0.00  0.00     0.037 H 
ATOM     25  H8  DGX d         -12.780  32.656  28.862  0.00  0.00     0.041 H 
ATOM     26  H9  DGX d         -10.879  32.538  27.306  0.00  0.00     0.033 H 
ATOM     27  H10 DGX d         -12.328  31.612  26.788  0.00  0.00     0.033 H 
ATOM     28  H11 DGX d          -9.784  30.489  28.052  0.00  0.00     0.033 H 
ATOM     29  H12 DGX d         -10.323  30.296  26.350  0.00  0.00     0.033 H 
ATOM     30  H13 DGX d         -12.314  29.117  27.081  0.00  0.00     0.045 H 
ATOM     31  H14 DGX d         -11.302  29.361  29.908  0.00  0.00     0.042 H 
ATOM     32  H15 DGX d         -13.720  27.937  28.725  0.00  0.00     0.037 H 
ATOM     33  H16 DGX d         -13.378  28.141  30.477  0.00  0.00     0.037 H 
ATOM     34  H17 DGX d         -11.164  27.061  30.105  0.00  0.00     0.084 H 
ATOM     35  H20 DGX d          -9.374  28.310  29.290  0.00  0.00     0.037 H 
ATOM     36  H21 DGX d          -8.495  28.190  27.729  0.00  0.00     0.037 H 
ATOM     37  H22 DGX d          -8.792  26.128  29.652  0.00  0.00     0.034 H 
ATOM     38  H23 DGX d          -8.222  25.933  27.961  0.00  0.00     0.034 H 
ATOM     39  H24 DGX d         -10.617  24.970  29.166  0.00  0.00     0.048 H 
ENDROOT
BRANCH   3  40
ATOM     40  O3  DGX d         -12.646  33.528  31.097  0.00  0.00    -0.356 OA
BRANCH  40  41
ATOM     41  C1X DGX d         -14.018  33.274  31.413  0.00  0.00     0.134 C 
ATOM     42  O5X DGX d         -14.793  33.656  30.286  0.00  0.00    -0.354 OA
ATOM     43  C5X DGX d         -16.191  33.493  30.406  0.00  0.00     0.065 C 
ATOM     44  C4X DGX d         -16.726  34.217  31.653  0.00  0.00     0.085 C 
ATOM     45  H41 DGX d         -16.463  32.428  30.455  0.00  0.00     0.086 H 
ATOM     46  C3X DGX d         -15.909  33.926  32.917  0.00  0.00     0.067 C 
ATOM     47  H39 DGX d         -16.700  35.300  31.464  0.00  0.00     0.090 H 
ATOM     48  C2X DGX d         -14.435  34.143  32.601  0.00  0.00     0.007 C 
ATOM     49  H37 DGX d         -16.207  34.638  33.700  0.00  0.00     0.087 H 
ATOM     50  H35 DGX d         -14.269  35.203  32.354  0.00  0.00     0.044 H 
ATOM     51  H36 DGX d         -13.831  33.873  33.479  0.00  0.00     0.044 H 
ATOM     52  H34 DGX d         -14.169  32.210  31.647  0.00  0.00     0.129 H 
BRANCH  43  53
ATOM     53  C6X DGX d         -16.715  34.133  29.134  0.00  0.00    -0.050 C 
ATOM     54  H42 DGX d         -17.685  33.686  28.872  0.00  0.00     0.031 H 
ATOM     55  H43 DGX d         -16.000  33.961  28.317  0.00  0.00     0.031 H 
ATOM     56  H44 DGX d         -16.839  35.214  29.292  0.00  0.00     0.031 H 
ENDBRANCH  43  53
BRANCH  44  57
ATOM     57  O4X DGX d         -18.084  33.807  31.883  0.00  0.00    -0.390 OA
ATOM     58  H40 DGX d         -18.100  32.886  32.116  0.00  0.00     0.210 HD
ENDBRANCH  44  57
BRANCH  46  59
ATOM     59  O3X DGX d         -16.164  32.591  33.407  0.00  0.00    -0.393 OA
ATOM     60  H38 DGX d         -16.727  32.132  32.795  0.00  0.00     0.210 HD
ENDBRANCH  46  59
ENDBRANCH  40  41
ENDBRANCH   3  40
BRANCH  10  61
ATOM     61  C19 DGX d         -14.294  30.506  28.567  0.00  0.00    -0.068 C 
ATOM     62  H28 DGX d         -14.371  29.517  28.089  0.00  0.00     0.028 H 
ATOM     63  H29 DGX d         -14.304  31.287  27.793  0.00  0.00     0.028 H 
ATOM     64  H30 DGX d         -15.145  30.652  29.247  0.00  0.00     0.028 H 
ENDBRANCH  10  61
BRANCH  14  65
ATOM     65  O14 DGX d         -10.285  27.817  26.169  0.00  0.00    -0.389 OA
ATOM     66  H19 DGX d         -10.004  28.677  25.879  0.00  0.00     0.210 HD
ENDBRANCH  14  65
BRANCH  12  67
ATOM     67  O12 DGX d         -12.670  25.683  29.956  0.00  0.00    -0.395 OA
ATOM     68  H18 DGX d         -13.259  25.938  30.656  0.00  0.00     0.210 HD
ENDBRANCH  12  67
BRANCH  13  69
ATOM     69  C18 DGX d         -12.567  26.221  27.043  0.00  0.00    -0.063 C 
ATOM     70  H25 DGX d         -13.074  27.136  26.702  0.00  0.00     0.028 H 
ATOM     71  H26 DGX d         -13.292  25.569  27.553  0.00  0.00     0.028 H 
ATOM     72  H27 DGX d         -12.146  25.691  26.176  0.00  0.00     0.028 H 
ENDBRANCH  13  69
BRANCH  17  73
ATOM     73  C20 DGX d         -10.210  24.440  27.213  0.00  0.00    -0.045 A 
ATOM     74  C22 DGX d         -10.712  23.198  27.242  0.00  0.00    -0.006 A 
ATOM     75  C23 DGX d         -10.444  22.550  25.973  0.00  0.00     0.283 A 
ATOM     76  H33 DGX d         -11.238  22.748  28.084  0.00  0.00     0.093 H 
ATOM     77  O21 DGX d          -9.820  23.409  25.167  0.00  0.00    -0.314 OA
ATOM     78  O23 DGX d         -10.754  21.436  25.569  0.00  0.00    -0.260 OA
ATOM     79  C21 DGX d          -9.560  24.629  25.897  0.00  0.00     0.050 A 
ATOM     80  H31 DGX d          -8.478  24.782  26.019  0.00  0.00     0.082 H 
ATOM     81  H32 DGX d          -9.995  25.492  25.372  0.00  0.00     0.082 H 
ENDBRANCH  17  73
TORSDOF 10
ENDMDL
MODEL 3
REMARK VINA RESULT:      -6.2      1.490      2.976
REMARK  10 active torsions:
REMARK  status: ('A' for Active; 'I' for Inactive)
REMARK    1  A    between atoms: C3_3  and  O3_4 
REMARK    2  A    between atoms: O3_4  and  C1X_29 
REMARK    3  A    between atoms: C10_11  and  C19_22 
REMARK    4  A    between atoms: C12_13  and  O12_14 
REMARK    5  A    between atoms: C13_15  and  C18_21 
REMARK    6  A    between atoms: C14_16  and  O14_17 
REMARK    7  A    between atoms: C17_20  and  C20_23 
REMARK    8  A    between atoms: C3X_31  and  O3X_32 
REMARK    9  A    between atoms: C4X_33  and  O4X_34 
REMARK   10  A    between atoms: C5X_35  and  C6X_37 
ROOT
ATOM      1  C1  DGX d         -15.497  30.295  30.756  0.00  0.00    -0.055 C 
ATOM      2  C2  DGX d         -14.728  30.517  32.056  0.00  0.00    -0.040 C 
ATOM      3  C3  DGX d         -13.897  31.792  31.995  0.00  0.00     0.042 C 
ATOM      4  C4  DGX d         -12.873  31.671  30.878  0.00  0.00    -0.037 C 
ATOM      5  C5  DGX d         -13.586  31.503  29.541  0.00  0.00    -0.044 C 
ATOM      6  C6  DGX d         -12.618  31.537  28.367  0.00  0.00    -0.060 C 
ATOM      7  C7  DGX d         -11.782  30.269  28.297  0.00  0.00    -0.058 C 
ATOM      8  C8  DGX d         -12.691  29.040  28.250  0.00  0.00    -0.019 C 
ATOM      9  C9  DGX d         -13.711  29.004  29.394  0.00  0.00    -0.038 C 
ATOM     10  C10 DGX d         -14.575  30.292  29.525  0.00  0.00    -0.036 C 
ATOM     11  C11 DGX d         -14.582  27.767  29.257  0.00  0.00    -0.036 C 
ATOM     12  C12 DGX d         -13.710  26.530  29.297  0.00  0.00     0.046 C 
ATOM     13  C13 DGX d         -12.741  26.456  28.084  0.00  0.00     0.021 C 
ATOM     14  C14 DGX d         -11.847  27.745  28.084  0.00  0.00     0.072 C 
ATOM     15  C15 DGX d         -10.792  27.454  29.169  0.00  0.00    -0.035 C 
ATOM     16  C16 DGX d         -10.634  25.936  29.260  0.00  0.00    -0.054 C 
ATOM     17  C17 DGX d         -11.766  25.292  28.451  0.00  0.00    -0.018 C 
ATOM     18  H1  DGX d         -16.015  29.325  30.814  0.00  0.00     0.034 H 
ATOM     19  H2  DGX d         -16.238  31.099  30.642  0.00  0.00     0.034 H 
ATOM     20  H3  DGX d         -14.059  29.662  32.228  0.00  0.00     0.036 H 
ATOM     21  H4  DGX d         -15.444  30.596  32.887  0.00  0.00     0.036 H 
ATOM     22  H5  DGX d         -13.385  31.941  32.956  0.00  0.00     0.083 H 
ATOM     23  H6  DGX d         -12.233  30.796  31.063  0.00  0.00     0.037 H 
ATOM     24  H7  DGX d         -12.253  32.579  30.850  0.00  0.00     0.037 H 
ATOM     25  H8  DGX d         -14.218  32.396  29.426  0.00  0.00     0.041 H 
ATOM     26  H9  DGX d         -11.947  32.401  28.482  0.00  0.00     0.033 H 
ATOM     27  H10 DGX d         -13.191  31.639  27.434  0.00  0.00     0.033 H 
ATOM     28  H11 DGX d         -11.137  30.210  29.185  0.00  0.00     0.033 H 
ATOM     29  H12 DGX d         -11.158  30.294  27.392  0.00  0.00     0.033 H 
ATOM     30  H13 DGX d         -13.287  29.131  27.330  0.00  0.00     0.045 H 
ATOM     31  H14 DGX d         -13.141  28.909  30.331  0.00  0.00     0.042 H 
ATOM     32  H15 DGX d         -15.123  27.804  28.299  0.00  0.00     0.037 H 
ATOM     33  H16 DGX d         -15.305  27.734  30.085  0.00  0.00     0.037 H 
ATOM     34  H17 DGX d         -13.089  26.600  30.203  0.00  0.00     0.084 H 
ATOM     35  H20 DGX d         -11.128  27.855  30.137  0.00  0.00     0.037 H 
ATOM     36  H21 DGX d          -9.833  27.915  28.894  0.00  0.00     0.037 H 
ATOM     37  H22 DGX d         -10.698  25.616  30.310  0.00  0.00     0.034 H 
ATOM     38  H23 DGX d          -9.661  25.637  28.844  0.00  0.00     0.034 H 
ATOM     39  H24 DGX d         -12.313  24.641  29.149  0.00  0.00     0.048 H 
ENDROOT
BRANCH   3  40
ATOM     40  O3  DGX d         -14.733  32.927  31.712  0.00  0.00    -0.356 OA
BRANCH  40  41
ATOM     41  C1X DGX d         -16.150  32.752  31.798  0.00  0.00     0.134 C 
ATOM     42  O5X DGX d         -16.722  33.322  30.631  0.00  0.00    -0.354 OA
ATOM     43  C5X DGX d         -18.130  33.261  30.532  0.00  0.00     0.065 C 
ATOM     44  C4X DGX d         -18.798  33.879  31.772  0.00  0.00     0.085 C 
ATOM     45  H41 DGX d         -18.475  32.224  30.409  0.00  0.00     0.086 H 
ATOM     46  C3X DGX d         -18.198  33.380  33.092  0.00  0.00     0.067 C 
ATOM     47  H39 DGX d         -18.674  34.971  31.725  0.00  0.00     0.090 H 
ATOM     48  C2X DGX d         -16.683  33.511  33.015  0.00  0.00     0.007 C 
ATOM     49  H37 DGX d         -18.564  34.020  33.908  0.00  0.00     0.087 H 
ATOM     50  H35 DGX d         -16.414  34.574  32.928  0.00  0.00     0.044 H 
ATOM     51  H36 DGX d         -16.235  33.093  33.929  0.00  0.00     0.044 H 
ATOM     52  H34 DGX d         -16.403  31.684  31.874  0.00  0.00     0.129 H 
BRANCH  43  53
ATOM     53  C6X DGX d         -18.416  34.083  29.289  0.00  0.00    -0.050 C 
ATOM     54  H42 DGX d         -17.695  34.911  29.224  0.00  0.00     0.031 H 
ATOM     55  H43 DGX d         -19.437  34.489  29.345  0.00  0.00     0.031 H 
ATOM     56  H44 DGX d         -18.324  33.445  28.399  0.00  0.00     0.031 H 
ENDBRANCH  43  53
BRANCH  44  57
ATOM     57  O4X DGX d         -20.198  33.559  31.757  0.00  0.00    -0.390 OA
ATOM     58  H40 DGX d         -20.699  34.345  31.574  0.00  0.00     0.210 HD
ENDBRANCH  44  57
BRANCH  46  59
ATOM     59  O3X DGX d         -18.609  32.023  33.371  0.00  0.00    -0.393 OA
ATOM     60  H38 DGX d         -18.334  31.784  34.247  0.00  0.00     0.210 HD
ENDBRANCH  46  59
ENDBRANCH  40  41
ENDBRANCH   3  40
BRANCH  10  61
ATOM     61  C19 DGX d         -15.600  30.396  28.381  0.00  0.00    -0.068 C 
ATOM     62  H28 DGX d         -16.162  31.337  28.476  0.00  0.00     0.028 H 
ATOM     63  H29 DGX d         -16.297  29.547  28.435  0.00  0.00     0.028 H 
ATOM     64  H30 DGX d         -15.075  30.378  27.415  0.00  0.00     0.028 H 
ENDBRANCH  10  61
BRANCH  14  65
ATOM     65  O14 DGX d         -11.093  27.869  26.849  0.00  0.00    -0.389 OA
ATOM     66  H19 DGX d         -11.635  28.282  26.189  0.00  0.00     0.210 HD
ENDBRANCH  14  65
BRANCH  12  67
ATOM     67  O12 DGX d         -14.499  25.342  29.417  0.00  0.00    -0.395 OA
ATOM     68  H18 DGX d         -15.359  25.496  29.043  0.00  0.00     0.210 HD
ENDBRANCH  12  67
BRANCH  13  69
ATOM     69  C18 DGX d         -13.546  26.289  26.775  0.00  0.00    -0.063 C 
ATOM     70  H25 DGX d         -14.337  27.053  26.730  0.00  0.00     0.028 H 
ATOM     71  H26 DGX d         -14.003  25.289  26.749  0.00  0.00     0.028 H 
ATOM     72  H27 DGX d         -12.874  26.407  25.913  0.00  0.00     0.028 H 
ENDBRANCH  13  69
BRANCH  17  73
ATOM     73  C20 DGX d         -11.359  24.378  27.337  0.00  0.00    -0.045 A 
ATOM     74  C22 DGX d         -10.135  24.198  26.820  0.00  0.00    -0.006 A 
ATOM     75  C23 DGX d         -10.191  23.134  25.835  0.00  0.00     0.283 A 
ATOM     76  H33 DGX d          -9.243  24.759  27.096  0.00  0.00     0.093 H 
ATOM     77  O21 DGX d         -11.431  22.648  25.787  0.00  0.00    -0.314 OA
ATOM     78  O23 DGX d          -9.303  22.633  25.157  0.00  0.00    -0.260 OA
ATOM     79  C21 DGX d         -12.273  23.429  26.664  0.00  0.00     0.050 A 
ATOM     80  H31 DGX d         -13.034  23.972  26.085  0.00  0.00     0.082 H 
ATOM     81  H32 DGX d         -12.768  22.781  27.403  0.00  0.00     0.082 H 
ENDBRANCH  17  73
TORSDOF 10
ENDMDL
MODEL 4
REMARK VINA RESULT:      -5.9      1.468     10.315
REMARK  10 active torsions:
REMARK  status: ('A' for Active; 'I' for Inactive)
REMARK    1  A    between atoms: C3_3  and  O3_4 
REMARK    2  A    between atoms: O3_4  and  C1X_29 
REMARK    3  A    between atoms: C10_11  and  C19_22 
REMARK    4  A    between atoms: C12_13  and  O12_14 
REMARK    5  A    between atoms: C13_15  and  C18_21 
REMARK    6  A    between atoms: C14_16  and  O14_17 
REMARK    7  A    between atoms: C17_20  and  C20_23 
REMARK    8  A    between atoms: C3X_31  and  O3X_32 
REMARK    9  A    between atoms: C4X_33  and  O4X_34 
REMARK   10  A    between atoms: C5X_35  and  C6X_37 
ROOT
ATOM      1  C1  DGX d         -13.499  27.421  28.751  0.00  0.00    -0.055 C 
ATOM      2  C2  DGX d         -12.854  27.933  27.466  0.00  0.00    -0.040 C 
ATOM      3  C3  DGX d         -11.354  28.127  27.639  0.00  0.00     0.042 C 
ATOM      4  C4  DGX d         -11.103  29.169  28.717  0.00  0.00    -0.037 C 
ATOM      5  C5  DGX d         -11.677  28.686  30.044  0.00  0.00    -0.044 C 
ATOM      6  C6  DGX d         -11.316  29.614  31.196  0.00  0.00    -0.060 C 
ATOM      7  C7  DGX d         -12.088  30.922  31.119  0.00  0.00    -0.058 C 
ATOM      8  C8  DGX d         -13.591  30.645  31.060  0.00  0.00    -0.019 C 
ATOM      9  C9  DGX d         -13.978  29.674  29.939  0.00  0.00    -0.038 C 
ATOM     10  C10 DGX d         -13.196  28.327  29.958  0.00  0.00    -0.036 C 
ATOM     11  C11 DGX d         -15.479  29.439  29.968  0.00  0.00    -0.036 C 
ATOM     12  C12 DGX d         -16.198  30.759  29.785  0.00  0.00     0.046 C 
ATOM     13  C13 DGX d         -15.937  31.738  30.965  0.00  0.00     0.021 C 
ATOM     14  C14 DGX d         -14.391  31.978  31.077  0.00  0.00     0.072 C 
ATOM     15  C15 DGX d         -14.098  32.984  29.946  0.00  0.00    -0.035 C 
ATOM     16  C16 DGX d         -15.378  33.782  29.699  0.00  0.00    -0.054 C 
ATOM     17  C17 DGX d         -16.518  33.097  30.462  0.00  0.00    -0.018 C 
ATOM     18  H1  DGX d         -14.588  27.376  28.607  0.00  0.00     0.034 H 
ATOM     19  H2  DGX d         -13.115  26.412  28.962  0.00  0.00     0.034 H 
ATOM     20  H3  DGX d         -13.311  28.896  27.194  0.00  0.00     0.036 H 
ATOM     21  H4  DGX d         -13.031  27.204  26.662  0.00  0.00     0.036 H 
ATOM     22  H5  DGX d         -10.916  28.461  26.687  0.00  0.00     0.083 H 
ATOM     23  H6  DGX d         -11.588  30.114  28.431  0.00  0.00     0.037 H 
ATOM     24  H7  DGX d         -10.020  29.331  28.824  0.00  0.00     0.037 H 
ATOM     25  H8  DGX d         -11.166  27.737  30.261  0.00  0.00     0.041 H 
ATOM     26  H9  DGX d         -10.239  29.833  31.155  0.00  0.00     0.033 H 
ATOM     27  H10 DGX d         -11.554  29.114  32.146  0.00  0.00     0.033 H 
ATOM     28  H11 DGX d         -11.784  31.471  30.217  0.00  0.00     0.033 H 
ATOM     29  H12 DGX d         -11.865  31.528  32.010  0.00  0.00     0.033 H 
ATOM     30  H13 DGX d         -13.847  30.128  31.996  0.00  0.00     0.045 H 
ATOM     31  H14 DGX d         -13.735  30.167  28.986  0.00  0.00     0.042 H 
ATOM     32  H15 DGX d         -15.763  28.998  30.935  0.00  0.00     0.037 H 
ATOM     33  H16 DGX d         -15.759  28.753  29.156  0.00  0.00     0.037 H 
ATOM     34  H17 DGX d         -15.787  31.229  28.879  0.00  0.00     0.084 H 
ATOM     35  H20 DGX d         -13.807  32.447  29.032  0.00  0.00     0.037 H 
ATOM     36  H21 DGX d         -13.285  33.661  30.247  0.00  0.00     0.037 H 
ATOM     37  H22 DGX d         -15.606  33.798  28.623  0.00  0.00     0.034 H 
ATOM     38  H23 DGX d         -15.251  34.812  30.063  0.00  0.00     0.034 H 
ATOM     39  H24 DGX d         -17.284  32.847  29.713  0.00  0.00     0.048 H 
ENDROOT
BRANCH   3  40
ATOM     40  O3  DGX d         -10.730  26.900  28.052  0.00  0.00    -0.356 OA
BRANCH  40  41
ATOM     41  C1X DGX d         -10.720  25.809  27.125  0.00  0.00     0.134 C 
ATOM     42  O5X DGX d         -12.025  25.251  27.108  0.00  0.00    -0.354 OA
ATOM     43  C5X DGX d         -12.218  24.142  26.255  0.00  0.00     0.065 C 
ATOM     44  C4X DGX d         -11.199  23.030  26.555  0.00  0.00     0.085 C 
ATOM     45  H41 DGX d         -12.139  24.437  25.198  0.00  0.00     0.086 H 
ATOM     46  C3X DGX d          -9.760  23.545  26.666  0.00  0.00     0.067 C 
ATOM     47  H39 DGX d         -11.474  22.556  27.509  0.00  0.00     0.090 H 
ATOM     48  C2X DGX d          -9.743  24.737  27.613  0.00  0.00     0.007 C 
ATOM     49  H37 DGX d          -9.134  22.749  27.096  0.00  0.00     0.087 H 
ATOM     50  H35 DGX d         -10.039  24.406  28.620  0.00  0.00     0.044 H 
ATOM     51  H36 DGX d          -8.729  25.159  27.649  0.00  0.00     0.044 H 
ATOM     52  H34 DGX d         -10.432  26.159  26.122  0.00  0.00     0.129 H 
BRANCH  43  53
ATOM     53  C6X DGX d         -13.629  23.699  26.594  0.00  0.00    -0.050 C 
ATOM     54  H42 DGX d         -14.138  24.495  27.157  0.00  0.00     0.031 H 
ATOM     55  H43 DGX d         -13.590  22.785  27.205  0.00  0.00     0.031 H 
ATOM     56  H44 DGX d         -14.182  23.496  25.665  0.00  0.00     0.031 H 
ENDBRANCH  43  53
BRANCH  44  57
ATOM     57  O4X DGX d         -11.255  22.051  25.506  0.00  0.00    -0.390 OA
ATOM     58  H40 DGX d         -10.653  22.297  24.813  0.00  0.00     0.210 HD
ENDBRANCH  44  57
BRANCH  46  59
ATOM     59  O3X DGX d          -9.225  23.880  25.367  0.00  0.00    -0.393 OA
ATOM     60  H38 DGX d          -9.805  24.496  24.936  0.00  0.00     0.210 HD
ENDBRANCH  46  59
ENDBRANCH  40  41
ENDBRANCH   3  40
BRANCH  10  61
ATOM     61  C19 DGX d         -13.648  27.434  31.126  0.00  0.00    -0.068 C 
ATOM     62  H28 DGX d         -12.766  27.081  31.681  0.00  0.00     0.028 H 
ATOM     63  H29 DGX d         -14.203  26.570  30.734  0.00  0.00     0.028 H 
ATOM     64  H30 DGX d         -14.299  28.011  31.800  0.00  0.00     0.028 H 
ENDBRANCH  10  61
BRANCH  14  65
ATOM     65  O14 DGX d         -14.049  32.678  32.302  0.00  0.00    -0.389 OA
ATOM     66  H19 DGX d         -13.596  32.085  32.889  0.00  0.00     0.210 HD
ENDBRANCH  14  65
BRANCH  12  67
ATOM     67  O12 DGX d         -17.597  30.561  29.562  0.00  0.00    -0.395 OA
ATOM     68  H18 DGX d         -17.969  30.084  30.295  0.00  0.00     0.210 HD
ENDBRANCH  12  67
BRANCH  13  69
ATOM     69  C18 DGX d         -16.548  31.170  32.267  0.00  0.00    -0.063 C 
ATOM     70  H25 DGX d         -16.223  31.781  33.122  0.00  0.00     0.028 H 
ATOM     71  H26 DGX d         -16.210  30.132  32.408  0.00  0.00     0.028 H 
ATOM     72  H27 DGX d         -17.645  31.191  32.197  0.00  0.00     0.028 H 
ENDBRANCH  13  69
BRANCH  17  73
ATOM     73  C20 DGX d         -17.248  33.932  31.469  0.00  0.00    -0.045 A 
ATOM     74  C22 DGX d         -18.567  33.982  31.702  0.00  0.00    -0.006 A 
ATOM     75  C23 DGX d         -18.812  34.844  32.843  0.00  0.00     0.283 A 
ATOM     76  H33 DGX d         -19.331  33.461  31.128  0.00  0.00     0.093 H 
ATOM     77  O21 DGX d         -17.646  35.278  33.322  0.00  0.00    -0.314 OA
ATOM     78  O23 DGX d         -19.859  35.137  33.407  0.00  0.00    -0.260 OA
ATOM     79  C21 DGX d         -16.584  34.804  32.463  0.00  0.00     0.050 A 
ATOM     80  H31 DGX d         -16.086  35.648  31.964  0.00  0.00     0.082 H 
ATOM     81  H32 DGX d         -15.844  34.233  33.043  0.00  0.00     0.082 H 
ENDBRANCH  17  73
TORSDOF 10
ENDMDL
