MODEL 1
REMARK VINA RESULT:      -7.5      0.000      0.000
REMARK  1 active torsions:
REMARK  status: ('A' for Active; 'I' for Inactive)
REMARK    1  A    between atoms: C3_3  and  N15_15 
ROOT
ATOM      1  C1  PRL d           9.040  23.289  49.516  0.00  0.00    -0.069 A 
ATOM      2  C2  PRL d           9.837  23.579  48.488  0.00  0.00    -0.057 A 
ATOM      3  C3  PRL d          10.829  22.647  48.002  0.00  0.00     0.028 A 
ATOM      4  C4  PRL d          10.945  21.430  48.647  0.00  0.00    -0.029 A 
ATOM      5  C5  PRL d           9.519  18.184  51.872  0.00  0.00    -0.029 A 
ATOM      6  C6  PRL d           8.695  17.750  52.895  0.00  0.00     0.028 A 
ATOM      7  C7  PRL d           7.687  18.664  53.392  0.00  0.00    -0.057 A 
ATOM      8  C8  PRL d           7.542  19.892  52.890  0.00  0.00    -0.069 A 
ATOM      9  C9  PRL d           8.290  21.626  51.235  0.00  0.00    -0.059 A 
ATOM     10  N10 PRL d          10.196  19.874  50.313  0.00  0.00    -0.247 NA
ATOM     11  C11 PRL d          10.126  21.110  49.708  0.00  0.00     0.070 A 
ATOM     12  C12 PRL d           8.387  20.374  51.818  0.00  0.00    -0.006 A 
ATOM     13  C13 PRL d           9.121  22.021  50.199  0.00  0.00    -0.006 A 
ATOM     14  C14 PRL d           9.385  19.448  51.341  0.00  0.00     0.070 A 
ATOM     15  N16 PRL d           8.805  16.504  53.411  0.00  0.00    -0.399 N 
ATOM     16  H1  PRL d           8.314  24.023  49.846  0.00  0.00     0.085 H 
ATOM     17  H2  PRL d           9.739  24.543  48.003  0.00  0.00     0.086 H 
ATOM     18  H3  PRL d          11.692  20.717  48.314  0.00  0.00     0.090 H 
ATOM     19  H4  PRL d          10.282  17.520  51.483  0.00  0.00     0.090 H 
ATOM     20  H5  PRL d           7.031  18.341  54.193  0.00  0.00     0.086 H 
ATOM     21  H6  PRL d           6.775  20.542  53.295  0.00  0.00     0.085 H 
ATOM     22  H7  PRL d           7.541  22.319  51.601  0.00  0.00     0.086 H 
ATOM     23  H10 PRL d           9.526  15.861  53.053  0.00  0.00     0.156 HD
ATOM     24  H11 PRL d           8.169  16.199  54.162  0.00  0.00     0.156 HD
ENDROOT
BRANCH   3  25
ATOM     25  N15 PRL d          11.554  22.940  46.898  0.00  0.00    -0.399 N 
ATOM     26  H8  PRL d          12.034  22.188  46.382  0.00  0.00     0.156 HD
ATOM     27  H9  PRL d          11.626  23.915  46.573  0.00  0.00     0.156 HD
ENDBRANCH   3  25
TORSDOF 1
ENDMDL
MODEL 2
REMARK VINA RESULT:      -7.4      0.201      5.666
REMARK  1 active torsions:
REMARK  status: ('A' for Active; 'I' for Inactive)
REMARK    1  A    between atoms: C3_3  and  N15_15 
ROOT
ATOM      1  C1  PRL d           7.661  19.780  52.796  0.00  0.00    -0.069 A 
ATOM      2  C2  PRL d           7.880  18.568  53.305  0.00  0.00    -0.057 A 
ATOM      3  C3  PRL d           8.874  17.674  52.756  0.00  0.00     0.028 A 
ATOM      4  C4  PRL d           9.599  18.107  51.661  0.00  0.00    -0.029 A 
ATOM      5  C5  PRL d          10.874  21.444  48.465  0.00  0.00    -0.029 A 
ATOM      6  C6  PRL d          10.784  22.707  47.907  0.00  0.00     0.028 A 
ATOM      7  C7  PRL d           9.802  23.622  48.448  0.00  0.00    -0.057 A 
ATOM      8  C8  PRL d           8.998  23.277  49.455  0.00  0.00    -0.069 A 
ATOM      9  C9  PRL d           8.283  21.536  51.119  0.00  0.00    -0.059 A 
ATOM     10  N10 PRL d          10.153  19.818  50.072  0.00  0.00    -0.247 NA
ATOM     11  C11 PRL d           9.391  19.359  51.124  0.00  0.00     0.070 A 
ATOM     12  C12 PRL d           9.070  21.965  50.062  0.00  0.00    -0.006 A 
ATOM     13  C13 PRL d           8.413  20.271  51.666  0.00  0.00    -0.006 A 
ATOM     14  C14 PRL d          10.053  21.069  49.506  0.00  0.00     0.070 A 
ATOM     15  N16 PRL d          11.598  23.092  46.897  0.00  0.00    -0.399 N 
ATOM     16  H1  PRL d           6.902  20.412  53.241  0.00  0.00     0.085 H 
ATOM     17  H2  PRL d           7.294  18.243  54.157  0.00  0.00     0.086 H 
ATOM     18  H3  PRL d          10.341  17.452  51.217  0.00  0.00     0.090 H 
ATOM     19  H4  PRL d          11.601  20.739  48.078  0.00  0.00     0.090 H 
ATOM     20  H5  PRL d           9.717  24.616  48.023  0.00  0.00     0.086 H 
ATOM     21  H6  PRL d           8.275  23.995  49.827  0.00  0.00     0.085 H 
ATOM     22  H7  PRL d           7.542  22.213  51.530  0.00  0.00     0.086 H 
ATOM     23  H10 PRL d          12.294  22.434  46.517  0.00  0.00     0.156 HD
ATOM     24  H11 PRL d          11.522  24.043  46.508  0.00  0.00     0.156 HD
ENDROOT
BRANCH   3  25
ATOM     25  N15 PRL d           9.132  16.492  53.358  0.00  0.00    -0.399 N 
ATOM     26  H8  PRL d           8.460  16.101  54.034  0.00  0.00     0.156 HD
ATOM     27  H9  PRL d          10.000  15.981  53.141  0.00  0.00     0.156 HD
ENDBRANCH   3  25
TORSDOF 1
ENDMDL
MODEL 3
REMARK VINA RESULT:      -7.2      1.505      6.160
REMARK  1 active torsions:
REMARK  status: ('A' for Active; 'I' for Inactive)
REMARK    1  A    between atoms: C3_3  and  N15_15 
ROOT
ATOM      1  C1  PRL d           9.691  18.814  51.432  0.00  0.00    -0.069 A 
ATOM      2  C2  PRL d           8.879  18.664  52.478  0.00  0.00    -0.057 A 
ATOM      3  C3  PRL d           7.982  19.712  52.908  0.00  0.00     0.028 A 
ATOM      4  C4  PRL d           7.994  20.903  52.206  0.00  0.00    -0.029 A 
ATOM      5  C5  PRL d           9.431  23.667  48.564  0.00  0.00    -0.029 A 
ATOM      6  C6  PRL d          10.174  23.903  47.421  0.00  0.00     0.028 A 
ATOM      7  C7  PRL d          11.072  22.862  46.965  0.00  0.00    -0.057 A 
ATOM      8  C8  PRL d          11.194  21.704  47.615  0.00  0.00    -0.069 A 
ATOM      9  C9  PRL d          10.487  20.245  49.535  0.00  0.00    -0.059 A 
ATOM     10  N10 PRL d           8.792  22.237  50.378  0.00  0.00    -0.247 NA
ATOM     11  C11 PRL d           8.822  21.075  51.118  0.00  0.00     0.070 A 
ATOM     12  C12 PRL d          10.429  21.426  48.813  0.00  0.00    -0.006 A 
ATOM     13  C13 PRL d           9.715  20.036  50.665  0.00  0.00    -0.006 A 
ATOM     14  C14 PRL d           9.543  22.477  49.249  0.00  0.00     0.070 A 
ATOM     15  N16 PRL d          10.058  25.060  46.729  0.00  0.00    -0.399 N 
ATOM     16  H1  PRL d          10.348  18.000  51.151  0.00  0.00     0.085 H 
ATOM     17  H2  PRL d           8.892  17.727  53.023  0.00  0.00     0.086 H 
ATOM     18  H3  PRL d           7.343  21.713  52.516  0.00  0.00     0.090 H 
ATOM     19  H4  PRL d           8.751  24.430  48.926  0.00  0.00     0.090 H 
ATOM     20  H5  PRL d          11.662  23.029  46.071  0.00  0.00     0.086 H 
ATOM     21  H6  PRL d          11.881  20.954  47.239  0.00  0.00     0.085 H 
ATOM     22  H7  PRL d          11.158  19.460  49.204  0.00  0.00     0.086 H 
ATOM     23  H10 PRL d           9.417  25.796  47.060  0.00  0.00     0.156 HD
ATOM     24  H11 PRL d          10.611  25.206  45.872  0.00  0.00     0.156 HD
ENDROOT
BRANCH   3  25
ATOM     25  N15 PRL d           7.107  19.488  53.915  0.00  0.00    -0.399 N 
ATOM     26  H8  PRL d           7.179  20.026  54.789  0.00  0.00     0.156 HD
ATOM     27  H9  PRL d           6.368  18.778  53.807  0.00  0.00     0.156 HD
ENDBRANCH   3  25
TORSDOF 1
ENDMDL
MODEL 4
REMARK VINA RESULT:      -6.9      1.528      2.489
REMARK  1 active torsions:
REMARK  status: ('A' for Active; 'I' for Inactive)
REMARK    1  A    between atoms: C3_3  and  N15_15 
ROOT
ATOM      1  C1  PRL d          11.270  21.633  47.658  0.00  0.00    -0.069 A 
ATOM      2  C2  PRL d          11.231  22.798  47.014  0.00  0.00    -0.057 A 
ATOM      3  C3  PRL d          10.330  23.859  47.404  0.00  0.00     0.028 A 
ATOM      4  C4  PRL d           9.483  23.629  48.472  0.00  0.00    -0.029 A 
ATOM      5  C5  PRL d           7.892  20.972  52.130  0.00  0.00    -0.029 A 
ATOM      6  C6  PRL d           7.903  19.833  52.916  0.00  0.00     0.028 A 
ATOM      7  C7  PRL d           8.805  18.762  52.550  0.00  0.00    -0.057 A 
ATOM      8  C8  PRL d           9.610  18.851  51.490  0.00  0.00    -0.069 A 
ATOM      9  C9  PRL d          10.439  20.205  49.543  0.00  0.00    -0.059 A 
ATOM     10  N10 PRL d           8.716  22.223  50.258  0.00  0.00    -0.247 NA
ATOM     11  C11 PRL d           9.514  22.432  49.155  0.00  0.00     0.070 A 
ATOM     12  C12 PRL d           9.624  20.030  50.650  0.00  0.00    -0.006 A 
ATOM     13  C13 PRL d          10.415  21.367  48.789  0.00  0.00    -0.006 A 
ATOM     14  C14 PRL d           8.716  21.083  51.032  0.00  0.00     0.070 A 
ATOM     15  N16 PRL d           7.112  19.721  54.008  0.00  0.00    -0.399 N 
ATOM     16  H1  PRL d          11.961  20.867  47.326  0.00  0.00     0.085 H 
ATOM     17  H2  PRL d          11.895  22.956  46.171  0.00  0.00     0.086 H 
ATOM     18  H3  PRL d           8.785  24.401  48.777  0.00  0.00     0.090 H 
ATOM     19  H4  PRL d           7.225  21.789  52.382  0.00  0.00     0.090 H 
ATOM     20  H5  PRL d           8.828  17.862  53.154  0.00  0.00     0.086 H 
ATOM     21  H6  PRL d          10.268  18.022  51.252  0.00  0.00     0.085 H 
ATOM     22  H7  PRL d          11.116  19.408  49.258  0.00  0.00     0.086 H 
ATOM     23  H10 PRL d           6.472  20.488  54.261  0.00  0.00     0.156 HD
ATOM     24  H11 PRL d           7.149  18.869  54.586  0.00  0.00     0.156 HD
ENDROOT
BRANCH   3  25
ATOM     25  N15 PRL d          10.386  25.060  46.785  0.00  0.00    -0.399 N 
ATOM     26  H8  PRL d          10.548  25.109  45.769  0.00  0.00     0.156 HD
ATOM     27  H9  PRL d          10.265  25.927  47.329  0.00  0.00     0.156 HD
ENDBRANCH   3  25
TORSDOF 1
ENDMDL
MODEL 5
REMARK VINA RESULT:      -6.0      1.186      1.226
REMARK  1 active torsions:
REMARK  status: ('A' for Active; 'I' for Inactive)
REMARK    1  A    between atoms: C3_3  and  N15_15 
ROOT
ATOM      1  C1  PRL d           9.014  23.386  49.668  0.00  0.00    -0.069 A 
ATOM      2  C2  PRL d           9.756  23.960  48.721  0.00  0.00    -0.057 A 
ATOM      3  C3  PRL d          10.635  23.193  47.867  0.00  0.00     0.028 A 
ATOM      4  C4  PRL d          10.702  21.827  48.067  0.00  0.00    -0.029 A 
ATOM      5  C5  PRL d           9.261  17.771  50.176  0.00  0.00    -0.029 A 
ATOM      6  C6  PRL d           8.481  17.065  51.074  0.00  0.00     0.028 A 
ATOM      7  C7  PRL d           7.585  17.811  51.932  0.00  0.00    -0.057 A 
ATOM      8  C8  PRL d           7.501  19.141  51.875  0.00  0.00    -0.069 A 
ATOM      9  C9  PRL d           8.262  21.287  50.813  0.00  0.00    -0.059 A 
ATOM     10  N10 PRL d           9.954  19.847  49.197  0.00  0.00    -0.247 NA
ATOM     11  C11 PRL d           9.937  21.214  49.037  0.00  0.00     0.070 A 
ATOM     12  C12 PRL d           8.302  19.908  50.944  0.00  0.00    -0.006 A 
ATOM     13  C13 PRL d           9.044  21.960  49.890  0.00  0.00    -0.006 A 
ATOM     14  C14 PRL d           9.188  19.145  50.101  0.00  0.00     0.070 A 
ATOM     15  N16 PRL d           8.530  15.714  51.143  0.00  0.00    -0.399 N 
ATOM     16  H1  PRL d           8.373  24.004  50.285  0.00  0.00     0.085 H 
ATOM     17  H2  PRL d           9.699  25.034  48.588  0.00  0.00     0.086 H 
ATOM     18  H3  PRL d          11.365  21.228  47.451  0.00  0.00     0.090 H 
ATOM     19  H4  PRL d           9.941  17.236  49.522  0.00  0.00     0.090 H 
ATOM     20  H5  PRL d           6.965  17.274  52.642  0.00  0.00     0.086 H 
ATOM     21  H6  PRL d           6.817  19.659  52.538  0.00  0.00     0.085 H 
ATOM     22  H7  PRL d           7.597  21.856  51.452  0.00  0.00     0.086 H 
ATOM     23  H10 PRL d           9.171  15.190  50.529  0.00  0.00     0.156 HD
ATOM     24  H11 PRL d           7.928  15.210  51.809  0.00  0.00     0.156 HD
ENDROOT
BRANCH   3  25
ATOM     25  N15 PRL d          11.300  23.799  46.857  0.00  0.00    -0.399 N 
ATOM     26  H8  PRL d          11.680  24.747  46.986  0.00  0.00     0.156 HD
ATOM     27  H9  PRL d          11.426  23.312  45.958  0.00  0.00     0.156 HD
ENDBRANCH   3  25
TORSDOF 1
ENDMDL
MODEL 6
REMARK VINA RESULT:      -5.5      1.672      6.050
REMARK  1 active torsions:
REMARK  status: ('A' for Active; 'I' for Inactive)
REMARK    1  A    between atoms: C3_3  and  N15_15 
ROOT
ATOM      1  C1  PRL d          10.398  16.962  51.543  0.00  0.00    -0.069 A 
ATOM      2  C2  PRL d           9.805  16.149  52.416  0.00  0.00    -0.057 A 
ATOM      3  C3  PRL d           8.667  16.569  53.203  0.00  0.00     0.028 A 
ATOM      4  C4  PRL d           8.207  17.862  53.037  0.00  0.00    -0.029 A 
ATOM      5  C5  PRL d           8.233  22.128  50.853  0.00  0.00    -0.029 A 
ATOM      6  C6  PRL d           8.722  23.028  49.922  0.00  0.00     0.028 A 
ATOM      7  C7  PRL d           9.855  22.625  49.115  0.00  0.00    -0.057 A 
ATOM      8  C8  PRL d          10.424  21.426  49.250  0.00  0.00    -0.069 A 
ATOM      9  C9  PRL d          10.458  19.194  50.402  0.00  0.00    -0.059 A 
ATOM     10  N10 PRL d           8.310  19.984  51.922  0.00  0.00    -0.247 NA
ATOM     11  C11 PRL d           8.803  18.716  52.134  0.00  0.00     0.070 A 
ATOM     12  C12 PRL d           9.933  20.462  50.213  0.00  0.00    -0.006 A 
ATOM     13  C13 PRL d           9.931  18.311  51.330  0.00  0.00    -0.006 A 
ATOM     14  C14 PRL d           8.806  20.885  51.006  0.00  0.00     0.070 A 
ATOM     15  N16 PRL d           8.155  24.244  49.750  0.00  0.00    -0.399 N 
ATOM     16  H1  PRL d          11.250  16.602  50.978  0.00  0.00     0.085 H 
ATOM     17  H2  PRL d          10.187  15.142  52.540  0.00  0.00     0.086 H 
ATOM     18  H3  PRL d           7.365  18.210  53.626  0.00  0.00     0.090 H 
ATOM     19  H4  PRL d           7.385  22.405  51.470  0.00  0.00     0.090 H 
ATOM     20  H5  PRL d          10.252  23.317  48.381  0.00  0.00     0.086 H 
ATOM     21  H6  PRL d          11.272  21.168  48.626  0.00  0.00     0.085 H 
ATOM     22  H7  PRL d          11.309  18.883  49.806  0.00  0.00     0.086 H 
ATOM     23  H10 PRL d           7.349  24.523  50.328  0.00  0.00     0.156 HD
ATOM     24  H11 PRL d           8.528  24.891  49.040  0.00  0.00     0.156 HD
ENDROOT
BRANCH   3  25
ATOM     25  N15 PRL d           8.034  15.686  54.008  0.00  0.00    -0.399 N 
ATOM     26  H8  PRL d           8.582  15.049  54.605  0.00  0.00     0.156 HD
ATOM     27  H9  PRL d           7.005  15.649  54.025  0.00  0.00     0.156 HD
ENDBRANCH   3  25
TORSDOF 1
ENDMDL
MODEL 7
REMARK VINA RESULT:      -5.2      1.532      2.501
REMARK  1 active torsions:
REMARK  status: ('A' for Active; 'I' for Inactive)
REMARK    1  A    between atoms: C3_3  and  N15_15 
ROOT
ATOM      1  C1  PRL d          10.624  21.638  49.050  0.00  0.00    -0.069 A 
ATOM      2  C2  PRL d          10.117  22.852  48.839  0.00  0.00    -0.057 A 
ATOM      3  C3  PRL d           8.908  23.302  49.491  0.00  0.00     0.028 A 
ATOM      4  C4  PRL d           8.267  22.423  50.344  0.00  0.00    -0.029 A 
ATOM      5  C5  PRL d           7.983  18.280  52.737  0.00  0.00    -0.029 A 
ATOM      6  C6  PRL d           8.460  17.029  53.087  0.00  0.00     0.028 A 
ATOM      7  C7  PRL d           9.676  16.562  52.454  0.00  0.00    -0.057 A 
ATOM      8  C8  PRL d          10.331  17.302  51.557  0.00  0.00    -0.069 A 
ATOM      9  C9  PRL d          10.488  19.448  50.262  0.00  0.00    -0.059 A 
ATOM     10  N10 PRL d           8.178  20.309  51.476  0.00  0.00    -0.247 NA
ATOM     11  C11 PRL d           8.779  21.165  50.580  0.00  0.00     0.070 A 
ATOM     12  C12 PRL d           9.858  18.615  51.172  0.00  0.00    -0.006 A 
ATOM     13  C13 PRL d           9.992  20.703  49.949  0.00  0.00    -0.006 A 
ATOM     14  C14 PRL d           8.645  19.058  51.813  0.00  0.00     0.070 A 
ATOM     15  N16 PRL d           7.828  16.264  54.007  0.00  0.00    -0.399 N 
ATOM     16  H1  PRL d          11.531  21.346  48.535  0.00  0.00     0.085 H 
ATOM     17  H2  PRL d          10.628  23.524  48.158  0.00  0.00     0.086 H 
ATOM     18  H3  PRL d           7.349  22.727  50.835  0.00  0.00     0.090 H 
ATOM     19  H4  PRL d           7.074  18.653  53.196  0.00  0.00     0.090 H 
ATOM     20  H5  PRL d          10.066  15.585  52.716  0.00  0.00     0.086 H 
ATOM     21  H6  PRL d          11.237  16.911  51.108  0.00  0.00     0.085 H 
ATOM     22  H7  PRL d          11.398  19.108  49.780  0.00  0.00     0.086 H 
ATOM     23  H10 PRL d           6.963  16.603  54.452  0.00  0.00     0.156 HD
ATOM     24  H11 PRL d           8.212  15.342  54.262  0.00  0.00     0.156 HD
ENDROOT
BRANCH   3  25
ATOM     25  N15 PRL d           8.478  24.573  49.324  0.00  0.00    -0.399 N 
ATOM     26  H8  PRL d           8.285  25.164  50.146  0.00  0.00     0.156 HD
ATOM     27  H9  PRL d           8.343  24.952  48.376  0.00  0.00     0.156 HD
ENDBRANCH   3  25
TORSDOF 1
ENDMDL
