MODEL 1
REMARK VINA RESULT:      -6.4      0.000      0.000
REMARK  16 active torsions:
REMARK  status: ('A' for Active; 'I' for Inactive)
REMARK    1  A    between atoms: C1_1  and  C2_4 
REMARK    2  A    between atoms: C2_4  and  O2_16 
REMARK    3  A    between atoms: C4_6  and  O4_7 
REMARK    4  A    between atoms: C5_8  and  O5_9 
REMARK    5  A    between atoms: C6_10  and  C7_12 
REMARK    6  A    between atoms: C7_12  and  O7_13 
REMARK    7  A    between atoms: C7_12  and  C8_14 
REMARK    8  A    between atoms: C8_14  and  O8_15 
REMARK    9  A    between atoms: O8_15  and  C2_20 
REMARK   10  A    between atoms: O2_16  and  C9_17 
REMARK   11  A    between atoms: C10_18  and  C11_19 
REMARK   12  A    between atoms: C2_20  and  C1_21 
REMARK   13  A    between atoms: C6_27  and  C7_29 
REMARK   14  A    between atoms: C7_29  and  O7_30 
REMARK   15  A    between atoms: C7_29  and  C8_31 
REMARK   16  A    between atoms: C8_31  and  O8_32 
ROOT
ATOM      1  C7  KDA d          29.604  -5.212   1.942  0.00  0.00     0.083 C 
ATOM      2  H8  KDA d          30.681  -5.269   1.725  0.00  0.00     0.090 H 
ENDROOT
BRANCH   1   3
ATOM      3  C6  KDA d          29.024  -3.936   1.345  0.00  0.00     0.096 C 
ATOM      4  C5  KDA d          28.243  -4.111   0.026  0.00  0.00     0.088 C 
ATOM      5  C4  KDA d          27.800  -2.730  -0.501  0.00  0.00     0.068 C 
ATOM      6  H5  KDA d          27.350  -4.729   0.197  0.00  0.00     0.091 H 
ATOM      7  C3  KDA d          28.934  -1.686  -0.574  0.00  0.00     0.024 C 
ATOM      8  H3  KDA d          27.028  -2.348   0.183  0.00  0.00     0.087 H 
ATOM      9  C2  KDA d          29.781  -1.718   0.720  0.00  0.00     0.262 C 
ATOM     10  H1  KDA d          29.581  -1.912  -1.435  0.00  0.00     0.045 H 
ATOM     11  H2  KDA d          28.497  -0.684  -0.697  0.00  0.00     0.045 H 
ATOM     12  O6  KDA d          30.145  -3.044   1.100  0.00  0.00    -0.335 OA
ATOM     13  H7  KDA d          28.345  -3.486   2.084  0.00  0.00     0.091 H 
BRANCH   4  14
ATOM     14  O5  KDA d          29.138  -4.797  -0.900  0.00  0.00    -0.390 OA
ATOM     15  H6  KDA d          28.625  -5.316  -1.508  0.00  0.00     0.210 HD
ENDBRANCH   4  14
BRANCH   5  16
ATOM     16  O4  KDA d          27.240  -2.844  -1.810  0.00  0.00    -0.393 OA
ATOM     17  H4  KDA d          27.137  -1.977  -2.185  0.00  0.00     0.210 HD
ENDBRANCH   5  16
BRANCH   9  18
ATOM     18  C1  KDA d          31.036  -0.870   0.425  0.00  0.00     0.239 C 
ATOM     19  O1A KDA d          30.870   0.290  -0.020  0.00  0.00    -0.644 OA
ATOM     20  O1B KDA d          32.141  -1.424   0.653  0.00  0.00    -0.644 OA
ENDBRANCH   9  18
BRANCH   9  21
ATOM     21  O2  KDA d          29.006  -1.095   1.797  0.00  0.00    -0.317 OA
BRANCH  21  22
ATOM     22  C9  KDA d          29.867  -0.892   2.855  0.00  0.00     0.013 C 
ATOM     23  C10 KDA d          29.684   0.054   3.858  0.00  0.00    -0.086 C 
ATOM     24  H13 KDA d          30.449   0.162   4.625  0.00  0.00     0.079 H 
ATOM     25  H12 KDA d          30.756  -1.518   2.909  0.00  0.00     0.122 H 
BRANCH  23  26
ATOM     26  C11 KDA d          28.569   0.856   3.912  0.00  0.00    -0.058 C 
ATOM     27  H14 KDA d          27.918   0.637   3.053  0.00  0.00     0.032 H 
ATOM     28  H15 KDA d          28.875   1.912   3.881  0.00  0.00     0.032 H 
ATOM     29  H16 KDA d          28.022   0.661   4.846  0.00  0.00     0.032 H 
ENDBRANCH  23  26
ENDBRANCH  21  22
ENDBRANCH   9  21
ENDBRANCH   1   3
BRANCH   1  30
ATOM     30  O7  KDA d          28.923  -6.335   1.370  0.00  0.00    -0.391 OA
ATOM     31  H9  KDA d          29.531  -7.059   1.275  0.00  0.00     0.210 HD
ENDBRANCH   1  30
BRANCH   1  32
ATOM     32  C8  KDA d          29.377  -5.236   3.455  0.00  0.00     0.050 C 
ATOM     33  H10 KDA d          30.325  -5.377   3.995  0.00  0.00     0.078 H 
ATOM     34  H11 KDA d          28.673  -6.032   3.737  0.00  0.00     0.078 H 
BRANCH  32  35
ATOM     35  O8  KDA d          28.811  -3.914   3.725  0.00  0.00    -0.341 OA
BRANCH  35  36
ATOM     36  C2  KDA d          27.504  -3.937   4.393  0.00  0.00     0.276 C 
ATOM     37  C3  KDA d          26.688  -2.906   3.924  0.00  0.00    -0.036 C 
ATOM     38  C4  KDA d          26.295  -1.781   4.683  0.00  0.00    -0.099 C 
ATOM     39  H17 KDA d          26.328  -2.974   2.898  0.00  0.00     0.085 H 
ATOM     40  C5  KDA d          26.709  -1.581   6.006  0.00  0.00    -0.023 C 
ATOM     41  H18 KDA d          25.644  -1.040   4.221  0.00  0.00     0.076 H 
ATOM     42  C6  KDA d          27.873  -2.500   6.374  0.00  0.00     0.072 C 
ATOM     43  H19 KDA d          25.865  -1.787   6.680  0.00  0.00     0.042 H 
ATOM     44  H20 KDA d          27.028  -0.535   6.126  0.00  0.00     0.042 H 
ATOM     45  O6  KDA d          27.673  -3.830   5.828  0.00  0.00    -0.335 OA
ATOM     46  H21 KDA d          28.793  -2.051   5.971  0.00  0.00     0.088 H 
BRANCH  36  47
ATOM     47  C1  KDA d          26.819  -5.277   4.099  0.00  0.00     0.243 C 
ATOM     48  O1B KDA d          26.272  -5.389   3.008  0.00  0.00    -0.644 OA
ATOM     49  O1A KDA d          26.872  -6.153   4.984  0.00  0.00    -0.644 OA
ENDBRANCH  36  47
BRANCH  42  50
ATOM     50  C7  KDA d          28.069  -2.805   7.872  0.00  0.00     0.081 C 
ATOM     51  H22 KDA d          27.946  -3.888   8.020  0.00  0.00     0.090 H 
BRANCH  50  52
ATOM     52  O7  KDA d          27.071  -2.119   8.612  0.00  0.00    -0.391 OA
ATOM     53  H23 KDA d          26.498  -2.751   9.031  0.00  0.00     0.210 HD
ENDBRANCH  50  52
BRANCH  50  54
ATOM     54  C8  KDA d          29.439  -2.406   8.401  0.00  0.00     0.043 C 
ATOM     55  H24 KDA d          30.198  -2.628   7.636  0.00  0.00     0.078 H 
ATOM     56  H25 KDA d          29.656  -2.985   9.311  0.00  0.00     0.078 H 
BRANCH  54  57
ATOM     57  O8  KDA d          29.484  -1.004   8.714  0.00  0.00    -0.398 OA
ATOM     58  H26 KDA d          30.280  -0.627   8.358  0.00  0.00     0.209 HD
ENDBRANCH  54  57
ENDBRANCH  50  54
ENDBRANCH  42  50
ENDBRANCH  35  36
ENDBRANCH  32  35
ENDBRANCH   1  32
TORSDOF 16
ENDMDL
MODEL 2
REMARK VINA RESULT:      -5.9      1.802      4.435
REMARK  16 active torsions:
REMARK  status: ('A' for Active; 'I' for Inactive)
REMARK    1  A    between atoms: C1_1  and  C2_4 
REMARK    2  A    between atoms: C2_4  and  O2_16 
REMARK    3  A    between atoms: C4_6  and  O4_7 
REMARK    4  A    between atoms: C5_8  and  O5_9 
REMARK    5  A    between atoms: C6_10  and  C7_12 
REMARK    6  A    between atoms: C7_12  and  O7_13 
REMARK    7  A    between atoms: C7_12  and  C8_14 
REMARK    8  A    between atoms: C8_14  and  O8_15 
REMARK    9  A    between atoms: O8_15  and  C2_20 
REMARK   10  A    between atoms: O2_16  and  C9_17 
REMARK   11  A    between atoms: C10_18  and  C11_19 
REMARK   12  A    between atoms: C2_20  and  C1_21 
REMARK   13  A    between atoms: C6_27  and  C7_29 
REMARK   14  A    between atoms: C7_29  and  O7_30 
REMARK   15  A    between atoms: C7_29  and  C8_31 
REMARK   16  A    between atoms: C8_31  and  O8_32 
ROOT
ATOM      1  C7  KDA d          30.391  -0.709   1.343  0.00  0.00     0.083 C 
ATOM      2  H8  KDA d          29.649   0.099   1.254  0.00  0.00     0.090 H 
ENDROOT
BRANCH   1   3
ATOM      3  C6  KDA d          29.868  -1.966   0.658  0.00  0.00     0.096 C 
ATOM      4  C5  KDA d          28.796  -1.738  -0.428  0.00  0.00     0.088 C 
ATOM      5  C4  KDA d          28.301  -3.099  -0.960  0.00  0.00     0.068 C 
ATOM      6  H5  KDA d          29.223  -1.164  -1.263  0.00  0.00     0.091 H 
ATOM      7  C3  KDA d          27.880  -4.095   0.141  0.00  0.00     0.024 C 
ATOM      8  H3  KDA d          29.126  -3.550  -1.531  0.00  0.00     0.087 H 
ATOM      9  C2  KDA d          28.926  -4.112   1.280  0.00  0.00     0.262 C 
ATOM     10  H1  KDA d          26.905  -3.793   0.549  0.00  0.00     0.045 H 
ATOM     11  H2  KDA d          27.800  -5.103  -0.293  0.00  0.00     0.045 H 
ATOM     12  O6  KDA d          29.295  -2.800   1.702  0.00  0.00    -0.335 OA
ATOM     13  H7  KDA d          30.719  -2.484   0.192  0.00  0.00     0.091 H 
BRANCH   4  14
ATOM     14  O5  KDA d          27.728  -0.965   0.196  0.00  0.00    -0.390 OA
ATOM     15  H6  KDA d          27.394  -0.329  -0.425  0.00  0.00     0.210 HD
ENDBRANCH   4  14
BRANCH   5  16
ATOM     16  O4  KDA d          27.181  -2.925  -1.829  0.00  0.00    -0.393 OA
ATOM     17  H4  KDA d          26.516  -2.411  -1.387  0.00  0.00     0.210 HD
ENDBRANCH   5  16
BRANCH   9  18
ATOM     18  C1  KDA d          28.274  -4.895   2.440  0.00  0.00     0.239 C 
ATOM     19  O1A KDA d          28.055  -4.284   3.512  0.00  0.00    -0.644 OA
ATOM     20  O1B KDA d          28.017  -6.104   2.211  0.00  0.00    -0.644 OA
ENDBRANCH   9  18
BRANCH   9  21
ATOM     21  O2  KDA d          30.115  -4.828   0.809  0.00  0.00    -0.317 OA
BRANCH  21  22
ATOM     22  C9  KDA d          31.063  -4.749   1.807  0.00  0.00     0.013 C 
ATOM     23  C10 KDA d          32.417  -5.015   1.640  0.00  0.00    -0.086 C 
ATOM     24  H13 KDA d          33.075  -4.966   2.507  0.00  0.00     0.079 H 
ATOM     25  H12 KDA d          30.726  -4.456   2.800  0.00  0.00     0.122 H 
BRANCH  23  26
ATOM     26  C11 KDA d          32.953  -5.340   0.416  0.00  0.00    -0.058 C 
ATOM     27  H14 KDA d          33.154  -6.421   0.379  0.00  0.00     0.032 H 
ATOM     28  H15 KDA d          33.893  -4.787   0.269  0.00  0.00     0.032 H 
ATOM     29  H16 KDA d          32.242  -5.071  -0.379  0.00  0.00     0.032 H 
ENDBRANCH  23  26
ENDBRANCH  21  22
ENDBRANCH   9  21
ENDBRANCH   1   3
BRANCH   1  30
ATOM     30  O7  KDA d          31.619  -0.323   0.714  0.00  0.00    -0.391 OA
ATOM     31  H9  KDA d          31.565   0.587   0.446  0.00  0.00     0.210 HD
ENDBRANCH   1  30
BRANCH   1  32
ATOM     32  C8  KDA d          30.677  -0.993   2.818  0.00  0.00     0.050 C 
ATOM     33  H10 KDA d          31.758  -1.068   3.004  0.00  0.00     0.078 H 
ATOM     34  H11 KDA d          30.184  -1.920   3.145  0.00  0.00     0.078 H 
BRANCH  32  35
ATOM     35  O8  KDA d          30.106   0.172   3.496  0.00  0.00    -0.341 OA
BRANCH  35  36
ATOM     36  C2  KDA d          28.974  -0.132   4.379  0.00  0.00     0.276 C 
ATOM     37  C3  KDA d          28.834   0.847   5.364  0.00  0.00    -0.036 C 
ATOM     38  C4  KDA d          29.083   0.648   6.740  0.00  0.00    -0.099 C 
ATOM     39  H17 KDA d          28.510   1.838   5.048  0.00  0.00     0.085 H 
ATOM     40  C5  KDA d          29.518  -0.579   7.258  0.00  0.00    -0.023 C 
ATOM     41  H18 KDA d          28.930   1.480   7.425  0.00  0.00     0.076 H 
ATOM     42  C6  KDA d          30.014  -1.510   6.153  0.00  0.00     0.072 C 
ATOM     43  H19 KDA d          28.681  -1.062   7.784  0.00  0.00     0.042 H 
ATOM     44  H20 KDA d          30.339  -0.396   7.967  0.00  0.00     0.042 H 
ATOM     45  O6  KDA d          29.149  -1.435   4.988  0.00  0.00    -0.335 OA
ATOM     46  H21 KDA d          31.038  -1.205   5.894  0.00  0.00     0.088 H 
BRANCH  36  47
ATOM     47  C1  KDA d          27.690  -0.174   3.543  0.00  0.00     0.243 C 
ATOM     48  O1B KDA d          26.941  -1.127   3.729  0.00  0.00    -0.644 OA
ATOM     49  O1A KDA d          27.497   0.760   2.740  0.00  0.00    -0.644 OA
ENDBRANCH  36  47
BRANCH  42  50
ATOM     50  C7  KDA d          29.994  -3.020   6.458  0.00  0.00     0.081 C 
ATOM     51  H22 KDA d          30.788  -3.233   7.189  0.00  0.00     0.090 H 
BRANCH  50  52
ATOM     52  O7  KDA d          30.262  -3.733   5.261  0.00  0.00    -0.391 OA
ATOM     53  H23 KDA d          29.494  -3.709   4.701  0.00  0.00     0.210 HD
ENDBRANCH  50  52
BRANCH  50  54
ATOM     54  C8  KDA d          28.674  -3.506   7.039  0.00  0.00     0.043 C 
ATOM     55  H24 KDA d          28.439  -2.920   7.939  0.00  0.00     0.078 H 
ATOM     56  H25 KDA d          28.769  -4.569   7.308  0.00  0.00     0.078 H 
BRANCH  54  57
ATOM     57  O8  KDA d          27.605  -3.356   6.090  0.00  0.00    -0.398 OA
ATOM     58  H26 KDA d          27.025  -2.661   6.375  0.00  0.00     0.209 HD
ENDBRANCH  54  57
ENDBRANCH  50  54
ENDBRANCH  42  50
ENDBRANCH  35  36
ENDBRANCH  32  35
ENDBRANCH   1  32
TORSDOF 16
ENDMDL
MODEL 3
REMARK VINA RESULT:      -5.9      1.652      2.063
REMARK  16 active torsions:
REMARK  status: ('A' for Active; 'I' for Inactive)
REMARK    1  A    between atoms: C1_1  and  C2_4 
REMARK    2  A    between atoms: C2_4  and  O2_16 
REMARK    3  A    between atoms: C4_6  and  O4_7 
REMARK    4  A    between atoms: C5_8  and  O5_9 
REMARK    5  A    between atoms: C6_10  and  C7_12 
REMARK    6  A    between atoms: C7_12  and  O7_13 
REMARK    7  A    between atoms: C7_12  and  C8_14 
REMARK    8  A    between atoms: C8_14  and  O8_15 
REMARK    9  A    between atoms: O8_15  and  C2_20 
REMARK   10  A    between atoms: O2_16  and  C9_17 
REMARK   11  A    between atoms: C10_18  and  C11_19 
REMARK   12  A    between atoms: C2_20  and  C1_21 
REMARK   13  A    between atoms: C6_27  and  C7_29 
REMARK   14  A    between atoms: C7_29  and  O7_30 
REMARK   15  A    between atoms: C7_29  and  C8_31 
REMARK   16  A    between atoms: C8_31  and  O8_32 
ROOT
ATOM      1  C7  KDA d          29.927  -5.314   1.639  0.00  0.00     0.083 C 
ATOM      2  H8  KDA d          30.891  -5.446   1.126  0.00  0.00     0.090 H 
ENDROOT
BRANCH   1   3
ATOM      3  C6  KDA d          29.253  -4.038   1.149  0.00  0.00     0.096 C 
ATOM      4  C5  KDA d          28.404  -4.181  -0.131  0.00  0.00     0.088 C 
ATOM      5  C4  KDA d          27.865  -2.798  -0.553  0.00  0.00     0.068 C 
ATOM      6  H5  KDA d          27.553  -4.852   0.055  0.00  0.00     0.091 H 
ATOM      7  C3  KDA d          28.942  -1.696  -0.631  0.00  0.00     0.024 C 
ATOM      8  H3  KDA d          27.118  -2.493   0.195  0.00  0.00     0.087 H 
ATOM      9  C2  KDA d          29.865  -1.755   0.609  0.00  0.00     0.262 C 
ATOM     10  H1  KDA d          29.546  -1.842  -1.539  0.00  0.00     0.045 H 
ATOM     11  H2  KDA d          28.452  -0.712  -0.672  0.00  0.00     0.045 H 
ATOM     12  O6  KDA d          30.314  -3.079   0.892  0.00  0.00    -0.335 OA
ATOM     13  H7  KDA d          28.599  -3.664   1.951  0.00  0.00     0.091 H 
BRANCH   4  14
ATOM     14  O5  KDA d          29.273  -4.770  -1.144  0.00  0.00    -0.390 OA
ATOM     15  H6  KDA d          29.215  -5.717  -1.098  0.00  0.00     0.210 HD
ENDBRANCH   4  14
BRANCH   5  16
ATOM     16  O4  KDA d          27.234  -2.869  -1.832  0.00  0.00    -0.393 OA
ATOM     17  H4  KDA d          26.387  -3.291  -1.742  0.00  0.00     0.210 HD
ENDBRANCH   5  16
BRANCH   9  18
ATOM     18  C1  KDA d          31.059  -0.829   0.291  0.00  0.00     0.239 C 
ATOM     19  O1A KDA d          30.848   0.405   0.240  0.00  0.00    -0.644 OA
ATOM     20  O1B KDA d          32.163  -1.401   0.102  0.00  0.00    -0.644 OA
ENDBRANCH   9  18
BRANCH   9  21
ATOM     21  O2  KDA d          29.128  -1.230   1.762  0.00  0.00    -0.317 OA
BRANCH  21  22
ATOM     22  C9  KDA d          30.014  -1.161   2.817  0.00  0.00     0.013 C 
ATOM     23  C10 KDA d          29.896  -0.294   3.897  0.00  0.00    -0.086 C 
ATOM     24  H13 KDA d          30.677  -0.290   4.656  0.00  0.00     0.079 H 
ATOM     25  H12 KDA d          30.869  -1.835   2.802  0.00  0.00     0.122 H 
BRANCH  23  26
ATOM     26  C11 KDA d          28.826   0.559   4.038  0.00  0.00    -0.058 C 
ATOM     27  H14 KDA d          29.162   1.595   3.890  0.00  0.00     0.032 H 
ATOM     28  H15 KDA d          28.403   0.451   5.048  0.00  0.00     0.032 H 
ATOM     29  H16 KDA d          28.059   0.311   3.291  0.00  0.00     0.032 H 
ENDBRANCH  23  26
ENDBRANCH  21  22
ENDBRANCH   9  21
ENDBRANCH   1   3
BRANCH   1  30
ATOM     30  O7  KDA d          29.063  -6.423   1.362  0.00  0.00    -0.391 OA
ATOM     31  H9  KDA d          29.588  -7.187   1.151  0.00  0.00     0.210 HD
ENDBRANCH   1  30
BRANCH   1  32
ATOM     32  C8  KDA d          30.147  -5.246   3.151  0.00  0.00     0.050 C 
ATOM     33  H10 KDA d          31.113  -4.776   3.389  0.00  0.00     0.078 H 
ATOM     34  H11 KDA d          30.107  -6.248   3.602  0.00  0.00     0.078 H 
BRANCH  32  35
ATOM     35  O8  KDA d          29.033  -4.417   3.611  0.00  0.00    -0.341 OA
BRANCH  35  36
ATOM     36  C2  KDA d          28.692  -4.587   5.028  0.00  0.00     0.276 C 
ATOM     37  C3  KDA d          27.846  -3.565   5.463  0.00  0.00    -0.036 C 
ATOM     38  C4  KDA d          28.210  -2.549   6.374  0.00  0.00    -0.099 C 
ATOM     39  H17 KDA d          26.829  -3.551   5.070  0.00  0.00     0.085 H 
ATOM     40  C5  KDA d          29.492  -2.459   6.931  0.00  0.00    -0.023 C 
ATOM     41  H18 KDA d          27.465  -1.806   6.654  0.00  0.00     0.076 H 
ATOM     42  C6  KDA d          30.493  -3.339   6.180  0.00  0.00     0.072 C 
ATOM     43  H19 KDA d          29.450  -2.784   7.981  0.00  0.00     0.042 H 
ATOM     44  H20 KDA d          29.830  -1.414   6.883  0.00  0.00     0.042 H 
ATOM     45  O6  KDA d          29.896  -4.617   5.833  0.00  0.00    -0.335 OA
ATOM     46  H21 KDA d          30.799  -2.796   5.275  0.00  0.00     0.088 H 
BRANCH  36  47
ATOM     47  C1  KDA d          27.974  -5.930   5.209  0.00  0.00     0.243 C 
ATOM     48  O1B KDA d          26.868  -6.037   4.692  0.00  0.00    -0.644 OA
ATOM     49  O1A KDA d          28.565  -6.812   5.862  0.00  0.00    -0.644 OA
ENDBRANCH  36  47
BRANCH  42  50
ATOM     50  C7  KDA d          31.746  -3.781   6.959  0.00  0.00     0.081 C 
ATOM     51  H22 KDA d          32.019  -2.974   7.656  0.00  0.00     0.090 H 
BRANCH  50  52
ATOM     52  O7  KDA d          32.809  -3.980   6.040  0.00  0.00    -0.391 OA
ATOM     53  H23 KDA d          32.614  -3.525   5.228  0.00  0.00     0.210 HD
ENDBRANCH  50  52
BRANCH  50  54
ATOM     54  C8  KDA d          31.544  -5.056   7.765  0.00  0.00     0.043 C 
ATOM     55  H24 KDA d          32.497  -5.603   7.817  0.00  0.00     0.078 H 
ATOM     56  H25 KDA d          30.789  -5.681   7.267  0.00  0.00     0.078 H 
BRANCH  54  57
ATOM     57  O8  KDA d          31.100  -4.758   9.099  0.00  0.00    -0.398 OA
ATOM     58  H26 KDA d          30.566  -3.972   9.086  0.00  0.00     0.209 HD
ENDBRANCH  54  57
ENDBRANCH  50  54
ENDBRANCH  42  50
ENDBRANCH  35  36
ENDBRANCH  32  35
ENDBRANCH   1  32
TORSDOF 16
ENDMDL
MODEL 4
REMARK VINA RESULT:      -5.8      2.235      6.007
REMARK  16 active torsions:
REMARK  status: ('A' for Active; 'I' for Inactive)
REMARK    1  A    between atoms: C1_1  and  C2_4 
REMARK    2  A    between atoms: C2_4  and  O2_16 
REMARK    3  A    between atoms: C4_6  and  O4_7 
REMARK    4  A    between atoms: C5_8  and  O5_9 
REMARK    5  A    between atoms: C6_10  and  C7_12 
REMARK    6  A    between atoms: C7_12  and  O7_13 
REMARK    7  A    between atoms: C7_12  and  C8_14 
REMARK    8  A    between atoms: C8_14  and  O8_15 
REMARK    9  A    between atoms: O8_15  and  C2_20 
REMARK   10  A    between atoms: O2_16  and  C9_17 
REMARK   11  A    between atoms: C10_18  and  C11_19 
REMARK   12  A    between atoms: C2_20  and  C1_21 
REMARK   13  A    between atoms: C6_27  and  C7_29 
REMARK   14  A    between atoms: C7_29  and  O7_30 
REMARK   15  A    between atoms: C7_29  and  C8_31 
REMARK   16  A    between atoms: C8_31  and  O8_32 
ROOT
ATOM      1  C7  KDA d          31.998  -0.549   2.289  0.00  0.00     0.083 C 
ATOM      2  H8  KDA d          32.746  -1.355   2.262  0.00  0.00     0.090 H 
ENDROOT
BRANCH   1   3
ATOM      3  C6  KDA d          31.094  -0.724   3.503  0.00  0.00     0.096 C 
ATOM      4  C5  KDA d          31.089  -2.132   4.133  0.00  0.00     0.088 C 
ATOM      5  C4  KDA d          30.064  -2.180   5.287  0.00  0.00     0.068 C 
ATOM      6  H5  KDA d          32.085  -2.369   4.534  0.00  0.00     0.091 H 
ATOM      7  C3  KDA d          28.663  -1.653   4.912  0.00  0.00     0.024 C 
ATOM      8  H3  KDA d          30.457  -1.555   6.102  0.00  0.00     0.087 H 
ATOM      9  C2  KDA d          28.780  -0.332   4.114  0.00  0.00     0.262 C 
ATOM     10  H1  KDA d          28.146  -2.403   4.296  0.00  0.00     0.045 H 
ATOM     11  H2  KDA d          28.086  -1.472   5.831  0.00  0.00     0.045 H 
ATOM     12  O6  KDA d          29.743  -0.413   3.065  0.00  0.00    -0.335 OA
ATOM     13  H7  KDA d          31.410  -0.007   4.275  0.00  0.00     0.091 H 
BRANCH   4  14
ATOM     14  O5  KDA d          30.762  -3.068   3.063  0.00  0.00    -0.390 OA
ATOM     15  H6  KDA d          29.822  -3.201   3.036  0.00  0.00     0.210 HD
ENDBRANCH   4  14
BRANCH   5  16
ATOM     16  O4  KDA d          29.903  -3.516   5.766  0.00  0.00    -0.393 OA
ATOM     17  H4  KDA d          29.358  -3.508   6.544  0.00  0.00     0.210 HD
ENDBRANCH   5  16
BRANCH   9  18
ATOM     18  C1  KDA d          27.372  -0.058   3.544  0.00  0.00     0.239 C 
ATOM     19  O1A KDA d          27.178   1.032   2.956  0.00  0.00    -0.644 OA
ATOM     20  O1B KDA d          26.519  -0.965   3.723  0.00  0.00    -0.644 OA
ENDBRANCH   9  18
BRANCH   9  21
ATOM     21  O2  KDA d          29.153   0.739   5.042  0.00  0.00    -0.317 OA
BRANCH  21  22
ATOM     22  C9  KDA d          28.298   0.660   6.122  0.00  0.00     0.013 C 
ATOM     23  C10 KDA d          28.617   1.052   7.417  0.00  0.00    -0.086 C 
ATOM     24  H13 KDA d          27.882   0.906   8.208  0.00  0.00     0.079 H 
ATOM     25  H12 KDA d          27.300   0.262   5.947  0.00  0.00     0.122 H 
BRANCH  23  26
ATOM     26  C11 KDA d          29.830   1.617   7.733  0.00  0.00    -0.058 C 
ATOM     27  H14 KDA d          29.827   1.923   8.790  0.00  0.00     0.032 H 
ATOM     28  H15 KDA d          30.000   2.498   7.097  0.00  0.00     0.032 H 
ATOM     29  H16 KDA d          30.632   0.883   7.565  0.00  0.00     0.032 H 
ENDBRANCH  23  26
ENDBRANCH  21  22
ENDBRANCH   9  21
ENDBRANCH   1   3
BRANCH   1  30
ATOM     30  O7  KDA d          32.646   0.725   2.381  0.00  0.00    -0.391 OA
ATOM     31  H9  KDA d          33.076   0.800   3.225  0.00  0.00     0.210 HD
ENDBRANCH   1  30
BRANCH   1  32
ATOM     32  C8  KDA d          31.165  -0.571   1.006  0.00  0.00     0.050 C 
ATOM     33  H10 KDA d          31.572   0.127   0.259  0.00  0.00     0.078 H 
ATOM     34  H11 KDA d          30.116  -0.316   1.211  0.00  0.00     0.078 H 
BRANCH  32  35
ATOM     35  O8  KDA d          31.291  -1.957   0.553  0.00  0.00    -0.341 OA
BRANCH  35  36
ATOM     36  C2  KDA d          30.286  -2.368  -0.434  0.00  0.00     0.276 C 
ATOM     37  C3  KDA d          29.620  -1.259  -0.958  0.00  0.00    -0.036 C 
ATOM     38  C4  KDA d          28.264  -0.945  -0.717  0.00  0.00    -0.099 C 
ATOM     39  H17 KDA d          30.188  -0.587  -1.601  0.00  0.00     0.085 H 
ATOM     40  C5  KDA d          27.442  -1.728   0.103  0.00  0.00    -0.023 C 
ATOM     41  H18 KDA d          27.841  -0.059  -1.188  0.00  0.00     0.076 H 
ATOM     42  C6  KDA d          28.261  -2.704   0.948  0.00  0.00     0.072 C 
ATOM     43  H19 KDA d          26.747  -2.299  -0.528  0.00  0.00     0.042 H 
ATOM     44  H20 KDA d          26.872  -1.067   0.773  0.00  0.00     0.042 H 
ATOM     45  O6  KDA d          29.339  -3.284   0.167  0.00  0.00    -0.335 OA
ATOM     46  H21 KDA d          28.662  -2.146   1.807  0.00  0.00     0.088 H 
BRANCH  36  47
ATOM     47  C1  KDA d          30.989  -3.105  -1.580  0.00  0.00     0.243 C 
ATOM     48  O1B KDA d          32.117  -2.723  -1.873  0.00  0.00    -0.644 OA
ATOM     49  O1A KDA d          30.369  -4.038  -2.127  0.00  0.00    -0.644 OA
ENDBRANCH  36  47
BRANCH  42  50
ATOM     50  C7  KDA d          27.531  -3.963   1.454  0.00  0.00     0.081 C 
ATOM     51  H22 KDA d          26.545  -4.006   0.968  0.00  0.00     0.090 H 
BRANCH  50  52
ATOM     52  O7  KDA d          27.351  -3.854   2.858  0.00  0.00    -0.391 OA
ATOM     53  H23 KDA d          27.339  -2.937   3.105  0.00  0.00     0.210 HD
ENDBRANCH  50  52
BRANCH  50  54
ATOM     54  C8  KDA d          28.267  -5.259   1.148  0.00  0.00     0.043 C 
ATOM     55  H24 KDA d          27.817  -6.075   1.732  0.00  0.00     0.078 H 
ATOM     56  H25 KDA d          29.325  -5.147   1.430  0.00  0.00     0.078 H 
BRANCH  54  57
ATOM     57  O8  KDA d          28.185  -5.581  -0.250  0.00  0.00    -0.398 OA
ATOM     58  H26 KDA d          27.279  -5.747  -0.483  0.00  0.00     0.209 HD
ENDBRANCH  54  57
ENDBRANCH  50  54
ENDBRANCH  42  50
ENDBRANCH  35  36
ENDBRANCH  32  35
ENDBRANCH   1  32
TORSDOF 16
ENDMDL
MODEL 5
REMARK VINA RESULT:      -5.6      1.928      5.925
REMARK  16 active torsions:
REMARK  status: ('A' for Active; 'I' for Inactive)
REMARK    1  A    between atoms: C1_1  and  C2_4 
REMARK    2  A    between atoms: C2_4  and  O2_16 
REMARK    3  A    between atoms: C4_6  and  O4_7 
REMARK    4  A    between atoms: C5_8  and  O5_9 
REMARK    5  A    between atoms: C6_10  and  C7_12 
REMARK    6  A    between atoms: C7_12  and  O7_13 
REMARK    7  A    between atoms: C7_12  and  C8_14 
REMARK    8  A    between atoms: C8_14  and  O8_15 
REMARK    9  A    between atoms: O8_15  and  C2_20 
REMARK   10  A    between atoms: O2_16  and  C9_17 
REMARK   11  A    between atoms: C10_18  and  C11_19 
REMARK   12  A    between atoms: C2_20  and  C1_21 
REMARK   13  A    between atoms: C6_27  and  C7_29 
REMARK   14  A    between atoms: C7_29  and  O7_30 
REMARK   15  A    between atoms: C7_29  and  C8_31 
REMARK   16  A    between atoms: C8_31  and  O8_32 
ROOT
ATOM      1  C7  KDA d          28.819  -5.807   2.480  0.00  0.00     0.083 C 
ATOM      2  H8  KDA d          27.757  -6.027   2.290  0.00  0.00     0.090 H 
ENDROOT
BRANCH   1   3
ATOM      3  C6  KDA d          28.942  -4.815   3.630  0.00  0.00     0.096 C 
ATOM      4  C5  KDA d          28.835  -5.418   5.047  0.00  0.00     0.088 C 
ATOM      5  C4  KDA d          28.885  -4.288   6.096  0.00  0.00     0.068 C 
ATOM      6  H5  KDA d          29.673  -6.107   5.226  0.00  0.00     0.091 H 
ATOM      7  C3  KDA d          27.900  -3.131   5.828  0.00  0.00     0.024 C 
ATOM      8  H3  KDA d          29.905  -3.877   6.089  0.00  0.00     0.087 H 
ATOM      9  C2  KDA d          27.941  -2.722   4.337  0.00  0.00     0.262 C 
ATOM     10  H1  KDA d          26.881  -3.454   6.087  0.00  0.00     0.045 H 
ATOM     11  H2  KDA d          28.179  -2.266   6.449  0.00  0.00     0.045 H 
ATOM     12  O6  KDA d          27.871  -3.847   3.462  0.00  0.00    -0.335 OA
ATOM     13  H7  KDA d          29.917  -4.311   3.549  0.00  0.00     0.091 H 
BRANCH   4  14
ATOM     14  O5  KDA d          27.580  -6.160   5.090  0.00  0.00    -0.390 OA
ATOM     15  H6  KDA d          27.759  -7.089   5.004  0.00  0.00     0.210 HD
ENDBRANCH   4  14
BRANCH   5  16
ATOM     16  O4  KDA d          28.602  -4.796   7.401  0.00  0.00    -0.393 OA
ATOM     17  H4  KDA d          27.822  -4.374   7.741  0.00  0.00     0.210 HD
ENDBRANCH   5  16
BRANCH   9  18
ATOM     18  C1  KDA d          26.732  -1.787   4.122  0.00  0.00     0.239 C 
ATOM     19  O1A KDA d          25.985  -1.558   5.102  0.00  0.00    -0.644 OA
ATOM     20  O1B KDA d          26.591  -1.328   2.960  0.00  0.00    -0.644 OA
ENDBRANCH   9  18
BRANCH   9  21
ATOM     21  O2  KDA d          29.184  -1.986   4.091  0.00  0.00    -0.317 OA
BRANCH  21  22
ATOM     22  C9  KDA d          29.192  -0.902   4.944  0.00  0.00     0.013 C 
ATOM     23  C10 KDA d          30.314  -0.426   5.614  0.00  0.00    -0.086 C 
ATOM     24  H13 KDA d          30.201   0.413   6.300  0.00  0.00     0.079 H 
ATOM     25  H12 KDA d          28.250  -0.380   5.105  0.00  0.00     0.122 H 
BRANCH  23  26
ATOM     26  C11 KDA d          31.560  -0.979   5.438  0.00  0.00    -0.058 C 
ATOM     27  H14 KDA d          32.052  -0.506   4.575  0.00  0.00     0.032 H 
ATOM     28  H15 KDA d          31.460  -2.059   5.256  0.00  0.00     0.032 H 
ATOM     29  H16 KDA d          32.166  -0.814   6.341  0.00  0.00     0.032 H 
ENDBRANCH  23  26
ENDBRANCH  21  22
ENDBRANCH   9  21
ENDBRANCH   1   3
BRANCH   1  30
ATOM     30  O7  KDA d          29.517  -7.007   2.835  0.00  0.00    -0.391 OA
ATOM     31  H9  KDA d          30.295  -6.785   3.331  0.00  0.00     0.210 HD
ENDBRANCH   1  30
BRANCH   1  32
ATOM     32  C8  KDA d          29.465  -5.233   1.218  0.00  0.00     0.050 C 
ATOM     33  H10 KDA d          28.831  -4.455   0.769  0.00  0.00     0.078 H 
ATOM     34  H11 KDA d          29.656  -6.023   0.478  0.00  0.00     0.078 H 
BRANCH  32  35
ATOM     35  O8  KDA d          30.718  -4.666   1.716  0.00  0.00    -0.341 OA
BRANCH  35  36
ATOM     36  C2  KDA d          31.350  -3.698   0.813  0.00  0.00     0.276 C 
ATOM     37  C3  KDA d          32.301  -2.932   1.490  0.00  0.00    -0.036 C 
ATOM     38  C4  KDA d          32.171  -1.555   1.775  0.00  0.00    -0.099 C 
ATOM     39  H17 KDA d          33.209  -3.434   1.823  0.00  0.00     0.085 H 
ATOM     40  C5  KDA d          31.042  -0.811   1.408  0.00  0.00    -0.023 C 
ATOM     41  H18 KDA d          32.981  -1.051   2.300  0.00  0.00     0.076 H 
ATOM     42  C6  KDA d          29.878  -1.718   1.011  0.00  0.00     0.072 C 
ATOM     43  H19 KDA d          31.300  -0.166   0.555  0.00  0.00     0.042 H 
ATOM     44  H20 KDA d          30.734  -0.187   2.260  0.00  0.00     0.042 H 
ATOM     45  O6  KDA d          30.347  -2.840   0.217  0.00  0.00    -0.335 OA
ATOM     46  H21 KDA d          29.401  -2.072   1.936  0.00  0.00     0.088 H 
BRANCH  36  47
ATOM     47  C1  KDA d          32.050  -4.459  -0.320  0.00  0.00     0.243 C 
ATOM     48  O1B KDA d          31.971  -3.972  -1.442  0.00  0.00    -0.644 OA
ATOM     49  O1A KDA d          32.648  -5.511  -0.019  0.00  0.00    -0.644 OA
ENDBRANCH  36  47
BRANCH  42  50
ATOM     50  C7  KDA d          28.808  -1.107   0.086  0.00  0.00     0.081 C 
ATOM     51  H22 KDA d          29.322  -0.594  -0.741  0.00  0.00     0.090 H 
BRANCH  50  52
ATOM     52  O7  KDA d          28.053  -0.159   0.823  0.00  0.00    -0.391 OA
ATOM     53  H23 KDA d          27.128  -0.357   0.738  0.00  0.00     0.210 HD
ENDBRANCH  50  52
BRANCH  50  54
ATOM     54  C8  KDA d          27.861  -2.137  -0.513  0.00  0.00     0.043 C 
ATOM     55  H24 KDA d          28.443  -2.867  -1.094  0.00  0.00     0.078 H 
ATOM     56  H25 KDA d          27.148  -1.626  -1.177  0.00  0.00     0.078 H 
BRANCH  54  57
ATOM     57  O8  KDA d          27.132  -2.828   0.515  0.00  0.00    -0.398 OA
ATOM     58  H26 KDA d          27.264  -2.386   1.346  0.00  0.00     0.209 HD
ENDBRANCH  54  57
ENDBRANCH  50  54
ENDBRANCH  42  50
ENDBRANCH  35  36
ENDBRANCH  32  35
ENDBRANCH   1  32
TORSDOF 16
ENDMDL
MODEL 6
REMARK VINA RESULT:      -5.4      1.961      6.188
REMARK  16 active torsions:
REMARK  status: ('A' for Active; 'I' for Inactive)
REMARK    1  A    between atoms: C1_1  and  C2_4 
REMARK    2  A    between atoms: C2_4  and  O2_16 
REMARK    3  A    between atoms: C4_6  and  O4_7 
REMARK    4  A    between atoms: C5_8  and  O5_9 
REMARK    5  A    between atoms: C6_10  and  C7_12 
REMARK    6  A    between atoms: C7_12  and  O7_13 
REMARK    7  A    between atoms: C7_12  and  C8_14 
REMARK    8  A    between atoms: C8_14  and  O8_15 
REMARK    9  A    between atoms: O8_15  and  C2_20 
REMARK   10  A    between atoms: O2_16  and  C9_17 
REMARK   11  A    between atoms: C10_18  and  C11_19 
REMARK   12  A    between atoms: C2_20  and  C1_21 
REMARK   13  A    between atoms: C6_27  and  C7_29 
REMARK   14  A    between atoms: C7_29  and  O7_30 
REMARK   15  A    between atoms: C7_29  and  C8_31 
REMARK   16  A    between atoms: C8_31  and  O8_32 
ROOT
ATOM      1  C7  KDA d          27.475  -3.207   1.805  0.00  0.00     0.083 C 
ATOM      2  H8  KDA d          27.436  -2.212   1.337  0.00  0.00     0.090 H 
ENDROOT
BRANCH   1   3
ATOM      3  C6  KDA d          27.304  -3.074   3.313  0.00  0.00     0.096 C 
ATOM      4  C5  KDA d          26.742  -1.724   3.805  0.00  0.00     0.088 C 
ATOM      5  C4  KDA d          26.713  -1.706   5.348  0.00  0.00     0.068 C 
ATOM      6  H5  KDA d          25.719  -1.583   3.429  0.00  0.00     0.091 H 
ATOM      7  C3  KDA d          28.046  -2.114   6.011  0.00  0.00     0.024 C 
ATOM      8  H3  KDA d          25.939  -2.418   5.671  0.00  0.00     0.087 H 
ATOM      9  C2  KDA d          28.629  -3.370   5.323  0.00  0.00     0.262 C 
ATOM     10  H1  KDA d          28.764  -1.286   5.921  0.00  0.00     0.045 H 
ATOM     11  H2  KDA d          27.869  -2.332   7.075  0.00  0.00     0.045 H 
ATOM     12  O6  KDA d          28.620  -3.265   3.900  0.00  0.00    -0.335 OA
ATOM     13  H7  KDA d          26.624  -3.869   3.655  0.00  0.00     0.091 H 
BRANCH   4  14
ATOM     14  O5  KDA d          27.608  -0.687   3.255  0.00  0.00    -0.390 OA
ATOM     15  H6  KDA d          28.383  -1.089   2.880  0.00  0.00     0.210 HD
ENDBRANCH   4  14
BRANCH   5  16
ATOM     16  O4  KDA d          26.375  -0.406   5.833  0.00  0.00    -0.393 OA
ATOM     17  H4  KDA d          25.501  -0.178   5.540  0.00  0.00     0.210 HD
ENDBRANCH   5  16
BRANCH   9  18
ATOM     18  C1  KDA d          30.072  -3.510   5.851  0.00  0.00     0.239 C 
ATOM     19  O1A KDA d          31.007  -3.500   5.016  0.00  0.00    -0.644 OA
ATOM     20  O1B KDA d          30.193  -3.629   7.097  0.00  0.00    -0.644 OA
ENDBRANCH   9  18
BRANCH   9  21
ATOM     21  O2  KDA d          27.839  -4.534   5.734  0.00  0.00    -0.317 OA
BRANCH  21  22
ATOM     22  C9  KDA d          28.221  -5.591   4.935  0.00  0.00     0.013 C 
ATOM     23  C10 KDA d          28.800  -6.767   5.397  0.00  0.00    -0.086 C 
ATOM     24  H13 KDA d          29.106  -7.523   4.674  0.00  0.00     0.079 H 
ATOM     25  H12 KDA d          28.056  -5.498   3.863  0.00  0.00     0.122 H 
BRANCH  23  26
ATOM     26  C11 KDA d          29.001  -7.007   6.736  0.00  0.00    -0.058 C 
ATOM     27  H14 KDA d          28.095  -7.458   7.167  0.00  0.00     0.032 H 
ATOM     28  H15 KDA d          29.220  -6.060   7.249  0.00  0.00     0.032 H 
ATOM     29  H16 KDA d          29.849  -7.697   6.862  0.00  0.00     0.032 H 
ENDBRANCH  23  26
ENDBRANCH  21  22
ENDBRANCH   9  21
ENDBRANCH   1   3
BRANCH   1  30
ATOM     30  O7  KDA d          26.422  -4.034   1.296  0.00  0.00    -0.391 OA
ATOM     31  H9  KDA d          25.716  -3.485   0.974  0.00  0.00     0.210 HD
ENDBRANCH   1  30
BRANCH   1  32
ATOM     32  C8  KDA d          28.810  -3.880   1.484  0.00  0.00     0.050 C 
ATOM     33  H10 KDA d          28.785  -4.949   1.739  0.00  0.00     0.078 H 
ATOM     34  H11 KDA d          29.637  -3.394   2.022  0.00  0.00     0.078 H 
BRANCH  32  35
ATOM     35  O8  KDA d          28.939  -3.687   0.039  0.00  0.00    -0.341 OA
BRANCH  35  36
ATOM     36  C2  KDA d          29.538  -2.406  -0.353  0.00  0.00     0.276 C 
ATOM     37  C3  KDA d          30.184  -2.516  -1.586  0.00  0.00    -0.036 C 
ATOM     38  C4  KDA d          31.583  -2.450  -1.771  0.00  0.00    -0.099 C 
ATOM     39  H17 KDA d          29.564  -2.662  -2.469  0.00  0.00     0.085 H 
ATOM     40  C5  KDA d          32.478  -2.279  -0.708  0.00  0.00    -0.023 C 
ATOM     41  H18 KDA d          31.981  -2.535  -2.781  0.00  0.00     0.076 H 
ATOM     42  C6  KDA d          31.802  -2.530   0.640  0.00  0.00     0.072 C 
ATOM     43  H19 KDA d          32.864  -1.249  -0.727  0.00  0.00     0.042 H 
ATOM     44  H20 KDA d          33.312  -2.986  -0.826  0.00  0.00     0.042 H 
ATOM     45  O6  KDA d          30.468  -1.956   0.662  0.00  0.00    -0.335 OA
ATOM     46  H21 KDA d          31.757  -3.618   0.793  0.00  0.00     0.088 H 
BRANCH  36  47
ATOM     47  C1  KDA d          28.428  -1.355  -0.472  0.00  0.00     0.243 C 
ATOM     48  O1B KDA d          27.606  -1.520  -1.367  0.00  0.00    -0.644 OA
ATOM     49  O1A KDA d          28.438  -0.416   0.347  0.00  0.00    -0.644 OA
ENDBRANCH  36  47
BRANCH  42  50
ATOM     50  C7  KDA d          32.446  -1.867   1.872  0.00  0.00     0.081 C 
ATOM     51  H22 KDA d          33.432  -1.477   1.576  0.00  0.00     0.090 H 
BRANCH  50  52
ATOM     52  O7  KDA d          32.621  -2.849   2.881  0.00  0.00    -0.391 OA
ATOM     53  H23 KDA d          32.878  -3.672   2.480  0.00  0.00     0.210 HD
ENDBRANCH  50  52
BRANCH  50  54
ATOM     54  C8  KDA d          31.632  -0.713   2.440  0.00  0.00     0.043 C 
ATOM     55  H24 KDA d          31.218  -0.123   1.609  0.00  0.00     0.078 H 
ATOM     56  H25 KDA d          32.288  -0.076   3.051  0.00  0.00     0.078 H 
BRANCH  54  57
ATOM     57  O8  KDA d          30.552  -1.196   3.256  0.00  0.00    -0.398 OA
ATOM     58  H26 KDA d          30.833  -1.229   4.163  0.00  0.00     0.209 HD
ENDBRANCH  54  57
ENDBRANCH  50  54
ENDBRANCH  42  50
ENDBRANCH  35  36
ENDBRANCH  32  35
ENDBRANCH   1  32
TORSDOF 16
ENDMDL
MODEL 7
REMARK VINA RESULT:      -5.3      1.973      6.025
REMARK  16 active torsions:
REMARK  status: ('A' for Active; 'I' for Inactive)
REMARK    1  A    between atoms: C1_1  and  C2_4 
REMARK    2  A    between atoms: C2_4  and  O2_16 
REMARK    3  A    between atoms: C4_6  and  O4_7 
REMARK    4  A    between atoms: C5_8  and  O5_9 
REMARK    5  A    between atoms: C6_10  and  C7_12 
REMARK    6  A    between atoms: C7_12  and  O7_13 
REMARK    7  A    between atoms: C7_12  and  C8_14 
REMARK    8  A    between atoms: C8_14  and  O8_15 
REMARK    9  A    between atoms: O8_15  and  C2_20 
REMARK   10  A    between atoms: O2_16  and  C9_17 
REMARK   11  A    between atoms: C10_18  and  C11_19 
REMARK   12  A    between atoms: C2_20  and  C1_21 
REMARK   13  A    between atoms: C6_27  and  C7_29 
REMARK   14  A    between atoms: C7_29  and  O7_30 
REMARK   15  A    between atoms: C7_29  and  C8_31 
REMARK   16  A    between atoms: C8_31  and  O8_32 
ROOT
ATOM      1  C7  KDA d          31.168  -0.242   2.221  0.00  0.00     0.083 C 
ATOM      2  H8  KDA d          32.170  -0.604   2.494  0.00  0.00     0.090 H 
ENDROOT
BRANCH   1   3
ATOM      3  C6  KDA d          30.121  -0.904   3.109  0.00  0.00     0.096 C 
ATOM      4  C5  KDA d          28.750  -0.198   3.164  0.00  0.00     0.088 C 
ATOM      5  C4  KDA d          27.832  -0.927   4.168  0.00  0.00     0.068 C 
ATOM      6  H5  KDA d          28.277  -0.217   2.172  0.00  0.00     0.091 H 
ATOM      7  C3  KDA d          28.472  -1.170   5.551  0.00  0.00     0.024 C 
ATOM      8  H3  KDA d          27.579  -1.905   3.732  0.00  0.00     0.087 H 
ATOM      9  C2  KDA d          29.918  -1.699   5.391  0.00  0.00     0.262 C 
ATOM     10  H1  KDA d          28.493  -0.225   6.112  0.00  0.00     0.045 H 
ATOM     11  H2  KDA d          27.874  -1.911   6.102  0.00  0.00     0.045 H 
ATOM     12  O6  KDA d          30.675  -0.937   4.452  0.00  0.00    -0.335 OA
ATOM     13  H7  KDA d          29.960  -1.930   2.746  0.00  0.00     0.091 H 
BRANCH   4  14
ATOM     14  O5  KDA d          29.008   1.184   3.553  0.00  0.00    -0.390 OA
ATOM     15  H6  KDA d          28.310   1.488   4.120  0.00  0.00     0.210 HD
ENDBRANCH   4  14
BRANCH   5  16
ATOM     16  O4  KDA d          26.627  -0.191   4.379  0.00  0.00    -0.393 OA
ATOM     17  H4  KDA d          26.815   0.577   4.906  0.00  0.00     0.210 HD
ENDBRANCH   5  16
BRANCH   9  18
ATOM     18  C1  KDA d          30.552  -1.622   6.796  0.00  0.00     0.239 C 
ATOM     19  O1A KDA d          30.032  -0.850   7.634  0.00  0.00    -0.644 OA
ATOM     20  O1B KDA d          31.560  -2.351   6.984  0.00  0.00    -0.644 OA
ENDBRANCH   9  18
BRANCH   9  21
ATOM     21  O2  KDA d          29.855  -3.096   4.953  0.00  0.00    -0.317 OA
BRANCH  21  22
ATOM     22  C9  KDA d          28.808  -3.689   5.627  0.00  0.00     0.013 C 
ATOM     23  C10 KDA d          28.864  -4.934   6.243  0.00  0.00    -0.086 C 
ATOM     24  H13 KDA d          27.964  -5.330   6.711  0.00  0.00     0.079 H 
ATOM     25  H12 KDA d          27.868  -3.142   5.681  0.00  0.00     0.122 H 
BRANCH  23  26
ATOM     26  C11 KDA d          30.017  -5.681   6.280  0.00  0.00    -0.058 C 
ATOM     27  H14 KDA d          30.837  -5.113   5.816  0.00  0.00     0.032 H 
ATOM     28  H15 KDA d          29.864  -6.621   5.729  0.00  0.00     0.032 H 
ATOM     29  H16 KDA d          30.274  -5.908   7.325  0.00  0.00     0.032 H 
ENDBRANCH  23  26
ENDBRANCH  21  22
ENDBRANCH   9  21
ENDBRANCH   1   3
BRANCH   1  30
ATOM     30  O7  KDA d          31.088   1.177   2.401  0.00  0.00    -0.391 OA
ATOM     31  H9  KDA d          30.797   1.582   1.592  0.00  0.00     0.210 HD
ENDBRANCH   1  30
BRANCH   1  32
ATOM     32  C8  KDA d          30.885  -0.555   0.751  0.00  0.00     0.050 C 
ATOM     33  H10 KDA d          31.589  -0.026   0.092  0.00  0.00     0.078 H 
ATOM     34  H11 KDA d          29.855  -0.283   0.480  0.00  0.00     0.078 H 
BRANCH  32  35
ATOM     35  O8  KDA d          31.084  -2.003   0.676  0.00  0.00    -0.341 OA
BRANCH  35  36
ATOM     36  C2  KDA d          30.089  -2.712  -0.136  0.00  0.00     0.276 C 
ATOM     37  C3  KDA d          28.945  -1.932  -0.316  0.00  0.00    -0.036 C 
ATOM     38  C4  KDA d          27.682  -2.212   0.251  0.00  0.00    -0.099 C 
ATOM     39  H17 KDA d          29.034  -1.043  -0.939  0.00  0.00     0.085 H 
ATOM     40  C5  KDA d          27.455  -3.318   1.081  0.00  0.00    -0.023 C 
ATOM     41  H18 KDA d          26.852  -1.541   0.035  0.00  0.00     0.076 H 
ATOM     42  C6  KDA d          28.767  -3.938   1.560  0.00  0.00     0.072 C 
ATOM     43  H19 KDA d          26.886  -4.074   0.520  0.00  0.00     0.042 H 
ATOM     44  H20 KDA d          26.871  -2.994   1.955  0.00  0.00     0.042 H 
ATOM     45  O6  KDA d          29.743  -3.974   0.486  0.00  0.00    -0.335 OA
ATOM     46  H21 KDA d          29.136  -3.329   2.398  0.00  0.00     0.088 H 
BRANCH  36  47
ATOM     47  C1  KDA d          30.696  -3.017  -1.510  0.00  0.00     0.243 C 
ATOM     48  O1B KDA d          31.611  -2.291  -1.883  0.00  0.00    -0.644 OA
ATOM     49  O1A KDA d          30.222  -3.979  -2.146  0.00  0.00    -0.644 OA
ENDBRANCH  36  47
BRANCH  42  50
ATOM     50  C7  KDA d          28.718  -5.417   1.988  0.00  0.00     0.081 C 
ATOM     51  H22 KDA d          28.514  -6.026   1.094  0.00  0.00     0.090 H 
BRANCH  50  52
ATOM     52  O7  KDA d          27.660  -5.590   2.918  0.00  0.00    -0.391 OA
ATOM     53  H23 KDA d          26.862  -5.808   2.451  0.00  0.00     0.210 HD
ENDBRANCH  50  52
BRANCH  50  54
ATOM     54  C8  KDA d          30.014  -5.913   2.613  0.00  0.00     0.043 C 
ATOM     55  H24 KDA d          30.495  -6.625   1.926  0.00  0.00     0.078 H 
ATOM     56  H25 KDA d          29.784  -6.420   3.563  0.00  0.00     0.078 H 
BRANCH  54  57
ATOM     57  O8  KDA d          30.915  -4.823   2.868  0.00  0.00    -0.398 OA
ATOM     58  H26 KDA d          30.431  -4.094   3.238  0.00  0.00     0.209 HD
ENDBRANCH  54  57
ENDBRANCH  50  54
ENDBRANCH  42  50
ENDBRANCH  35  36
ENDBRANCH  32  35
ENDBRANCH   1  32
TORSDOF 16
ENDMDL
MODEL 8
REMARK VINA RESULT:      -5.3      1.891      6.678
REMARK  16 active torsions:
REMARK  status: ('A' for Active; 'I' for Inactive)
REMARK    1  A    between atoms: C1_1  and  C2_4 
REMARK    2  A    between atoms: C2_4  and  O2_16 
REMARK    3  A    between atoms: C4_6  and  O4_7 
REMARK    4  A    between atoms: C5_8  and  O5_9 
REMARK    5  A    between atoms: C6_10  and  C7_12 
REMARK    6  A    between atoms: C7_12  and  O7_13 
REMARK    7  A    between atoms: C7_12  and  C8_14 
REMARK    8  A    between atoms: C8_14  and  O8_15 
REMARK    9  A    between atoms: O8_15  and  C2_20 
REMARK   10  A    between atoms: O2_16  and  C9_17 
REMARK   11  A    between atoms: C10_18  and  C11_19 
REMARK   12  A    between atoms: C2_20  and  C1_21 
REMARK   13  A    between atoms: C6_27  and  C7_29 
REMARK   14  A    between atoms: C7_29  and  O7_30 
REMARK   15  A    between atoms: C7_29  and  C8_31 
REMARK   16  A    between atoms: C8_31  and  O8_32 
ROOT
ATOM      1  C7  KDA d          27.895  -0.011   3.130  0.00  0.00     0.083 C 
ATOM      2  H8  KDA d          28.935   0.296   3.318  0.00  0.00     0.090 H 
ENDROOT
BRANCH   1   3
ATOM      3  C6  KDA d          27.322  -0.680   4.373  0.00  0.00     0.096 C 
ATOM      4  C5  KDA d          26.755   0.275   5.444  0.00  0.00     0.088 C 
ATOM      5  C4  KDA d          26.300  -0.538   6.674  0.00  0.00     0.068 C 
ATOM      6  H5  KDA d          25.890   0.821   5.040  0.00  0.00     0.091 H 
ATOM      7  C3  KDA d          27.358  -1.525   7.209  0.00  0.00     0.024 C 
ATOM      8  H3  KDA d          25.413  -1.116   6.378  0.00  0.00     0.087 H 
ATOM      9  C2  KDA d          28.009  -2.302   6.040  0.00  0.00     0.262 C 
ATOM     10  H1  KDA d          28.136  -0.965   7.748  0.00  0.00     0.045 H 
ATOM     11  H2  KDA d          26.877  -2.237   7.895  0.00  0.00     0.045 H 
ATOM     12  O6  KDA d          28.404  -1.447   4.969  0.00  0.00    -0.335 OA
ATOM     13  H7  KDA d          26.514  -1.358   4.060  0.00  0.00     0.091 H 
BRANCH   4  14
ATOM     14  O5  KDA d          27.818   1.220   5.766  0.00  0.00    -0.390 OA
ATOM     15  H6  KDA d          28.248   0.950   6.569  0.00  0.00     0.210 HD
ENDBRANCH   4  14
BRANCH   5  16
ATOM     16  O4  KDA d          25.944   0.331   7.751  0.00  0.00    -0.393 OA
ATOM     17  H4  KDA d          25.161   0.001   8.177  0.00  0.00     0.210 HD
ENDBRANCH   5  16
BRANCH   9  18
ATOM     18  C1  KDA d          29.233  -3.024   6.643  0.00  0.00     0.239 C 
ATOM     19  O1A KDA d          29.047  -3.764   7.638  0.00  0.00    -0.644 OA
ATOM     20  O1B KDA d          30.335  -2.802   6.081  0.00  0.00    -0.644 OA
ENDBRANCH   9  18
BRANCH   9  21
ATOM     21  O2  KDA d          27.046  -3.292   5.549  0.00  0.00    -0.317 OA
BRANCH  21  22
ATOM     22  C9  KDA d          27.705  -4.082   4.630  0.00  0.00     0.013 C 
ATOM     23  C10 KDA d          27.181  -4.484   3.407  0.00  0.00    -0.086 C 
ATOM     24  H13 KDA d          27.769  -5.147   2.774  0.00  0.00     0.079 H 
ATOM     25  H12 KDA d          28.710  -4.416   4.882  0.00  0.00     0.122 H 
BRANCH  23  26
ATOM     26  C11 KDA d          25.943  -4.073   2.971  0.00  0.00    -0.058 C 
ATOM     27  H14 KDA d          25.811  -3.005   3.197  0.00  0.00     0.032 H 
ATOM     28  H15 KDA d          25.162  -4.656   3.482  0.00  0.00     0.032 H 
ATOM     29  H16 KDA d          25.866  -4.231   1.885  0.00  0.00     0.032 H 
ENDBRANCH  23  26
ENDBRANCH  21  22
ENDBRANCH   9  21
ENDBRANCH   1   3
BRANCH   1  30
ATOM     30  O7  KDA d          27.091   1.132   2.814  0.00  0.00    -0.391 OA
ATOM     31  H9  KDA d          26.210   0.849   2.599  0.00  0.00     0.210 HD
ENDBRANCH   1  30
BRANCH   1  32
ATOM     32  C8  KDA d          27.844  -0.975   1.943  0.00  0.00     0.050 C 
ATOM     33  H10 KDA d          27.367  -0.503   1.071  0.00  0.00     0.078 H 
ATOM     34  H11 KDA d          27.301  -1.895   2.204  0.00  0.00     0.078 H 
BRANCH  32  35
ATOM     35  O8  KDA d          29.256  -1.254   1.682  0.00  0.00    -0.341 OA
BRANCH  35  36
ATOM     36  C2  KDA d          29.512  -1.982   0.434  0.00  0.00     0.276 C 
ATOM     37  C3  KDA d          28.342  -2.571  -0.048  0.00  0.00    -0.036 C 
ATOM     38  C4  KDA d          28.095  -3.961  -0.085  0.00  0.00    -0.099 C 
ATOM     39  H17 KDA d          27.562  -1.909  -0.423  0.00  0.00     0.085 H 
ATOM     40  C5  KDA d          29.019  -4.904   0.384  0.00  0.00    -0.023 C 
ATOM     41  H18 KDA d          27.150  -4.314  -0.494  0.00  0.00     0.076 H 
ATOM     42  C6  KDA d          30.109  -4.248   1.231  0.00  0.00     0.072 C 
ATOM     43  H19 KDA d          29.487  -5.404  -0.476  0.00  0.00     0.042 H 
ATOM     44  H20 KDA d          28.489  -5.648   0.998  0.00  0.00     0.042 H 
ATOM     45  O6  KDA d          30.532  -2.990   0.642  0.00  0.00    -0.335 OA
ATOM     46  H21 KDA d          29.697  -4.085   2.237  0.00  0.00     0.088 H 
BRANCH  36  47
ATOM     47  C1  KDA d          30.035  -0.996  -0.617  0.00  0.00     0.243 C 
ATOM     48  O1B KDA d          29.500  -1.031  -1.720  0.00  0.00    -0.644 OA
ATOM     49  O1A KDA d          30.958  -0.231  -0.277  0.00  0.00    -0.644 OA
ENDBRANCH  36  47
BRANCH  42  50
ATOM     50  C7  KDA d          31.447  -5.004   1.344  0.00  0.00     0.081 C 
ATOM     51  H22 KDA d          32.066  -4.738   0.474  0.00  0.00     0.090 H 
BRANCH  50  52
ATOM     52  O7  KDA d          31.188  -6.399   1.321  0.00  0.00    -0.391 OA
ATOM     53  H23 KDA d          30.251  -6.545   1.248  0.00  0.00     0.210 HD
ENDBRANCH  50  52
BRANCH  50  54
ATOM     54  C8  KDA d          32.232  -4.667   2.604  0.00  0.00     0.043 C 
ATOM     55  H24 KDA d          33.275  -4.451   2.330  0.00  0.00     0.078 H 
ATOM     56  H25 KDA d          32.204  -5.530   3.286  0.00  0.00     0.078 H 
BRANCH  54  57
ATOM     57  O8  KDA d          31.673  -3.523   3.270  0.00  0.00    -0.398 OA
ATOM     58  H26 KDA d          31.857  -3.579   4.200  0.00  0.00     0.209 HD
ENDBRANCH  54  57
ENDBRANCH  50  54
ENDBRANCH  42  50
ENDBRANCH  35  36
ENDBRANCH  32  35
ENDBRANCH   1  32
TORSDOF 16
ENDMDL
MODEL 9
REMARK VINA RESULT:      -5.2      2.447      5.838
REMARK  16 active torsions:
REMARK  status: ('A' for Active; 'I' for Inactive)
REMARK    1  A    between atoms: C1_1  and  C2_4 
REMARK    2  A    between atoms: C2_4  and  O2_16 
REMARK    3  A    between atoms: C4_6  and  O4_7 
REMARK    4  A    between atoms: C5_8  and  O5_9 
REMARK    5  A    between atoms: C6_10  and  C7_12 
REMARK    6  A    between atoms: C7_12  and  O7_13 
REMARK    7  A    between atoms: C7_12  and  C8_14 
REMARK    8  A    between atoms: C8_14  and  O8_15 
REMARK    9  A    between atoms: O8_15  and  C2_20 
REMARK   10  A    between atoms: O2_16  and  C9_17 
REMARK   11  A    between atoms: C10_18  and  C11_19 
REMARK   12  A    between atoms: C2_20  and  C1_21 
REMARK   13  A    between atoms: C6_27  and  C7_29 
REMARK   14  A    between atoms: C7_29  and  O7_30 
REMARK   15  A    between atoms: C7_29  and  C8_31 
REMARK   16  A    between atoms: C8_31  and  O8_32 
ROOT
ATOM      1  C7  KDA d          31.327  -2.649   3.984  0.00  0.00     0.083 C 
ATOM      2  H8  KDA d          31.929  -1.745   3.805  0.00  0.00     0.090 H 
ENDROOT
BRANCH   1   3
ATOM      3  C6  KDA d          31.440  -3.588   2.788  0.00  0.00     0.096 C 
ATOM      4  C5  KDA d          31.994  -2.956   1.494  0.00  0.00     0.088 C 
ATOM      5  C4  KDA d          31.962  -3.997   0.355  0.00  0.00     0.068 C 
ATOM      6  H5  KDA d          33.033  -2.632   1.650  0.00  0.00     0.091 H 
ATOM      7  C3  KDA d          30.601  -4.702   0.179  0.00  0.00     0.024 C 
ATOM      8  H3  KDA d          32.716  -4.764   0.588  0.00  0.00     0.087 H 
ATOM      9  C2  KDA d          30.033  -5.129   1.553  0.00  0.00     0.262 C 
ATOM     10  H1  KDA d          29.895  -4.011  -0.305  0.00  0.00     0.045 H 
ATOM     11  H2  KDA d          30.733  -5.593  -0.452  0.00  0.00     0.045 H 
ATOM     12  O6  KDA d          30.099  -4.082   2.520  0.00  0.00    -0.335 OA
ATOM     13  H7  KDA d          32.097  -4.424   3.067  0.00  0.00     0.091 H 
BRANCH   4  14
ATOM     14  O5  KDA d          31.161  -1.794   1.207  0.00  0.00    -0.390 OA
ATOM     15  H6  KDA d          30.702  -1.532   1.995  0.00  0.00     0.210 HD
ENDBRANCH   4  14
BRANCH   5  16
ATOM     16  O4  KDA d          32.294  -3.390  -0.894  0.00  0.00    -0.393 OA
ATOM     17  H4  KDA d          31.749  -3.761  -1.579  0.00  0.00     0.210 HD
ENDBRANCH   5  16
BRANCH   9  18
ATOM     18  C1  KDA d          28.568  -5.542   1.294  0.00  0.00     0.239 C 
ATOM     19  O1A KDA d          27.871  -5.882   2.279  0.00  0.00    -0.644 OA
ATOM     20  O1B KDA d          28.190  -5.508   0.096  0.00  0.00    -0.644 OA
ENDBRANCH   9  18
BRANCH   9  21
ATOM     21  O2  KDA d          30.795  -6.287   2.030  0.00  0.00    -0.317 OA
BRANCH  21  22
ATOM     22  C9  KDA d          30.250  -6.665   3.239  0.00  0.00     0.013 C 
ATOM     23  C10 KDA d          30.983  -6.964   4.382  0.00  0.00    -0.086 C 
ATOM     24  H13 KDA d          30.454  -7.296   5.275  0.00  0.00     0.079 H 
ATOM     25  H12 KDA d          29.165  -6.734   3.304  0.00  0.00     0.122 H 
BRANCH  23  26
ATOM     26  C11 KDA d          32.353  -6.855   4.422  0.00  0.00    -0.058 C 
ATOM     27  H14 KDA d          32.676  -6.682   5.459  0.00  0.00     0.032 H 
ATOM     28  H15 KDA d          32.672  -6.011   3.793  0.00  0.00     0.032 H 
ATOM     29  H16 KDA d          32.806  -7.784   4.047  0.00  0.00     0.032 H 
ENDBRANCH  23  26
ENDBRANCH  21  22
ENDBRANCH   9  21
ENDBRANCH   1   3
BRANCH   1  30
ATOM     30  O7  KDA d          31.799  -3.335   5.150  0.00  0.00    -0.391 OA
ATOM     31  H9  KDA d          32.699  -3.606   5.014  0.00  0.00     0.210 HD
ENDBRANCH   1  30
BRANCH   1  32
ATOM     32  C8  KDA d          29.865  -2.263   4.214  0.00  0.00     0.050 C 
ATOM     33  H10 KDA d          29.672  -2.062   5.278  0.00  0.00     0.078 H 
ATOM     34  H11 KDA d          29.188  -3.055   3.863  0.00  0.00     0.078 H 
BRANCH  32  35
ATOM     35  O8  KDA d          29.713  -1.049   3.413  0.00  0.00    -0.341 OA
BRANCH  35  36
ATOM     36  C2  KDA d          28.324  -0.704   3.088  0.00  0.00     0.276 C 
ATOM     37  C3  KDA d          27.436  -1.595   3.691  0.00  0.00    -0.036 C 
ATOM     38  C4  KDA d          26.647  -2.540   2.997  0.00  0.00    -0.099 C 
ATOM     39  H17 KDA d          27.344  -1.560   4.776  0.00  0.00     0.085 H 
ATOM     40  C5  KDA d          26.693  -2.685   1.605  0.00  0.00    -0.023 C 
ATOM     41  H18 KDA d          25.976  -3.181   3.568  0.00  0.00     0.076 H 
ATOM     42  C6  KDA d          27.912  -1.980   1.008  0.00  0.00     0.072 C 
ATOM     43  H19 KDA d          25.781  -2.251   1.169  0.00  0.00     0.042 H 
ATOM     44  H20 KDA d          26.744  -3.756   1.359  0.00  0.00     0.042 H 
ATOM     45  O6  KDA d          28.132  -0.697   1.652  0.00  0.00    -0.335 OA
ATOM     46  H21 KDA d          28.780  -2.639   1.151  0.00  0.00     0.088 H 
BRANCH  36  47
ATOM     47  C1  KDA d          28.030   0.709   3.607  0.00  0.00     0.243 C 
ATOM     48  O1B KDA d          27.139   1.331   3.038  0.00  0.00    -0.644 OA
ATOM     49  O1A KDA d          28.710   1.120   4.567  0.00  0.00    -0.644 OA
ENDBRANCH  36  47
BRANCH  42  50
ATOM     50  C7  KDA d          27.818  -1.572  -0.475  0.00  0.00     0.081 C 
ATOM     51  H22 KDA d          27.039  -0.801  -0.570  0.00  0.00     0.090 H 
BRANCH  50  52
ATOM     52  O7  KDA d          27.443  -2.708  -1.239  0.00  0.00    -0.391 OA
ATOM     53  H23 KDA d          26.500  -2.815  -1.203  0.00  0.00     0.210 HD
ENDBRANCH  50  52
BRANCH  50  54
ATOM     54  C8  KDA d          29.116  -1.006  -1.033  0.00  0.00     0.043 C 
ATOM     55  H24 KDA d          29.741  -0.650  -0.201  0.00  0.00     0.078 H 
ATOM     56  H25 KDA d          28.883  -0.165  -1.702  0.00  0.00     0.078 H 
BRANCH  54  57
ATOM     57  O8  KDA d          29.840  -2.005  -1.770  0.00  0.00    -0.398 OA
ATOM     58  H26 KDA d          30.738  -1.719  -1.891  0.00  0.00     0.209 HD
ENDBRANCH  54  57
ENDBRANCH  50  54
ENDBRANCH  42  50
ENDBRANCH  35  36
ENDBRANCH  32  35
ENDBRANCH   1  32
TORSDOF 16
ENDMDL
MODEL 10
REMARK VINA RESULT:      -5.2      2.162      6.641
REMARK  16 active torsions:
REMARK  status: ('A' for Active; 'I' for Inactive)
REMARK    1  A    between atoms: C1_1  and  C2_4 
REMARK    2  A    between atoms: C2_4  and  O2_16 
REMARK    3  A    between atoms: C4_6  and  O4_7 
REMARK    4  A    between atoms: C5_8  and  O5_9 
REMARK    5  A    between atoms: C6_10  and  C7_12 
REMARK    6  A    between atoms: C7_12  and  O7_13 
REMARK    7  A    between atoms: C7_12  and  C8_14 
REMARK    8  A    between atoms: C8_14  and  O8_15 
REMARK    9  A    between atoms: O8_15  and  C2_20 
REMARK   10  A    between atoms: O2_16  and  C9_17 
REMARK   11  A    between atoms: C10_18  and  C11_19 
REMARK   12  A    between atoms: C2_20  and  C1_21 
REMARK   13  A    between atoms: C6_27  and  C7_29 
REMARK   14  A    between atoms: C7_29  and  O7_30 
REMARK   15  A    between atoms: C7_29  and  C8_31 
REMARK   16  A    between atoms: C8_31  and  O8_32 
ROOT
ATOM      1  C7  KDA d          31.587  -3.008   4.677  0.00  0.00     0.083 C 
ATOM      2  H8  KDA d          32.091  -3.666   3.953  0.00  0.00     0.090 H 
ENDROOT
BRANCH   1   3
ATOM      3  C6  KDA d          30.630  -3.825   5.537  0.00  0.00     0.096 C 
ATOM      4  C5  KDA d          31.261  -5.013   6.293  0.00  0.00     0.088 C 
ATOM      5  C4  KDA d          30.161  -5.794   7.041  0.00  0.00     0.068 C 
ATOM      6  H5  KDA d          31.996  -4.646   7.024  0.00  0.00     0.091 H 
ATOM      7  C3  KDA d          28.949  -6.177   6.166  0.00  0.00     0.024 C 
ATOM      8  H3  KDA d          29.802  -5.155   7.861  0.00  0.00     0.087 H 
ATOM      9  C2  KDA d          28.507  -4.972   5.301  0.00  0.00     0.262 C 
ATOM     10  H1  KDA d          29.226  -7.013   5.507  0.00  0.00     0.045 H 
ATOM     11  H2  KDA d          28.115  -6.483   6.815  0.00  0.00     0.045 H 
ATOM     12  O6  KDA d          29.605  -4.340   4.645  0.00  0.00    -0.335 OA
ATOM     13  H7  KDA d          30.175  -3.153   6.280  0.00  0.00     0.091 H 
BRANCH   4  14
ATOM     14  O5  KDA d          31.939  -5.830   5.293  0.00  0.00    -0.390 OA
ATOM     15  H6  KDA d          32.465  -5.272   4.732  0.00  0.00     0.210 HD
ENDBRANCH   4  14
BRANCH   5  16
ATOM     16  O4  KDA d          30.685  -7.002   7.594  0.00  0.00    -0.393 OA
ATOM     17  H4  KDA d          30.999  -6.835   8.476  0.00  0.00     0.210 HD
ENDBRANCH   5  16
BRANCH   9  18
ATOM     18  C1  KDA d          27.507  -5.537   4.270  0.00  0.00     0.239 C 
ATOM     19  O1A KDA d          26.299  -5.608   4.601  0.00  0.00    -0.644 OA
ATOM     20  O1B KDA d          27.994  -5.891   3.167  0.00  0.00    -0.644 OA
ENDBRANCH   9  18
BRANCH   9  21
ATOM     21  O2  KDA d          27.829  -4.004   6.167  0.00  0.00    -0.317 OA
BRANCH  21  22
ATOM     22  C9  KDA d          27.510  -2.912   5.387  0.00  0.00     0.013 C 
ATOM     23  C10 KDA d          27.121  -1.671   5.878  0.00  0.00    -0.086 C 
ATOM     24  H13 KDA d          26.848  -0.887   5.173  0.00  0.00     0.079 H 
ATOM     25  H12 KDA d          27.566  -3.030   4.306  0.00  0.00     0.122 H 
BRANCH  23  26
ATOM     26  C11 KDA d          27.071  -1.400   7.226  0.00  0.00    -0.058 C 
ATOM     27  H14 KDA d          27.977  -1.793   7.712  0.00  0.00     0.032 H 
ATOM     28  H15 KDA d          26.183  -1.879   7.663  0.00  0.00     0.032 H 
ATOM     29  H16 KDA d          27.014  -0.313   7.380  0.00  0.00     0.032 H 
ENDBRANCH  23  26
ENDBRANCH  21  22
ENDBRANCH   9  21
ENDBRANCH   1   3
BRANCH   1  30
ATOM     30  O7  KDA d          32.551  -2.383   5.533  0.00  0.00    -0.391 OA
ATOM     31  H9  KDA d          32.230  -1.531   5.802  0.00  0.00     0.210 HD
ENDBRANCH   1  30
BRANCH   1  32
ATOM     32  C8  KDA d          30.821  -1.910   3.937  0.00  0.00     0.050 C 
ATOM     33  H10 KDA d          31.216  -0.915   4.188  0.00  0.00     0.078 H 
ATOM     34  H11 KDA d          29.748  -1.948   4.173  0.00  0.00     0.078 H 
BRANCH  32  35
ATOM     35  O8  KDA d          31.061  -2.230   2.529  0.00  0.00    -0.341 OA
BRANCH  35  36
ATOM     36  C2  KDA d          30.145  -1.573   1.590  0.00  0.00     0.276 C 
ATOM     37  C3  KDA d          29.192  -0.816   2.273  0.00  0.00    -0.036 C 
ATOM     38  C4  KDA d          27.815  -1.125   2.341  0.00  0.00    -0.099 C 
ATOM     39  H17 KDA d          29.535   0.079   2.791  0.00  0.00     0.085 H 
ATOM     40  C5  KDA d          27.264  -2.257   1.727  0.00  0.00    -0.023 C 
ATOM     41  H18 KDA d          27.156  -0.456   2.893  0.00  0.00     0.076 H 
ATOM     42  C6  KDA d          28.347  -3.251   1.310  0.00  0.00     0.072 C 
ATOM     43  H19 KDA d          26.705  -1.942   0.833  0.00  0.00     0.042 H 
ATOM     44  H20 KDA d          26.580  -2.749   2.433  0.00  0.00     0.042 H 
ATOM     45  O6  KDA d          29.495  -2.559   0.751  0.00  0.00    -0.335 OA
ATOM     46  H21 KDA d          28.637  -3.822   2.204  0.00  0.00     0.088 H 
BRANCH  36  47
ATOM     47  C1  KDA d          30.952  -0.640   0.680  0.00  0.00     0.243 C 
ATOM     48  O1B KDA d          31.166   0.491   1.100  0.00  0.00    -0.644 OA
ATOM     49  O1A KDA d          31.334  -1.098  -0.415  0.00  0.00    -0.644 OA
ENDBRANCH  36  47
BRANCH  42  50
ATOM     50  C7  KDA d          27.990  -4.229   0.174  0.00  0.00     0.081 C 
ATOM     51  H22 KDA d          26.899  -4.371   0.175  0.00  0.00     0.090 H 
BRANCH  50  52
ATOM     52  O7  KDA d          28.621  -5.474   0.427  0.00  0.00    -0.391 OA
ATOM     53  H23 KDA d          28.948  -5.834  -0.390  0.00  0.00     0.210 HD
ENDBRANCH  50  52
BRANCH  50  54
ATOM     54  C8  KDA d          28.402  -3.736  -1.206  0.00  0.00     0.043 C 
ATOM     55  H24 KDA d          28.557  -4.603  -1.865  0.00  0.00     0.078 H 
ATOM     56  H25 KDA d          29.341  -3.169  -1.120  0.00  0.00     0.078 H 
BRANCH  54  57
ATOM     57  O8  KDA d          27.392  -2.887  -1.775  0.00  0.00    -0.398 OA
ATOM     58  H26 KDA d          27.015  -3.312  -2.536  0.00  0.00     0.209 HD
ENDBRANCH  54  57
ENDBRANCH  50  54
ENDBRANCH  42  50
ENDBRANCH  35  36
ENDBRANCH  32  35
ENDBRANCH   1  32
TORSDOF 16
ENDMDL
