MODEL 1
REMARK VINA RESULT:      -9.7      0.000      0.000
REMARK  11 active torsions:
REMARK  status: ('A' for Active; 'I' for Inactive)
REMARK    1  A    between atoms: C1_1  and  O8_8 
REMARK    2  A    between atoms: C2_2  and  O9_9 
REMARK    3  A    between atoms: C3_3  and  S7_7 
REMARK    4  A    between atoms: C5_5  and  C6_6 
REMARK    5  A    between atoms: S7_7  and  C11_11 
REMARK    6  A    between atoms: C10_10  and  C12_12 
REMARK    7  A    between atoms: C12_12  and  N13_13 
REMARK       I    between atoms: N13_13  and  C14_14 
REMARK    8  A    between atoms: C14_14  and  C15_15 
REMARK    9  A    between atoms: C16_16  and  O22_22 
REMARK   10  A    between atoms: C17_17  and  O23_23 
REMARK   11  A    between atoms: C19_19  and  N21_21 
ROOT
ATOM      1  C6  MOL d          20.374 -30.437  10.928  0.00  0.00    -0.075 C 
ATOM      2  C10 MOL d          20.614 -29.718   9.867  0.00  0.00    -0.087 C 
ATOM      3  H5  MOL d          20.246 -31.514  10.832  0.00  0.00     0.080 H 
ATOM      4  H8  MOL d          20.753 -28.645   9.991  0.00  0.00     0.079 H 
ENDROOT
BRANCH   1   5
ATOM      5  C5  MOL d          20.275 -29.807  12.251  0.00  0.00     0.083 C 
ATOM      6  C1  MOL d          20.577 -30.847  13.374  0.00  0.00     0.091 C 
ATOM      7  C2  MOL d          19.246 -31.619  13.269  0.00  0.00     0.097 C 
ATOM      8  H1  MOL d          21.468 -31.467  13.196  0.00  0.00     0.091 H 
ATOM      9  C3  MOL d          18.202 -30.529  13.015  0.00  0.00     0.115 C 
ATOM     10  H2  MOL d          19.286 -32.324  12.426  0.00  0.00     0.092 H 
ATOM     11  O4  MOL d          18.939 -29.423  12.475  0.00  0.00    -0.361 OA
ATOM     12  H3  MOL d          17.707 -30.233  13.952  0.00  0.00     0.105 H 
ATOM     13  H4  MOL d          20.957 -28.946  12.315  0.00  0.00     0.093 H 
BRANCH   6  14
ATOM     14  O8  MOL d          20.662 -30.141  14.610  0.00  0.00    -0.390 OA
ATOM     15  H6  MOL d          20.876 -30.750  15.307  0.00  0.00     0.210 HD
ENDBRANCH   6  14
BRANCH   7  16
ATOM     16  O9  MOL d          18.913 -32.342  14.461  0.00  0.00    -0.389 OA
ATOM     17  H7  MOL d          18.089 -32.796  14.335  0.00  0.00     0.210 HD
ENDBRANCH   7  16
BRANCH   9  18
ATOM     18  S7  MOL d          16.976 -31.162  11.862  0.00  0.00    -0.095 SA
BRANCH  18  19
ATOM     19  C11 MOL d          15.491 -30.840  12.557  0.00  0.00     0.005 A 
ATOM     20  C27 MOL d          14.310 -31.624  12.217  0.00  0.00    -0.050 A 
ATOM     21  C28 MOL d          13.083 -31.356  12.835  0.00  0.00     0.003 A 
ATOM     22  H16 MOL d          14.383 -32.418  11.483  0.00  0.00     0.087 H 
ATOM     23  N29 MOL d          12.883 -30.362  13.763  0.00  0.00    -0.273 NA
ATOM     24  H17 MOL d          12.234 -31.974  12.563  0.00  0.00     0.114 H 
ATOM     25  C30 MOL d          14.003 -29.605  14.083  0.00  0.00     0.003 A 
ATOM     26  C31 MOL d          15.261 -29.819  13.528  0.00  0.00    -0.050 A 
ATOM     27  H18 MOL d          13.890 -28.805  14.806  0.00  0.00     0.114 H 
ATOM     28  H19 MOL d          16.088 -29.194  13.841  0.00  0.00     0.087 H 
ENDBRANCH  18  19
ENDBRANCH   9  18
ENDBRANCH   1   5
BRANCH   2  29
ATOM     29  C12 MOL d          20.708 -30.290   8.491  0.00  0.00     0.010 C 
ATOM     30  H9  MOL d          19.761 -30.099   7.964  0.00  0.00     0.070 H 
ATOM     31  H10 MOL d          20.870 -31.375   8.571  0.00  0.00     0.070 H 
BRANCH  29  32
ATOM     32  N13 MOL d          21.785 -29.718   7.724  0.00  0.00    -0.353 N 
ATOM     33  C14 MOL d          22.378 -30.262   6.646  0.00  0.00     0.254 C 
ATOM     34  O24 MOL d          21.915 -31.324   6.135  0.00  0.00    -0.268 OA
ATOM     35  H11 MOL d          22.126 -28.826   8.024  0.00  0.00     0.163 HD
BRANCH  33  36
ATOM     36  C15 MOL d          23.589 -29.649   6.045  0.00  0.00     0.070 A 
ATOM     37  C16 MOL d          23.812 -28.244   6.095  0.00  0.00     0.114 A 
ATOM     38  C17 MOL d          25.021 -27.767   5.521  0.00  0.00     0.102 A 
ATOM     39  C18 MOL d          25.954 -28.553   4.905  0.00  0.00    -0.016 A 
ATOM     40  C19 MOL d          25.706 -29.943   4.891  0.00  0.00     0.106 A 
ATOM     41  H12 MOL d          26.842 -28.130   4.451  0.00  0.00     0.091 H 
ATOM     42  C20 MOL d          24.531 -30.488   5.454  0.00  0.00    -0.033 A 
ATOM     43  H13 MOL d          24.361 -31.558   5.426  0.00  0.00     0.089 H 
BRANCH  37  44
ATOM     44  O22 MOL d          22.968 -27.349   6.621  0.00  0.00    -0.357 OA
ATOM     45  H14 MOL d          22.658 -26.768   5.937  0.00  0.00     0.217 HD
ENDBRANCH  37  44
BRANCH  38  46
ATOM     46  O23 MOL d          25.259 -26.406   5.559  0.00  0.00    -0.358 OA
ATOM     47  H15 MOL d          25.004 -26.017   4.730  0.00  0.00     0.217 HD
ENDBRANCH  38  46
BRANCH  40  48
ATOM     48  N21 MOL d          26.649 -30.838   4.259  0.00  0.00    -0.116 N 
ATOM     49  O25 MOL d          27.759 -30.479   3.966  0.00  0.00    -0.532 OA
ATOM     50  O26 MOL d          26.248 -31.966   4.011  0.00  0.00    -0.532 OA
ENDBRANCH  40  48
ENDBRANCH  33  36
ENDBRANCH  29  32
ENDBRANCH   2  29
TORSDOF 11
ENDMDL
MODEL 2
REMARK VINA RESULT:      -8.9      1.022      2.332
REMARK  11 active torsions:
REMARK  status: ('A' for Active; 'I' for Inactive)
REMARK    1  A    between atoms: C1_1  and  O8_8 
REMARK    2  A    between atoms: C2_2  and  O9_9 
REMARK    3  A    between atoms: C3_3  and  S7_7 
REMARK    4  A    between atoms: C5_5  and  C6_6 
REMARK    5  A    between atoms: S7_7  and  C11_11 
REMARK    6  A    between atoms: C10_10  and  C12_12 
REMARK    7  A    between atoms: C12_12  and  N13_13 
REMARK       I    between atoms: N13_13  and  C14_14 
REMARK    8  A    between atoms: C14_14  and  C15_15 
REMARK    9  A    between atoms: C16_16  and  O22_22 
REMARK   10  A    between atoms: C17_17  and  O23_23 
REMARK   11  A    between atoms: C19_19  and  N21_21 
ROOT
ATOM      1  C6  MOL d          20.432 -30.699  10.903  0.00  0.00    -0.075 C 
ATOM      2  C10 MOL d          20.397 -30.045   9.775  0.00  0.00    -0.087 C 
ATOM      3  H5  MOL d          20.522 -31.784  10.895  0.00  0.00     0.080 H 
ATOM      4  H8  MOL d          20.321 -28.959   9.810  0.00  0.00     0.079 H 
ENDROOT
BRANCH   1   5
ATOM      5  C5  MOL d          20.349 -29.985  12.184  0.00  0.00     0.083 C 
ATOM      6  C1  MOL d          20.582 -30.968  13.372  0.00  0.00     0.091 C 
ATOM      7  C2  MOL d          19.215 -31.677  13.294  0.00  0.00     0.097 C 
ATOM      8  H1  MOL d          21.442 -31.642  13.246  0.00  0.00     0.091 H 
ATOM      9  C3  MOL d          18.232 -30.552  12.958  0.00  0.00     0.115 C 
ATOM     10  H2  MOL d          19.228 -32.433  12.496  0.00  0.00     0.092 H 
ATOM     11  O4  MOL d          19.032 -29.520  12.364  0.00  0.00    -0.361 OA
ATOM     12  H3  MOL d          17.741 -30.175  13.867  0.00  0.00     0.105 H 
ATOM     13  H4  MOL d          21.073 -29.157  12.206  0.00  0.00     0.093 H 
BRANCH   6  14
ATOM     14  O8  MOL d          20.688 -30.194  14.565  0.00  0.00    -0.390 OA
ATOM     15  H6  MOL d          19.822 -30.056  14.929  0.00  0.00     0.210 HD
ENDBRANCH   6  14
BRANCH   7  16
ATOM     16  O9  MOL d          18.830 -32.307  14.522  0.00  0.00    -0.389 OA
ATOM     17  H7  MOL d          18.638 -33.223  14.360  0.00  0.00     0.210 HD
ENDBRANCH   7  16
BRANCH   9  18
ATOM     18  S7  MOL d          16.989 -31.191  11.826  0.00  0.00    -0.095 SA
BRANCH  18  19
ATOM     19  C11 MOL d          15.514 -30.863  12.540  0.00  0.00     0.005 A 
ATOM     20  C27 MOL d          14.324 -31.634  12.205  0.00  0.00    -0.050 A 
ATOM     21  C28 MOL d          13.105 -31.362  12.838  0.00  0.00     0.003 A 
ATOM     22  H16 MOL d          14.382 -32.422  11.464  0.00  0.00     0.087 H 
ATOM     23  N29 MOL d          12.923 -30.374  13.777  0.00  0.00    -0.273 NA
ATOM     24  H17 MOL d          12.248 -31.970  12.570  0.00  0.00     0.114 H 
ATOM     25  C30 MOL d          14.053 -29.629  14.092  0.00  0.00     0.003 A 
ATOM     26  C31 MOL d          15.303 -29.849  13.522  0.00  0.00    -0.050 A 
ATOM     27  H18 MOL d          13.955 -28.834  14.823  0.00  0.00     0.114 H 
ATOM     28  H19 MOL d          16.139 -29.233  13.832  0.00  0.00     0.087 H 
ENDBRANCH  18  19
ENDBRANCH   9  18
ENDBRANCH   1   5
BRANCH   2  29
ATOM     29  C12 MOL d          20.457 -30.708   8.439  0.00  0.00     0.010 C 
ATOM     30  H9  MOL d          19.546 -30.454   7.878  0.00  0.00     0.070 H 
ATOM     31  H10 MOL d          20.504 -31.797   8.588  0.00  0.00     0.070 H 
BRANCH  29  32
ATOM     32  N13 MOL d          21.602 -30.299   7.667  0.00  0.00    -0.353 N 
ATOM     33  C14 MOL d          22.216 -31.012   6.705  0.00  0.00     0.254 C 
ATOM     34  O24 MOL d          21.720 -32.108   6.311  0.00  0.00    -0.268 OA
ATOM     35  H11 MOL d          21.979 -29.394   7.866  0.00  0.00     0.163 HD
BRANCH  33  36
ATOM     36  C15 MOL d          23.489 -30.546   6.099  0.00  0.00     0.070 A 
ATOM     37  C16 MOL d          24.440 -31.466   5.572  0.00  0.00     0.114 A 
ATOM     38  C17 MOL d          25.608 -30.911   4.982  0.00  0.00     0.102 A 
ATOM     39  C18 MOL d          25.889 -29.575   4.918  0.00  0.00    -0.016 A 
ATOM     40  C19 MOL d          24.914 -28.694   5.437  0.00  0.00     0.106 A 
ATOM     41  H12 MOL d          26.814 -29.209   4.490  0.00  0.00     0.091 H 
ATOM     42  C20 MOL d          23.724 -29.176   6.026  0.00  0.00    -0.033 A 
ATOM     43  H13 MOL d          22.993 -28.479   6.420  0.00  0.00     0.089 H 
BRANCH  37  44
ATOM     44  O22 MOL d          24.322 -32.798   5.605  0.00  0.00    -0.357 OA
ATOM     45  H14 MOL d          24.464 -33.149   4.734  0.00  0.00     0.217 HD
ENDBRANCH  37  44
BRANCH  38  46
ATOM     46  O23 MOL d          26.544 -31.785   4.462  0.00  0.00    -0.358 OA
ATOM     47  H15 MOL d          26.124 -32.360   3.833  0.00  0.00     0.217 HD
ENDBRANCH  38  46
BRANCH  40  48
ATOM     48  N21 MOL d          25.141 -27.267   5.403  0.00  0.00    -0.116 N 
ATOM     49  O25 MOL d          24.620 -26.528   6.197  0.00  0.00    -0.532 OA
ATOM     50  O26 MOL d          25.862 -26.850   4.509  0.00  0.00    -0.532 OA
ENDBRANCH  40  48
ENDBRANCH  33  36
ENDBRANCH  29  32
ENDBRANCH   2  29
TORSDOF 11
ENDMDL
MODEL 3
REMARK VINA RESULT:      -7.9      1.868      2.462
REMARK  11 active torsions:
REMARK  status: ('A' for Active; 'I' for Inactive)
REMARK    1  A    between atoms: C1_1  and  O8_8 
REMARK    2  A    between atoms: C2_2  and  O9_9 
REMARK    3  A    between atoms: C3_3  and  S7_7 
REMARK    4  A    between atoms: C5_5  and  C6_6 
REMARK    5  A    between atoms: S7_7  and  C11_11 
REMARK    6  A    between atoms: C10_10  and  C12_12 
REMARK    7  A    between atoms: C12_12  and  N13_13 
REMARK       I    between atoms: N13_13  and  C14_14 
REMARK    8  A    between atoms: C14_14  and  C15_15 
REMARK    9  A    between atoms: C16_16  and  O22_22 
REMARK   10  A    between atoms: C17_17  and  O23_23 
REMARK   11  A    between atoms: C19_19  and  N21_21 
ROOT
ATOM      1  C6  MOL d          20.890 -28.556  12.132  0.00  0.00    -0.075 C 
ATOM      2  C10 MOL d          21.938 -27.993  11.597  0.00  0.00    -0.087 C 
ATOM      3  H5  MOL d          19.893 -28.218  11.850  0.00  0.00     0.080 H 
ATOM      4  H8  MOL d          22.923 -28.359  11.883  0.00  0.00     0.079 H 
ENDROOT
BRANCH   1   5
ATOM      5  C5  MOL d          21.041 -29.641  13.110  0.00  0.00     0.083 C 
ATOM      6  C1  MOL d          21.897 -30.799  12.512  0.00  0.00     0.091 C 
ATOM      7  C2  MOL d          20.815 -31.353  11.562  0.00  0.00     0.097 C 
ATOM      8  H1  MOL d          22.815 -30.474  12.002  0.00  0.00     0.091 H 
ATOM      9  C3  MOL d          19.517 -31.229  12.364  0.00  0.00     0.115 C 
ATOM     10  H2  MOL d          20.769 -30.742  10.649  0.00  0.00     0.092 H 
ATOM     11  O4  MOL d          19.780 -30.219  13.349  0.00  0.00    -0.361 OA
ATOM     12  H3  MOL d          19.266 -32.181  12.854  0.00  0.00     0.105 H 
ATOM     13  H4  MOL d          21.489 -29.256  14.039  0.00  0.00     0.093 H 
BRANCH   6  14
ATOM     14  O8  MOL d          22.175 -31.723  13.562  0.00  0.00    -0.390 OA
ATOM     15  H6  MOL d          21.716 -31.454  14.349  0.00  0.00     0.210 HD
ENDBRANCH   6  14
BRANCH   7  16
ATOM     16  O9  MOL d          21.029 -32.721  11.193  0.00  0.00    -0.389 OA
ATOM     17  H7  MOL d          20.938 -33.273  11.961  0.00  0.00     0.210 HD
ENDBRANCH   7  16
BRANCH   9  18
ATOM     18  S7  MOL d          18.190 -30.762  11.244  0.00  0.00    -0.095 SA
BRANCH  18  19
ATOM     19  C11 MOL d          16.815 -30.656  12.189  0.00  0.00     0.005 A 
ATOM     20  C27 MOL d          16.772 -29.800  13.368  0.00  0.00    -0.050 A 
ATOM     21  C28 MOL d          15.600 -29.703  14.127  0.00  0.00     0.003 A 
ATOM     22  H16 MOL d          17.650 -29.235  13.657  0.00  0.00     0.087 H 
ATOM     23  N29 MOL d          14.440 -30.390  13.854  0.00  0.00    -0.273 NA
ATOM     24  H17 MOL d          15.607 -29.043  14.987  0.00  0.00     0.114 H 
ATOM     25  C30 MOL d          14.480 -31.215  12.737  0.00  0.00     0.003 A 
ATOM     26  C31 MOL d          15.599 -31.353  11.921  0.00  0.00    -0.050 A 
ATOM     27  H18 MOL d          13.591 -31.783  12.488  0.00  0.00     0.114 H 
ATOM     28  H19 MOL d          15.545 -32.007  11.059  0.00  0.00     0.087 H 
ENDBRANCH  18  19
ENDBRANCH   9  18
ENDBRANCH   1   5
BRANCH   2  29
ATOM     29  C12 MOL d          21.856 -26.874  10.612  0.00  0.00     0.010 C 
ATOM     30  H9  MOL d          22.265 -25.965  11.076  0.00  0.00     0.070 H 
ATOM     31  H10 MOL d          20.800 -26.710  10.352  0.00  0.00     0.070 H 
BRANCH  29  32
ATOM     32  N13 MOL d          22.591 -27.145   9.402  0.00  0.00    -0.353 N 
ATOM     33  C14 MOL d          22.210 -27.957   8.399  0.00  0.00     0.254 C 
ATOM     34  O24 MOL d          21.054 -28.474   8.402  0.00  0.00    -0.268 OA
ATOM     35  H11 MOL d          23.472 -26.683   9.298  0.00  0.00     0.163 HD
BRANCH  33  36
ATOM     36  C15 MOL d          23.134 -28.281   7.282  0.00  0.00     0.070 A 
ATOM     37  C16 MOL d          24.081 -27.331   6.804  0.00  0.00     0.114 A 
ATOM     38  C17 MOL d          24.941 -27.758   5.755  0.00  0.00     0.102 A 
ATOM     39  C18 MOL d          24.897 -28.989   5.165  0.00  0.00    -0.016 A 
ATOM     40  C19 MOL d          23.956 -29.909   5.679  0.00  0.00     0.106 A 
ATOM     41  H12 MOL d          25.553 -29.248   4.342  0.00  0.00     0.091 H 
ATOM     42  C20 MOL d          23.078 -29.557   6.728  0.00  0.00    -0.033 A 
ATOM     43  H13 MOL d          22.362 -30.279   7.101  0.00  0.00     0.089 H 
BRANCH  37  44
ATOM     44  O22 MOL d          24.207 -26.077   7.252  0.00  0.00    -0.357 OA
ATOM     45  H14 MOL d          25.126 -25.885   7.395  0.00  0.00     0.217 HD
ENDBRANCH  37  44
BRANCH  38  46
ATOM     46  O23 MOL d          25.869 -26.853   5.276  0.00  0.00    -0.358 OA
ATOM     47  H15 MOL d          26.606 -27.323   4.904  0.00  0.00     0.217 HD
ENDBRANCH  38  46
BRANCH  40  48
ATOM     48  N21 MOL d          23.852 -31.232   5.105  0.00  0.00    -0.116 N 
ATOM     49  O25 MOL d          24.829 -31.882   4.841  0.00  0.00    -0.532 OA
ATOM     50  O26 MOL d          22.723 -31.639   4.874  0.00  0.00    -0.532 OA
ENDBRANCH  40  48
ENDBRANCH  33  36
ENDBRANCH  29  32
ENDBRANCH   2  29
TORSDOF 11
ENDMDL
MODEL 4
REMARK VINA RESULT:      -7.2      1.580      2.780
REMARK  11 active torsions:
REMARK  status: ('A' for Active; 'I' for Inactive)
REMARK    1  A    between atoms: C1_1  and  O8_8 
REMARK    2  A    between atoms: C2_2  and  O9_9 
REMARK    3  A    between atoms: C3_3  and  S7_7 
REMARK    4  A    between atoms: C5_5  and  C6_6 
REMARK    5  A    between atoms: S7_7  and  C11_11 
REMARK    6  A    between atoms: C10_10  and  C12_12 
REMARK    7  A    between atoms: C12_12  and  N13_13 
REMARK       I    between atoms: N13_13  and  C14_14 
REMARK    8  A    between atoms: C14_14  and  C15_15 
REMARK    9  A    between atoms: C16_16  and  O22_22 
REMARK   10  A    between atoms: C17_17  and  O23_23 
REMARK   11  A    between atoms: C19_19  and  N21_21 
ROOT
ATOM      1  C6  MOL d          21.284 -29.505  12.361  0.00  0.00    -0.075 C 
ATOM      2  C10 MOL d          20.715 -28.351  12.148  0.00  0.00    -0.087 C 
ATOM      3  H5  MOL d          21.967 -29.916  11.618  0.00  0.00     0.080 H 
ATOM      4  H8  MOL d          20.048 -27.955  12.912  0.00  0.00     0.079 H 
ENDROOT
BRANCH   1   5
ATOM      5  C5  MOL d          21.012 -30.256  13.594  0.00  0.00     0.083 C 
ATOM      6  C1  MOL d          21.431 -31.749  13.427  0.00  0.00     0.091 C 
ATOM      7  C2  MOL d          20.260 -32.166  12.515  0.00  0.00     0.097 C 
ATOM      8  H1  MOL d          22.423 -31.898  12.975  0.00  0.00     0.091 H 
ATOM      9  C3  MOL d          19.058 -31.406  13.081  0.00  0.00     0.115 C 
ATOM     10  H2  MOL d          20.462 -31.858  11.478  0.00  0.00     0.092 H 
ATOM     11  O4  MOL d          19.621 -30.301  13.804  0.00  0.00    -0.361 OA
ATOM     12  H3  MOL d          18.473 -32.044  13.760  0.00  0.00     0.105 H 
ATOM     13  H4  MOL d          21.532 -29.791  14.445  0.00  0.00     0.093 H 
BRANCH   6  14
ATOM     14  O8  MOL d          21.332 -32.375  14.704  0.00  0.00    -0.390 OA
ATOM     15  H6  MOL d          22.050 -32.989  14.811  0.00  0.00     0.210 HD
ENDBRANCH   6  14
BRANCH   7  16
ATOM     16  O9  MOL d          19.996 -33.575  12.536  0.00  0.00    -0.389 OA
ATOM     17  H7  MOL d          20.785 -34.040  12.788  0.00  0.00     0.210 HD
ENDBRANCH   7  16
BRANCH   9  18
ATOM     18  S7  MOL d          18.018 -30.870  11.715  0.00  0.00    -0.095 SA
BRANCH  18  19
ATOM     19  C11 MOL d          16.482 -30.703  12.353  0.00  0.00     0.005 A 
ATOM     20  C27 MOL d          15.344 -31.410  11.780  0.00  0.00    -0.050 A 
ATOM     21  C28 MOL d          14.072 -31.278  12.349  0.00  0.00     0.003 A 
ATOM     22  H16 MOL d          15.483 -32.040  10.909  0.00  0.00     0.087 H 
ATOM     23  N29 MOL d          13.789 -30.492  13.441  0.00  0.00    -0.273 NA
ATOM     24  H17 MOL d          13.256 -31.834  11.900  0.00  0.00     0.114 H 
ATOM     25  C30 MOL d          14.869 -29.808  13.985  0.00  0.00     0.003 A 
ATOM     26  C31 MOL d          16.166 -29.899  13.489  0.00  0.00    -0.050 A 
ATOM     27  H18 MOL d          14.691 -29.170  14.843  0.00  0.00     0.114 H 
ATOM     28  H19 MOL d          16.957 -29.345  13.979  0.00  0.00     0.087 H 
ENDBRANCH  18  19
ENDBRANCH   9  18
ENDBRANCH   1   5
BRANCH   2  29
ATOM     29  C12 MOL d          20.931 -27.546  10.909  0.00  0.00     0.010 C 
ATOM     30  H9  MOL d          21.627 -26.726  11.139  0.00  0.00     0.070 H 
ATOM     31  H10 MOL d          19.966 -27.128  10.588  0.00  0.00     0.070 H 
BRANCH  29  32
ATOM     32  N13 MOL d          21.479 -28.325   9.829  0.00  0.00    -0.353 N 
ATOM     33  C14 MOL d          22.224 -27.865   8.807  0.00  0.00     0.254 C 
ATOM     34  O24 MOL d          22.614 -26.661   8.796  0.00  0.00    -0.268 OA
ATOM     35  H11 MOL d          21.286 -29.307   9.839  0.00  0.00     0.163 HD
BRANCH  33  36
ATOM     36  C15 MOL d          22.587 -28.744   7.667  0.00  0.00     0.070 A 
ATOM     37  C16 MOL d          21.793 -29.873   7.318  0.00  0.00     0.114 A 
ATOM     38  C17 MOL d          22.212 -30.625   6.186  0.00  0.00     0.102 A 
ATOM     39  C18 MOL d          23.327 -30.358   5.443  0.00  0.00    -0.016 A 
ATOM     40  C19 MOL d          24.079 -29.220   5.811  0.00  0.00     0.106 A 
ATOM     41  H12 MOL d          23.621 -30.988   4.612  0.00  0.00     0.091 H 
ATOM     42  C20 MOL d          23.714 -28.420   6.915  0.00  0.00    -0.033 A 
ATOM     43  H13 MOL d          24.311 -27.554   7.179  0.00  0.00     0.089 H 
BRANCH  37  44
ATOM     44  O22 MOL d          20.705 -30.283   7.979  0.00  0.00    -0.357 OA
ATOM     45  H14 MOL d          20.182 -30.837   7.412  0.00  0.00     0.217 HD
ENDBRANCH  37  44
BRANCH  38  46
ATOM     46  O23 MOL d          21.456 -31.725   5.829  0.00  0.00    -0.358 OA
ATOM     47  H15 MOL d          20.797 -31.463   5.195  0.00  0.00     0.217 HD
ENDBRANCH  38  46
BRANCH  40  48
ATOM     48  N21 MOL d          25.272 -28.873   5.070  0.00  0.00    -0.116 N 
ATOM     49  O25 MOL d          25.987 -29.717   4.596  0.00  0.00    -0.532 OA
ATOM     50  O26 MOL d          25.530 -27.682   4.978  0.00  0.00    -0.532 OA
ENDBRANCH  40  48
ENDBRANCH  33  36
ENDBRANCH  29  32
ENDBRANCH   2  29
TORSDOF 11
ENDMDL
MODEL 5
REMARK VINA RESULT:      -6.9      2.142      3.463
REMARK  11 active torsions:
REMARK  status: ('A' for Active; 'I' for Inactive)
REMARK    1  A    between atoms: C1_1  and  O8_8 
REMARK    2  A    between atoms: C2_2  and  O9_9 
REMARK    3  A    between atoms: C3_3  and  S7_7 
REMARK    4  A    between atoms: C5_5  and  C6_6 
REMARK    5  A    between atoms: S7_7  and  C11_11 
REMARK    6  A    between atoms: C10_10  and  C12_12 
REMARK    7  A    between atoms: C12_12  and  N13_13 
REMARK       I    between atoms: N13_13  and  C14_14 
REMARK    8  A    between atoms: C14_14  and  C15_15 
REMARK    9  A    between atoms: C16_16  and  O22_22 
REMARK   10  A    between atoms: C17_17  and  O23_23 
REMARK   11  A    between atoms: C19_19  and  N21_21 
ROOT
ATOM      1  C6  MOL d          21.202 -29.756  11.934  0.00  0.00    -0.075 C 
ATOM      2  C10 MOL d          20.881 -28.530  11.629  0.00  0.00    -0.087 C 
ATOM      3  H5  MOL d          21.642 -30.404  11.177  0.00  0.00     0.080 H 
ATOM      4  H8  MOL d          20.456 -27.898  12.407  0.00  0.00     0.079 H 
ENDROOT
BRANCH   1   5
ATOM      5  C5  MOL d          20.975 -30.273  13.291  0.00  0.00     0.083 C 
ATOM      6  C1  MOL d          21.223 -31.812  13.337  0.00  0.00     0.091 C 
ATOM      7  C2  MOL d          19.933 -32.227  12.600  0.00  0.00     0.097 C 
ATOM      8  H1  MOL d          22.147 -32.142  12.840  0.00  0.00     0.091 H 
ATOM      9  C3  MOL d          18.875 -31.255  13.127  0.00  0.00     0.115 C 
ATOM     10  H2  MOL d          20.065 -32.107  11.514  0.00  0.00     0.092 H 
ATOM     11  O4  MOL d          19.613 -30.125  13.614  0.00  0.00    -0.361 OA
ATOM     12  H3  MOL d          18.295 -31.710  13.944  0.00  0.00     0.105 H 
ATOM     13  H4  MOL d          21.618 -29.746  14.011  0.00  0.00     0.093 H 
BRANCH   6  14
ATOM     14  O8  MOL d          21.183 -32.219  14.703  0.00  0.00    -0.390 OA
ATOM     15  H6  MOL d          20.304 -32.099  15.043  0.00  0.00     0.210 HD
ENDBRANCH   6  14
BRANCH   7  16
ATOM     16  O9  MOL d          19.532 -33.575  12.871  0.00  0.00    -0.389 OA
ATOM     17  H7  MOL d          20.152 -33.975  13.469  0.00  0.00     0.210 HD
ENDBRANCH   7  16
BRANCH   9  18
ATOM     18  S7  MOL d          17.768 -30.819  11.778  0.00  0.00    -0.095 SA
BRANCH  18  19
ATOM     19  C11 MOL d          16.240 -30.743  12.451  0.00  0.00     0.005 A 
ATOM     20  C27 MOL d          15.930 -29.800  13.519  0.00  0.00    -0.050 A 
ATOM     21  C28 MOL d          14.635 -29.733  14.047  0.00  0.00     0.003 A 
ATOM     22  H16 MOL d          16.705 -29.149  13.906  0.00  0.00     0.087 H 
ATOM     23  N29 MOL d          13.589 -30.526  13.638  0.00  0.00    -0.273 NA
ATOM     24  H17 MOL d          14.445 -29.007  14.830  0.00  0.00     0.114 H 
ATOM     25  C30 MOL d          13.882 -31.433  12.627  0.00  0.00     0.003 A 
ATOM     26  C31 MOL d          15.138 -31.550  12.038  0.00  0.00    -0.050 A 
ATOM     27  H18 MOL d          13.089 -32.084  12.278  0.00  0.00     0.114 H 
ATOM     28  H19 MOL d          15.282 -32.273  11.244  0.00  0.00     0.087 H 
ENDBRANCH  18  19
ENDBRANCH   9  18
ENDBRANCH   1   5
BRANCH   2  29
ATOM     29  C12 MOL d          21.067 -27.948  10.267  0.00  0.00     0.010 C 
ATOM     30  H9  MOL d          21.879 -27.207  10.307  0.00  0.00     0.070 H 
ATOM     31  H10 MOL d          20.132 -27.451   9.965  0.00  0.00     0.070 H 
BRANCH  29  32
ATOM     32  N13 MOL d          21.399 -28.943   9.279  0.00  0.00    -0.353 N 
ATOM     33  C14 MOL d          22.028 -28.730   8.108  0.00  0.00     0.254 C 
ATOM     34  O24 MOL d          22.502 -27.587   7.840  0.00  0.00    -0.268 OA
ATOM     35  H11 MOL d          21.136 -29.886   9.484  0.00  0.00     0.163 HD
BRANCH  33  36
ATOM     36  C15 MOL d          22.163 -29.813   7.102  0.00  0.00     0.070 A 
ATOM     37  C16 MOL d          23.341 -29.952   6.315  0.00  0.00     0.114 A 
ATOM     38  C17 MOL d          23.380 -31.046   5.408  0.00  0.00     0.102 A 
ATOM     39  C18 MOL d          22.363 -31.939   5.222  0.00  0.00    -0.016 A 
ATOM     40  C19 MOL d          21.218 -31.779   6.034  0.00  0.00     0.106 A 
ATOM     41  H12 MOL d          22.432 -32.734   4.488  0.00  0.00     0.091 H 
ATOM     42  C20 MOL d          21.117 -30.722   6.965  0.00  0.00    -0.033 A 
ATOM     43  H13 MOL d          20.226 -30.618   7.573  0.00  0.00     0.089 H 
BRANCH  37  44
ATOM     44  O22 MOL d          24.395 -29.128   6.354  0.00  0.00    -0.357 OA
ATOM     45  H14 MOL d          24.134 -28.268   6.046  0.00  0.00     0.217 HD
ENDBRANCH  37  44
BRANCH  38  46
ATOM     46  O23 MOL d          24.515 -31.200   4.634  0.00  0.00    -0.358 OA
ATOM     47  H15 MOL d          24.262 -31.388   3.737  0.00  0.00     0.217 HD
ENDBRANCH  38  46
BRANCH  40  48
ATOM     48  N21 MOL d          20.102 -32.687   5.894  0.00  0.00    -0.116 N 
ATOM     49  O25 MOL d          19.295 -32.563   5.011  0.00  0.00    -0.532 OA
ATOM     50  O26 MOL d          20.006 -33.566   6.739  0.00  0.00    -0.532 OA
ENDBRANCH  40  48
ENDBRANCH  33  36
ENDBRANCH  29  32
ENDBRANCH   2  29
TORSDOF 11
ENDMDL
