MODEL 1
REMARK VINA RESULT:      -9.5      0.000      0.000
REMARK  5 active torsions:
REMARK  status: ('A' for Active; 'I' for Inactive)
REMARK    1  A    between atoms: C_2  and  CA_4 
REMARK    2  A    between atoms: CA_4  and  N_5 
REMARK    3  A    between atoms: CA_4  and  CB_6 
REMARK    4  A    between atoms: CB_6  and  CAS_7 
REMARK    5  A    between atoms: CAS_7  and  CAN_9 
ROOT
ATOM      1  CAS MS8 d           1.207  44.328   2.603  0.00  0.00     0.154 C 
ATOM      2  CAJ MS8 d           2.668  44.777   2.712  0.00  0.00     0.000 C 
ATOM      3  OAL MS8 d           1.169  43.025   3.196  0.00  0.00    -0.361 OA
ATOM      4  CAR MS8 d           2.417  42.453   2.782  0.00  0.00     0.065 C 
ATOM      5  CAQ MS8 d           3.374  43.533   3.256  0.00  0.00     0.066 C 
ATOM      6  CAH MS8 d           2.660  41.126   3.502  0.00  0.00    -0.036 C 
ATOM      7  CAP MS8 d           2.783  41.341   5.011  0.00  0.00    -0.043 C 
ATOM      8  CAG MS8 d           3.848  42.402   5.285  0.00  0.00     0.020 C 
ATOM      9  OAK MS8 d           3.410  43.633   4.690  0.00  0.00    -0.383 OA
ATOM     10  H7  MS8 d           2.770  45.625   3.406  0.00  0.00     0.042 H 
ATOM     11  H8  MS8 d           3.069  45.059   1.727  0.00  0.00     0.042 H 
ATOM     12  H9  MS8 d           2.467  42.305   1.693  0.00  0.00     0.087 H 
ATOM     13  H10 MS8 d           4.388  43.400   2.850  0.00  0.00     0.087 H 
ATOM     14  H11 MS8 d           3.591  40.677   3.125  0.00  0.00     0.036 H 
ATOM     15  H12 MS8 d           1.817  40.448   3.302  0.00  0.00     0.036 H 
ATOM     16  H13 MS8 d           3.073  40.396   5.494  0.00  0.00     0.036 H 
ATOM     17  H14 MS8 d           1.816  41.677   5.414  0.00  0.00     0.036 H 
ATOM     18  H15 MS8 d           4.806  42.092   4.842  0.00  0.00     0.074 H 
ATOM     19  H16 MS8 d           3.971  42.536   6.371  0.00  0.00     0.074 H 
ENDROOT
BRANCH   1  20
ATOM     20  CB  MS8 d           0.832  44.247   1.122  0.00  0.00     0.010 C 
ATOM     21  H5  MS8 d           0.840  45.260   0.694  0.00  0.00     0.042 H 
ATOM     22  H6  MS8 d           1.571  43.622   0.599  0.00  0.00     0.042 H 
BRANCH  20  23
ATOM     23  CA  MS8 d          -0.560  43.637   0.935  0.00  0.00     0.185 C 
ATOM     24  H1  MS8 d          -1.245  44.066   1.682  0.00  0.00     0.101 H 
BRANCH  23  25
ATOM     25  C   MS8 d          -1.055  43.992  -0.467  0.00  0.00     0.204 C 
ATOM     26  O   MS8 d          -1.023  45.202  -0.777  0.00  0.00    -0.646 OA
ATOM     27  OXT MS8 d          -1.441  43.050  -1.195  0.00  0.00    -0.646 OA
ENDBRANCH  23  25
BRANCH  23  28
ATOM     28  N   MS8 d          -0.526  42.178   1.110  0.00  0.00    -0.065 N 
ATOM     29  H2  MS8 d          -0.445  41.959   2.091  0.00  0.00     0.275 HD
ATOM     30  H3  MS8 d           0.266  41.798   0.616  0.00  0.00     0.275 HD
ATOM     31  H4  MS8 d          -1.374  41.775   0.745  0.00  0.00     0.275 HD
ENDBRANCH  23  28
ENDBRANCH  20  23
ENDBRANCH   1  20
BRANCH   1  32
ATOM     32  CAN MS8 d           0.277  45.295   3.338  0.00  0.00     0.209 C 
ATOM     33  OAC MS8 d          -0.420  46.063   2.638  0.00  0.00    -0.646 OA
ATOM     34  OAE MS8 d           0.295  45.260   4.587  0.00  0.00    -0.646 OA
ENDBRANCH   1  32
TORSDOF 5
ENDMDL
MODEL 2
REMARK VINA RESULT:      -7.0      1.743      2.142
REMARK  5 active torsions:
REMARK  status: ('A' for Active; 'I' for Inactive)
REMARK    1  A    between atoms: C_2  and  CA_4 
REMARK    2  A    between atoms: CA_4  and  N_5 
REMARK    3  A    between atoms: CA_4  and  CB_6 
REMARK    4  A    between atoms: CB_6  and  CAS_7 
REMARK    5  A    between atoms: CAS_7  and  CAN_9 
ROOT
ATOM      1  CAS MS8 d           1.953  44.360   3.668  0.00  0.00     0.154 C 
ATOM      2  CAJ MS8 d           3.430  43.952   3.653  0.00  0.00     0.000 C 
ATOM      3  OAL MS8 d           1.224  43.138   3.506  0.00  0.00    -0.361 OA
ATOM      4  CAR MS8 d           2.042  42.402   2.587  0.00  0.00     0.065 C 
ATOM      5  CAQ MS8 d           3.376  42.462   3.313  0.00  0.00     0.066 C 
ATOM      6  CAH MS8 d           1.534  40.965   2.455  0.00  0.00    -0.036 C 
ATOM      7  CAP MS8 d           1.641  40.226   3.789  0.00  0.00    -0.043 C 
ATOM      8  CAG MS8 d           3.072  40.334   4.314  0.00  0.00     0.020 C 
ATOM      9  OAK MS8 d           3.355  41.723   4.545  0.00  0.00    -0.383 OA
ATOM     10  H7  MS8 d           3.895  44.116   4.638  0.00  0.00     0.042 H 
ATOM     11  H8  MS8 d           3.987  44.512   2.888  0.00  0.00     0.042 H 
ATOM     12  H9  MS8 d           2.089  42.877   1.597  0.00  0.00     0.087 H 
ATOM     13  H10 MS8 d           4.211  42.133   2.676  0.00  0.00     0.087 H 
ATOM     14  H11 MS8 d           2.138  40.438   1.702  0.00  0.00     0.036 H 
ATOM     15  H12 MS8 d           0.482  40.983   2.136  0.00  0.00     0.036 H 
ATOM     16  H13 MS8 d           1.382  39.167   3.644  0.00  0.00     0.036 H 
ATOM     17  H14 MS8 d           0.948  40.677   4.515  0.00  0.00     0.036 H 
ATOM     18  H15 MS8 d           3.774  39.928   3.571  0.00  0.00     0.074 H 
ATOM     19  H16 MS8 d           3.168  39.772   5.255  0.00  0.00     0.074 H 
ENDROOT
BRANCH   1  20
ATOM     20  CB  MS8 d           1.695  45.292   2.482  0.00  0.00     0.010 C 
ATOM     21  H5  MS8 d           2.199  46.252   2.663  0.00  0.00     0.042 H 
ATOM     22  H6  MS8 d           2.100  44.831   1.569  0.00  0.00     0.042 H 
BRANCH  20  23
ATOM     23  CA  MS8 d           0.196  45.543   2.292  0.00  0.00     0.185 C 
ATOM     24  H1  MS8 d           0.030  46.616   2.114  0.00  0.00     0.101 H 
BRANCH  23  25
ATOM     25  C   MS8 d          -0.272  44.750   1.071  0.00  0.00     0.204 C 
ATOM     26  O   MS8 d          -0.983  43.749   1.298  0.00  0.00    -0.646 OA
ATOM     27  OXT MS8 d           0.084  45.167  -0.054  0.00  0.00    -0.646 OA
ENDBRANCH  23  25
BRANCH  23  28
ATOM     28  N   MS8 d          -0.563  45.140   3.484  0.00  0.00    -0.065 N 
ATOM     29  H2  MS8 d          -0.589  45.904   4.141  0.00  0.00     0.275 HD
ATOM     30  H3  MS8 d          -0.118  44.344   3.912  0.00  0.00     0.275 HD
ATOM     31  H4  MS8 d          -1.504  44.895   3.216  0.00  0.00     0.275 HD
ENDBRANCH  23  28
ENDBRANCH  20  23
ENDBRANCH   1  20
BRANCH   1  32
ATOM     32  CAN MS8 d           1.585  45.052   4.982  0.00  0.00     0.209 C 
ATOM     33  OAC MS8 d           1.969  46.233   5.134  0.00  0.00    -0.646 OA
ATOM     34  OAE MS8 d           0.942  44.379   5.816  0.00  0.00    -0.646 OA
ENDBRANCH   1  32
TORSDOF 5
ENDMDL
