MODEL 1
REMARK VINA RESULT:      -6.6      0.000      0.000
REMARK  2 active torsions:
REMARK  status: ('A' for Active; 'I' for Inactive)
REMARK    1  A    between atoms: C0_1  and  C1_2 
REMARK    2  A    between atoms: C0_1  and  N1_3 
ROOT
ATOM      1  C1  ESI d           8.538   0.709  25.338  0.00  0.00     0.049 A 
ATOM      2  S2  ESI d           9.236   1.260  23.817  0.00  0.00    -0.086 SA
ATOM      3  C3  ESI d           9.080   2.941  24.191  0.00  0.00     0.017 A 
ATOM      4  C4  ESI d           8.505   3.039  25.449  0.00  0.00    -0.001 A 
ATOM      5  C5  ESI d           8.217   1.845  26.052  0.00  0.00    -0.050 A 
ATOM      6  C6  ESI d           9.419   4.051  23.452  0.00  0.00    -0.066 A 
ATOM      7  C7  ESI d           9.180   5.303  23.997  0.00  0.00    -0.080 A 
ATOM      8  C8  ESI d           8.615   5.418  25.255  0.00  0.00    -0.066 A 
ATOM      9  C9  ESI d           8.275   4.302  25.998  0.00  0.00     0.018 A 
ATOM     10  I9  ESI d           7.507   4.676  27.840  0.00  0.00    -0.044 I 
ATOM     11  H5  ESI d           7.759   1.795  27.038  0.00  0.00     0.087 H 
ATOM     12  H6  ESI d           9.862   3.950  22.468  0.00  0.00     0.085 H 
ATOM     13  H7  ESI d           9.436   6.194  23.436  0.00  0.00     0.083 H 
ATOM     14  H8  ESI d           8.434   6.404  25.667  0.00  0.00     0.085 H 
ENDROOT
BRANCH   1  15
ATOM     15  C0  ESI d           8.406  -0.625  25.665  0.00  0.00     0.109 C 
ATOM     16  N2  ESI d           8.055  -0.872  26.894  0.00  0.00    -0.385 N 
ATOM     17  H3  ESI d           7.893  -0.095  27.550  0.00  0.00     0.157 HD
ATOM     18  H4  ESI d           7.938  -1.846  27.210  0.00  0.00     0.157 HD
BRANCH  15  19
ATOM     19  N1  ESI d           8.635  -1.526  24.755  0.00  0.00    -0.385 N 
ATOM     20  H1  ESI d           9.399  -1.391  24.078  0.00  0.00     0.157 HD
ATOM     21  H2  ESI d           8.052  -2.373  24.712  0.00  0.00     0.157 HD
ENDBRANCH  15  19
ENDBRANCH   1  15
TORSDOF 2
ENDMDL
MODEL 2
REMARK VINA RESULT:      -4.9      1.946      2.608
REMARK  2 active torsions:
REMARK  status: ('A' for Active; 'I' for Inactive)
REMARK    1  A    between atoms: C0_1  and  C1_2 
REMARK    2  A    between atoms: C0_1  and  N1_3 
ROOT
ATOM      1  C1  ESI d           8.618   0.926  24.821  0.00  0.00     0.049 A 
ATOM      2  S2  ESI d           8.259   1.047  26.542  0.00  0.00    -0.086 SA
ATOM      3  C3  ESI d           8.203   2.775  26.554  0.00  0.00     0.017 A 
ATOM      4  C4  ESI d           8.457   3.212  25.262  0.00  0.00    -0.001 A 
ATOM      5  C5  ESI d           8.681   2.221  24.346  0.00  0.00    -0.050 A 
ATOM      6  C6  ESI d           7.969   3.651  27.589  0.00  0.00    -0.066 A 
ATOM      7  C7  ESI d           7.982   5.010  27.319  0.00  0.00    -0.080 A 
ATOM      8  C8  ESI d           8.226   5.461  26.034  0.00  0.00    -0.066 A 
ATOM      9  C9  ESI d           8.461   4.582  24.993  0.00  0.00     0.018 A 
ATOM     10  I9  ESI d           8.746   5.435  23.173  0.00  0.00    -0.044 I 
ATOM     11  H5  ESI d           8.896   2.440  23.302  0.00  0.00     0.087 H 
ATOM     12  H6  ESI d           7.777   3.286  28.592  0.00  0.00     0.085 H 
ATOM     13  H7  ESI d           7.802   5.721  28.117  0.00  0.00     0.083 H 
ATOM     14  H8  ESI d           8.234   6.527  25.839  0.00  0.00     0.085 H 
ENDROOT
BRANCH   1  15
ATOM     15  C0  ESI d           8.765  -0.279  24.167  0.00  0.00     0.109 C 
ATOM     16  N2  ESI d           8.810  -1.333  24.929  0.00  0.00    -0.385 N 
ATOM     17  H3  ESI d           8.735  -1.233  25.951  0.00  0.00     0.157 HD
ATOM     18  H4  ESI d           8.919  -2.267  24.509  0.00  0.00     0.157 HD
BRANCH  15  19
ATOM     19  N1  ESI d           8.849  -0.289  22.869  0.00  0.00    -0.385 N 
ATOM     20  H1  ESI d           8.366   0.434  22.316  0.00  0.00     0.157 HD
ATOM     21  H2  ESI d           9.397  -1.019  22.394  0.00  0.00     0.157 HD
ENDBRANCH  15  19
ENDBRANCH   1  15
TORSDOF 2
ENDMDL
MODEL 3
REMARK VINA RESULT:      -4.8      2.114      2.904
REMARK  2 active torsions:
REMARK  status: ('A' for Active; 'I' for Inactive)
REMARK    1  A    between atoms: C0_1  and  C1_2 
REMARK    2  A    between atoms: C0_1  and  N1_3 
ROOT
ATOM      1  C1  ESI d           8.788   1.797  24.871  0.00  0.00     0.049 A 
ATOM      2  S2  ESI d           8.335   1.896  26.571  0.00  0.00    -0.086 SA
ATOM      3  C3  ESI d           8.086   3.607  26.551  0.00  0.00     0.017 A 
ATOM      4  C4  ESI d           8.352   4.055  25.265  0.00  0.00    -0.001 A 
ATOM      5  C5  ESI d           8.729   3.085  24.378  0.00  0.00    -0.050 A 
ATOM      6  C6  ESI d           7.706   4.463  27.559  0.00  0.00    -0.066 A 
ATOM      7  C7  ESI d           7.582   5.811  27.268  0.00  0.00    -0.080 A 
ATOM      8  C8  ESI d           7.836   6.273  25.988  0.00  0.00    -0.066 A 
ATOM      9  C9  ESI d           8.217   5.414  24.974  0.00  0.00     0.018 A 
ATOM     10  I9  ESI d           8.493   6.273  23.155  0.00  0.00    -0.044 I 
ATOM     11  H5  ESI d           8.968   3.315  23.341  0.00  0.00     0.087 H 
ATOM     12  H6  ESI d           7.509   4.090  28.558  0.00  0.00     0.085 H 
ATOM     13  H7  ESI d           7.285   6.507  28.044  0.00  0.00     0.083 H 
ATOM     14  H8  ESI d           7.734   7.331  25.776  0.00  0.00     0.085 H 
ENDROOT
BRANCH   1  15
ATOM     15  C0  ESI d           9.099   0.608  24.244  0.00  0.00     0.109 C 
ATOM     16  N2  ESI d          10.185   0.616  23.526  0.00  0.00    -0.385 N 
ATOM     17  H3  ESI d          10.750   1.474  23.457  0.00  0.00     0.157 HD
ATOM     18  H4  ESI d          10.479  -0.236  23.028  0.00  0.00     0.157 HD
BRANCH  15  19
ATOM     19  N1  ESI d           8.312  -0.416  24.401  0.00  0.00    -0.385 N 
ATOM     20  H1  ESI d           7.515  -0.358  25.051  0.00  0.00     0.157 HD
ATOM     21  H2  ESI d           8.486  -1.284  23.876  0.00  0.00     0.157 HD
ENDBRANCH  15  19
ENDBRANCH   1  15
TORSDOF 2
ENDMDL
MODEL 4
REMARK VINA RESULT:      -4.7      1.060      1.180
REMARK  2 active torsions:
REMARK  status: ('A' for Active; 'I' for Inactive)
REMARK    1  A    between atoms: C0_1  and  C1_2 
REMARK    2  A    between atoms: C0_1  and  N1_3 
ROOT
ATOM      1  C1  ESI d           8.759   0.210  24.234  0.00  0.00     0.049 A 
ATOM      2  S2  ESI d           9.647   0.964  22.911  0.00  0.00    -0.086 SA
ATOM      3  C3  ESI d           9.646   2.541  23.620  0.00  0.00     0.017 A 
ATOM      4  C4  ESI d           8.976   2.455  24.832  0.00  0.00    -0.001 A 
ATOM      5  C5  ESI d           8.504   1.211  25.149  0.00  0.00    -0.050 A 
ATOM      6  C6  ESI d          10.170   3.725  23.156  0.00  0.00    -0.066 A 
ATOM      7  C7  ESI d          10.025   4.861  23.936  0.00  0.00    -0.080 A 
ATOM      8  C8  ESI d           9.366   4.791  25.151  0.00  0.00    -0.066 A 
ATOM      9  C9  ESI d           8.839   3.600  25.619  0.00  0.00     0.018 A 
ATOM     10  I9  ESI d           7.957   3.690  27.445  0.00  0.00    -0.044 I 
ATOM     11  H5  ESI d           7.958   1.021  26.072  0.00  0.00     0.087 H 
ATOM     12  H6  ESI d          10.686   3.768  22.203  0.00  0.00     0.085 H 
ATOM     13  H7  ESI d          10.428   5.807  23.594  0.00  0.00     0.083 H 
ATOM     14  H8  ESI d           9.261   5.688  25.750  0.00  0.00     0.085 H 
ENDROOT
BRANCH   1  15
ATOM     15  C0  ESI d           8.451  -1.134  24.263  0.00  0.00     0.109 C 
ATOM     16  N2  ESI d           7.942  -1.572  25.378  0.00  0.00    -0.385 N 
ATOM     17  H3  ESI d           7.793  -0.925  26.165  0.00  0.00     0.157 HD
ATOM     18  H4  ESI d           7.689  -2.566  25.473  0.00  0.00     0.157 HD
BRANCH  15  19
ATOM     19  N1  ESI d           8.682  -1.860  23.208  0.00  0.00    -0.385 N 
ATOM     20  H1  ESI d           8.986  -1.412  22.332  0.00  0.00     0.157 HD
ATOM     21  H2  ESI d           8.561  -2.881  23.250  0.00  0.00     0.157 HD
ENDBRANCH  15  19
ENDBRANCH   1  15
TORSDOF 2
ENDMDL
MODEL 5
REMARK VINA RESULT:      -4.3      3.323      4.427
REMARK  2 active torsions:
REMARK  status: ('A' for Active; 'I' for Inactive)
REMARK    1  A    between atoms: C0_1  and  C1_2 
REMARK    2  A    between atoms: C0_1  and  N1_3 
ROOT
ATOM      1  C1  ESI d           8.230   4.108  26.074  0.00  0.00     0.049 A 
ATOM      2  S2  ESI d           9.034   4.630  24.596  0.00  0.00    -0.086 SA
ATOM      3  C3  ESI d           9.242   3.029  23.975  0.00  0.00     0.017 A 
ATOM      4  C4  ESI d           8.701   2.148  24.900  0.00  0.00    -0.001 A 
ATOM      5  C5  ESI d           8.167   2.731  26.016  0.00  0.00    -0.050 A 
ATOM      6  C6  ESI d           9.825   2.597  22.807  0.00  0.00    -0.066 A 
ATOM      7  C7  ESI d           9.861   1.235  22.553  0.00  0.00    -0.080 A 
ATOM      8  C8  ESI d           9.318   0.343  23.461  0.00  0.00    -0.066 A 
ATOM      9  C9  ESI d           8.731   0.778  24.635  0.00  0.00     0.018 A 
ATOM     10  I9  ESI d           7.945  -0.679  25.812  0.00  0.00    -0.044 I 
ATOM     11  H5  ESI d           7.718   2.142  26.814  0.00  0.00     0.087 H 
ATOM     12  H6  ESI d          10.247   3.305  22.102  0.00  0.00     0.085 H 
ATOM     13  H7  ESI d          10.315   0.868  21.640  0.00  0.00     0.083 H 
ATOM     14  H8  ESI d           9.354  -0.719  23.247  0.00  0.00     0.085 H 
ENDROOT
BRANCH   1  15
ATOM     15  C0  ESI d           7.768   4.989  27.030  0.00  0.00     0.109 C 
ATOM     16  N2  ESI d           7.193   4.449  28.064  0.00  0.00    -0.385 N 
ATOM     17  H3  ESI d           7.109   3.424  28.131  0.00  0.00     0.157 HD
ATOM     18  H4  ESI d           6.822   5.045  28.818  0.00  0.00     0.157 HD
BRANCH  15  19
ATOM     19  N1  ESI d           7.928   6.267  26.843  0.00  0.00    -0.385 N 
ATOM     20  H1  ESI d           7.920   6.910  27.648  0.00  0.00     0.157 HD
ATOM     21  H2  ESI d           8.062   6.635  25.892  0.00  0.00     0.157 HD
ENDBRANCH  15  19
ENDBRANCH   1  15
TORSDOF 2
ENDMDL
MODEL 6
REMARK VINA RESULT:      -3.9      3.726      5.337
REMARK  2 active torsions:
REMARK  status: ('A' for Active; 'I' for Inactive)
REMARK    1  A    between atoms: C0_1  and  C1_2 
REMARK    2  A    between atoms: C0_1  and  N1_3 
ROOT
ATOM      1  C1  ESI d           9.123   3.308  24.257  0.00  0.00     0.049 A 
ATOM      2  S2  ESI d           8.709   3.155  25.963  0.00  0.00    -0.086 SA
ATOM      3  C3  ESI d           8.460   1.446  25.895  0.00  0.00     0.017 A 
ATOM      4  C4  ESI d           8.694   1.039  24.590  0.00  0.00    -0.001 A 
ATOM      5  C5  ESI d           9.043   2.038  23.723  0.00  0.00    -0.050 A 
ATOM      6  C6  ESI d           8.090   0.561  26.882  0.00  0.00    -0.066 A 
ATOM      7  C7  ESI d           7.958  -0.778  26.550  0.00  0.00    -0.080 A 
ATOM      8  C8  ESI d           8.196  -1.201  25.255  0.00  0.00    -0.066 A 
ATOM      9  C9  ESI d           8.568  -0.312  24.263  0.00  0.00     0.018 A 
ATOM     10  I9  ESI d           8.923  -1.132  22.440  0.00  0.00    -0.044 I 
ATOM     11  H5  ESI d           9.247   1.842  22.672  0.00  0.00     0.087 H 
ATOM     12  H6  ESI d           7.907   0.903  27.895  0.00  0.00     0.085 H 
ATOM     13  H7  ESI d           7.667  -1.496  27.309  0.00  0.00     0.083 H 
ATOM     14  H8  ESI d           8.088  -2.252  25.012  0.00  0.00     0.085 H 
ENDROOT
BRANCH   1  15
ATOM     15  C0  ESI d           9.469   4.509  23.672  0.00  0.00     0.109 C 
ATOM     16  N2  ESI d           9.084   4.667  22.440  0.00  0.00    -0.385 N 
ATOM     17  H3  ESI d           8.554   3.922  21.965  0.00  0.00     0.157 HD
ATOM     18  H4  ESI d           9.308   5.539  21.938  0.00  0.00     0.157 HD
BRANCH  15  19
ATOM     19  N1  ESI d          10.140   5.381  24.366  0.00  0.00    -0.385 N 
ATOM     20  H1  ESI d           9.862   6.373  24.354  0.00  0.00     0.157 HD
ATOM     21  H2  ESI d          10.949   5.080  24.927  0.00  0.00     0.157 HD
ENDBRANCH  15  19
ENDBRANCH   1  15
TORSDOF 2
ENDMDL
