MODEL 1
REMARK VINA RESULT:     -11.2      0.000      0.000
REMARK  1 active torsions:
REMARK  status: ('A' for Active; 'I' for Inactive)
REMARK    1  A    between atoms: CAI_24  and  OAJ_25 
ROOT
ATOM      1  CAV SY9 d         -42.668   7.235 -16.965  0.00  0.00     0.118 C 
ATOM      2  CAU SY9 d         -41.766   6.864 -18.148  0.00  0.00    -0.030 C 
ATOM      3  CAT SY9 d         -40.569   6.065 -17.654  0.00  0.00    -0.021 C 
ATOM      4  CAN SY9 d         -41.069   4.738 -17.081  0.00  0.00    -0.001 C 
ATOM      5  CAK SY9 d         -42.033   4.931 -15.916  0.00  0.00     0.034 C 
ATOM      6  NAH SY9 d         -42.826   3.693 -15.867  0.00  0.00    -0.347 N 
ATOM      7  CAA SY9 d         -44.176   3.928 -16.113  0.00  0.00     0.040 A 
ATOM      8  CAF SY9 d         -45.206   3.004 -16.302  0.00  0.00    -0.057 A 
ATOM      9  CAE SY9 d         -46.484   3.431 -16.624  0.00  0.00    -0.081 A 
ATOM     10  CAD SY9 d         -46.715   4.789 -16.798  0.00  0.00    -0.082 A 
ATOM     11  CAC SY9 d         -45.682   5.711 -16.644  0.00  0.00    -0.074 A 
ATOM     12  CAB SY9 d         -44.396   5.285 -16.345  0.00  0.00    -0.019 A 
ATOM     13  CAG SY9 d         -43.087   6.047 -16.056  0.00  0.00     0.040 C 
ATOM     14  CAW SY9 d         -43.306   6.736 -14.710  0.00  0.00    -0.027 C 
ATOM     15  CAX SY9 d         -42.064   7.616 -14.660  0.00  0.00     0.085 C 
ATOM     16  NAY SY9 d         -41.945   8.167 -16.038  0.00  0.00    -0.062 N 
ATOM     17  CAS SY9 d         -40.501   8.293 -16.308  0.00  0.00     0.104 C 
ATOM     18  CAR SY9 d         -39.930   6.908 -16.592  0.00  0.00    -0.051 C 
ATOM     19  CAQ SY9 d         -38.858   6.548 -15.793  0.00  0.00    -0.076 C 
ATOM     20  CAP SY9 d         -38.252   5.302 -15.920  0.00  0.00     0.035 C 
ATOM     21  OAO SY9 d         -39.043   4.119 -15.656  0.00  0.00    -0.382 OA
ATOM     22  CAM SY9 d         -39.982   3.722 -16.653  0.00  0.00     0.049 C 
ATOM     23  CAL SY9 d         -40.601   2.494 -15.896  0.00  0.00     0.000 C 
ATOM     24  CAI SY9 d         -42.131   2.493 -15.940  0.00  0.00     0.105 C 
ATOM     25  H1  SY9 d         -43.571   7.720 -17.364  0.00  0.00     0.086 H 
ATOM     26  H2  SY9 d         -41.414   7.782 -18.640  0.00  0.00     0.037 H 
ATOM     27  H3  SY9 d         -42.337   6.259 -18.867  0.00  0.00     0.037 H 
ATOM     28  H4  SY9 d         -39.859   5.875 -18.472  0.00  0.00     0.048 H 
ATOM     29  H5  SY9 d         -41.635   4.260 -17.894  0.00  0.00     0.048 H 
ATOM     30  H6  SY9 d         -41.458   5.086 -14.992  0.00  0.00     0.075 H 
ATOM     31  H7  SY9 d         -45.004   1.945 -16.195  0.00  0.00     0.086 H 
ATOM     32  H8  SY9 d         -47.291   2.716 -16.739  0.00  0.00     0.083 H 
ATOM     33  H9  SY9 d         -47.708   5.136 -17.057  0.00  0.00     0.083 H 
ATOM     34  H10 SY9 d         -45.884   6.770 -16.757  0.00  0.00     0.084 H 
ATOM     35  H11 SY9 d         -43.328   6.015 -13.880  0.00  0.00     0.037 H 
ATOM     36  H12 SY9 d         -44.230   7.333 -14.703  0.00  0.00     0.037 H 
ATOM     37  H13 SY9 d         -41.175   7.022 -14.401  0.00  0.00     0.076 H 
ATOM     38  H14 SY9 d         -42.191   8.426 -13.927  0.00  0.00     0.076 H 
ATOM     39  H15 SY9 d         -42.373   9.078 -16.093  0.00  0.00     0.280 HD
ATOM     40  H16 SY9 d         -39.997   8.727 -15.432  0.00  0.00     0.083 H 
ATOM     41  H17 SY9 d         -40.344   8.942 -17.182  0.00  0.00     0.083 H 
ATOM     42  H18 SY9 d         -38.484   7.253 -15.051  0.00  0.00     0.080 H 
ATOM     43  H19 SY9 d         -37.399   5.284 -15.226  0.00  0.00     0.080 H 
ATOM     44  H20 SY9 d         -37.884   5.224 -16.953  0.00  0.00     0.080 H 
ATOM     45  H21 SY9 d         -39.451   3.405 -17.563  0.00  0.00     0.084 H 
ATOM     46  H22 SY9 d         -40.277   2.527 -14.845  0.00  0.00     0.043 H 
ATOM     47  H23 SY9 d         -40.233   1.569 -16.364  0.00  0.00     0.043 H 
ATOM     48  H24 SY9 d         -42.124   2.524 -17.039  0.00  0.00     0.117 H 
ENDROOT
BRANCH  24  49
ATOM     49  OAJ SY9 d         -42.836   1.328 -15.942  0.00  0.00    -0.377 OA
ATOM     50  H25 SY9 d         -43.637   1.443 -15.443  0.00  0.00     0.212 HD
ENDBRANCH  24  49
TORSDOF 1
ENDMDL
MODEL 2
REMARK VINA RESULT:     -10.7      1.298      4.828
REMARK  1 active torsions:
REMARK  status: ('A' for Active; 'I' for Inactive)
REMARK    1  A    between atoms: CAI_24  and  OAJ_25 
ROOT
ATOM      1  CAV SY9 d         -41.514   7.275 -16.015  0.00  0.00     0.118 C 
ATOM      2  CAU SY9 d         -42.357   7.147 -14.741  0.00  0.00    -0.030 C 
ATOM      3  CAT SY9 d         -43.497   6.166 -14.972  0.00  0.00    -0.021 C 
ATOM      4  CAN SY9 d         -42.906   4.777 -15.220  0.00  0.00    -0.001 C 
ATOM      5  CAK SY9 d         -41.986   4.743 -16.435  0.00  0.00     0.034 C 
ATOM      6  NAH SY9 d         -41.098   3.592 -16.210  0.00  0.00    -0.347 N 
ATOM      7  CAA SY9 d         -39.766   3.977 -16.086  0.00  0.00     0.040 A 
ATOM      8  CAF SY9 d         -38.661   3.206 -15.718  0.00  0.00    -0.057 A 
ATOM      9  CAE SY9 d         -37.415   3.791 -15.564  0.00  0.00    -0.081 A 
ATOM     10  CAD SY9 d         -37.290   5.163 -15.740  0.00  0.00    -0.082 A 
ATOM     11  CAC SY9 d         -38.397   5.940 -16.075  0.00  0.00    -0.074 A 
ATOM     12  CAB SY9 d         -39.650   5.361 -16.205  0.00  0.00    -0.019 A 
ATOM     13  CAG SY9 d         -41.022   5.931 -16.619  0.00  0.00     0.040 C 
ATOM     14  CAW SY9 d         -40.889   6.277 -18.101  0.00  0.00    -0.027 C 
ATOM     15  CAX SY9 d         -42.198   7.025 -18.315  0.00  0.00     0.085 C 
ATOM     16  NAY SY9 d         -42.330   7.892 -17.112  0.00  0.00    -0.062 N 
ATOM     17  CAS SY9 d         -43.773   7.976 -16.822  0.00  0.00     0.104 C 
ATOM     18  CAR SY9 d         -44.226   6.669 -16.182  0.00  0.00    -0.051 C 
ATOM     19  CAQ SY9 d         -45.282   6.045 -16.823  0.00  0.00    -0.076 C 
ATOM     20  CAP SY9 d         -45.784   4.829 -16.367  0.00  0.00     0.035 C 
ATOM     21  OAO SY9 d         -44.906   3.678 -16.363  0.00  0.00    -0.382 OA
ATOM     22  CAM SY9 d         -43.917   3.611 -15.339  0.00  0.00     0.049 C 
ATOM     23  CAL SY9 d         -43.219   2.281 -15.794  0.00  0.00     0.000 C 
ATOM     24  CAI SY9 d         -41.693   2.401 -15.814  0.00  0.00     0.105 C 
ATOM     25  H1  SY9 d         -40.645   7.908 -15.785  0.00  0.00     0.086 H 
ATOM     26  H2  SY9 d         -42.770   8.131 -14.476  0.00  0.00     0.037 H 
ATOM     27  H3  SY9 d         -41.724   6.783 -13.918  0.00  0.00     0.037 H 
ATOM     28  H4  SY9 d         -44.172   6.135 -14.103  0.00  0.00     0.048 H 
ATOM     29  H5  SY9 d         -42.285   4.559 -14.338  0.00  0.00     0.048 H 
ATOM     30  H6  SY9 d         -42.593   4.621 -17.345  0.00  0.00     0.075 H 
ATOM     31  H7  SY9 d         -38.780   2.142 -15.551  0.00  0.00     0.086 H 
ATOM     32  H8  SY9 d         -36.551   3.187 -15.309  0.00  0.00     0.083 H 
ATOM     33  H9  SY9 d         -36.322   5.634 -15.616  0.00  0.00     0.083 H 
ATOM     34  H10 SY9 d         -38.277   7.006 -16.234  0.00  0.00     0.084 H 
ATOM     35  H11 SY9 d         -40.828   5.375 -18.727  0.00  0.00     0.037 H 
ATOM     36  H12 SY9 d         -40.016   6.918 -18.294  0.00  0.00     0.037 H 
ATOM     37  H13 SY9 d         -43.042   6.322 -18.383  0.00  0.00     0.076 H 
ATOM     38  H14 SY9 d         -42.153   7.634 -19.230  0.00  0.00     0.076 H 
ATOM     39  H15 SY9 d         -41.975   8.816 -17.302  0.00  0.00     0.280 HD
ATOM     40  H16 SY9 d         -44.329   8.141 -17.757  0.00  0.00     0.083 H 
ATOM     41  H17 SY9 d         -43.963   8.810 -16.130  0.00  0.00     0.083 H 
ATOM     42  H18 SY9 d         -45.728   6.514 -17.699  0.00  0.00     0.080 H 
ATOM     43  H19 SY9 d         -46.648   4.577 -16.999  0.00  0.00     0.080 H 
ATOM     44  H20 SY9 d         -46.121   4.985 -15.332  0.00  0.00     0.080 H 
ATOM     45  H21 SY9 d         -44.401   3.494 -14.357  0.00  0.00     0.084 H 
ATOM     46  H22 SY9 d         -43.567   2.028 -16.806  0.00  0.00     0.043 H 
ATOM     47  H23 SY9 d         -43.500   1.477 -15.097  0.00  0.00     0.043 H 
ATOM     48  H24 SY9 d         -41.678   2.705 -14.757  0.00  0.00     0.117 H 
ENDROOT
BRANCH  24  49
ATOM     49  OAJ SY9 d         -40.897   1.328 -15.555  0.00  0.00    -0.377 OA
ATOM     50  H25 SY9 d         -40.702   1.296 -14.625  0.00  0.00     0.212 HD
ENDBRANCH  24  49
TORSDOF 1
ENDMDL
MODEL 3
REMARK VINA RESULT:      -8.3      2.277      3.953
REMARK  1 active torsions:
REMARK  status: ('A' for Active; 'I' for Inactive)
REMARK    1  A    between atoms: CAI_24  and  OAJ_25 
ROOT
ATOM      1  CAV SY9 d         -41.013   5.271 -15.086  0.00  0.00     0.118 C 
ATOM      2  CAU SY9 d         -41.420   6.430 -14.168  0.00  0.00    -0.030 C 
ATOM      3  CAT SY9 d         -41.815   7.637 -15.005  0.00  0.00    -0.021 C 
ATOM      4  CAN SY9 d         -43.067   7.286 -15.811  0.00  0.00    -0.001 C 
ATOM      5  CAK SY9 d         -42.846   6.102 -16.746  0.00  0.00     0.034 C 
ATOM      6  NAH SY9 d         -44.189   5.549 -16.986  0.00  0.00    -0.347 N 
ATOM      7  CAA SY9 d         -44.312   4.249 -16.504  0.00  0.00     0.040 A 
ATOM      8  CAF SY9 d         -45.456   3.456 -16.406  0.00  0.00    -0.057 A 
ATOM      9  CAE SY9 d         -45.396   2.205 -15.813  0.00  0.00    -0.081 A 
ATOM     10  CAD SY9 d         -44.189   1.771 -15.281  0.00  0.00    -0.082 A 
ATOM     11  CAC SY9 d         -43.053   2.574 -15.347  0.00  0.00    -0.074 A 
ATOM     12  CAB SY9 d         -43.116   3.837 -15.918  0.00  0.00    -0.019 A 
ATOM     13  CAG SY9 d         -42.043   4.910 -16.191  0.00  0.00     0.040 C 
ATOM     14  CAW SY9 d         -41.149   4.324 -17.282  0.00  0.00    -0.027 C 
ATOM     15  CAX SY9 d         -40.029   5.356 -17.288  0.00  0.00     0.085 C 
ATOM     16  NAY SY9 d         -39.771   5.629 -15.848  0.00  0.00    -0.062 N 
ATOM     17  CAS SY9 d         -39.393   7.052 -15.760  0.00  0.00     0.104 C 
ATOM     18  CAR SY9 d         -40.648   7.905 -15.907  0.00  0.00    -0.051 C 
ATOM     19  CAQ SY9 d         -40.588   8.856 -16.912  0.00  0.00    -0.076 C 
ATOM     20  CAP SY9 d         -41.670   9.689 -17.180  0.00  0.00     0.035 C 
ATOM     21  OAO SY9 d         -42.914   9.087 -17.613  0.00  0.00    -0.382 OA
ATOM     22  CAM SY9 d         -43.707   8.438 -16.623  0.00  0.00     0.049 C 
ATOM     23  CAL SY9 d         -44.852   7.920 -17.564  0.00  0.00     0.000 C 
ATOM     24  CAI SY9 d         -45.196   6.450 -17.308  0.00  0.00     0.105 C 
ATOM     25  H1  SY9 d         -40.832   4.387 -14.458  0.00  0.00     0.086 H 
ATOM     26  H2  SY9 d         -40.573   6.696 -13.520  0.00  0.00     0.037 H 
ATOM     27  H3  SY9 d         -42.273   6.121 -13.547  0.00  0.00     0.037 H 
ATOM     28  H4  SY9 d         -42.015   8.510 -14.366  0.00  0.00     0.048 H 
ATOM     29  H5  SY9 d         -43.818   6.976 -15.069  0.00  0.00     0.048 H 
ATOM     30  H6  SY9 d         -42.377   6.458 -17.676  0.00  0.00     0.075 H 
ATOM     31  H7  SY9 d         -46.399   3.821 -16.796  0.00  0.00     0.086 H 
ATOM     32  H8  SY9 d         -46.278   1.575 -15.766  0.00  0.00     0.083 H 
ATOM     33  H9  SY9 d         -44.130   0.797 -14.809  0.00  0.00     0.083 H 
ATOM     34  H10 SY9 d         -42.113   2.209 -14.950  0.00  0.00     0.084 H 
ATOM     35  H11 SY9 d         -41.665   4.278 -18.252  0.00  0.00     0.037 H 
ATOM     36  H12 SY9 d         -40.781   3.323 -17.014  0.00  0.00     0.037 H 
ATOM     37  H13 SY9 d         -40.347   6.273 -17.807  0.00  0.00     0.076 H 
ATOM     38  H14 SY9 d         -39.130   4.951 -17.775  0.00  0.00     0.076 H 
ATOM     39  H15 SY9 d         -39.007   5.062 -15.512  0.00  0.00     0.280 HD
ATOM     40  H16 SY9 d         -38.684   7.297 -16.564  0.00  0.00     0.083 H 
ATOM     41  H17 SY9 d         -38.925   7.250 -14.784  0.00  0.00     0.083 H 
ATOM     42  H18 SY9 d         -39.678   8.952 -17.503  0.00  0.00     0.080 H 
ATOM     43  H19 SY9 d         -41.354  10.386 -17.970  0.00  0.00     0.080 H 
ATOM     44  H20 SY9 d         -41.883  10.251 -16.259  0.00  0.00     0.080 H 
ATOM     45  H21 SY9 d         -44.086   9.178 -15.901  0.00  0.00     0.084 H 
ATOM     46  H22 SY9 d         -44.527   8.030 -18.609  0.00  0.00     0.043 H 
ATOM     47  H23 SY9 d         -45.752   8.528 -17.393  0.00  0.00     0.043 H 
ATOM     48  H24 SY9 d         -45.397   6.656 -16.246  0.00  0.00     0.117 H 
ENDROOT
BRANCH  24  49
ATOM     49  OAJ SY9 d         -46.459   5.978 -17.493  0.00  0.00    -0.377 OA
ATOM     50  H25 SY9 d         -46.939   6.574 -18.057  0.00  0.00     0.212 HD
ENDBRANCH  24  49
TORSDOF 1
ENDMDL
MODEL 4
REMARK VINA RESULT:      -8.3      2.206      4.323
REMARK  1 active torsions:
REMARK  status: ('A' for Active; 'I' for Inactive)
REMARK    1  A    between atoms: CAI_24  and  OAJ_25 
ROOT
ATOM      1  CAV SY9 d         -41.069   6.292 -15.934  0.00  0.00     0.118 C 
ATOM      2  CAU SY9 d         -41.722   7.174 -14.864  0.00  0.00    -0.030 C 
ATOM      3  CAT SY9 d         -42.936   7.881 -15.448  0.00  0.00    -0.021 C 
ATOM      4  CAN SY9 d         -43.985   6.830 -15.816  0.00  0.00    -0.001 C 
ATOM      5  CAK SY9 d         -43.471   5.827 -16.843  0.00  0.00     0.034 C 
ATOM      6  NAH SY9 d         -44.308   4.631 -16.661  0.00  0.00    -0.347 N 
ATOM      7  CAA SY9 d         -43.563   3.531 -16.246  0.00  0.00     0.040 A 
ATOM      8  CAF SY9 d         -44.011   2.277 -15.825  0.00  0.00    -0.057 A 
ATOM      9  CAE SY9 d         -43.114   1.328 -15.363  0.00  0.00    -0.081 A 
ATOM     10  CAD SY9 d         -41.767   1.658 -15.286  0.00  0.00    -0.082 A 
ATOM     11  CAC SY9 d         -41.321   2.919 -15.674  0.00  0.00    -0.074 A 
ATOM     12  CAB SY9 d         -42.220   3.880 -16.113  0.00  0.00    -0.019 A 
ATOM     13  CAG SY9 d         -42.031   5.310 -16.658  0.00  0.00     0.040 C 
ATOM     14  CAW SY9 d         -41.353   5.142 -18.017  0.00  0.00    -0.027 C 
ATOM     15  CAX SY9 d         -41.023   6.596 -18.327  0.00  0.00     0.085 C 
ATOM     16  NAY SY9 d         -40.518   7.144 -17.039  0.00  0.00    -0.062 N 
ATOM     17  CAS SY9 d         -40.951   8.553 -16.993  0.00  0.00     0.104 C 
ATOM     18  CAR SY9 d         -42.439   8.601 -16.666  0.00  0.00    -0.051 C 
ATOM     19  CAQ SY9 d         -43.210   9.307 -17.574  0.00  0.00    -0.076 C 
ATOM     20  CAP SY9 d         -44.589   9.413 -17.419  0.00  0.00     0.035 C 
ATOM     21  OAO SY9 d         -45.383   8.202 -17.454  0.00  0.00    -0.382 OA
ATOM     22  CAM SY9 d         -45.355   7.366 -16.299  0.00  0.00     0.049 C 
ATOM     23  CAL SY9 d         -46.272   6.213 -16.841  0.00  0.00     0.000 C 
ATOM     24  CAI SY9 d         -45.681   4.826 -16.576  0.00  0.00     0.105 C 
ATOM     25  H1  SY9 d         -40.261   5.719 -15.456  0.00  0.00     0.086 H 
ATOM     26  H2  SY9 d         -40.996   7.923 -14.516  0.00  0.00     0.037 H 
ATOM     27  H3  SY9 d         -42.037   6.548 -14.017  0.00  0.00     0.037 H 
ATOM     28  H4  SY9 d         -43.361   8.595 -14.727  0.00  0.00     0.048 H 
ATOM     29  H5  SY9 d         -44.182   6.272 -14.889  0.00  0.00     0.048 H 
ATOM     30  H6  SY9 d         -43.579   6.254 -17.851  0.00  0.00     0.075 H 
ATOM     31  H7  SY9 d         -45.069   2.045 -15.860  0.00  0.00     0.086 H 
ATOM     32  H8  SY9 d         -43.458   0.343 -15.067  0.00  0.00     0.083 H 
ATOM     33  H9  SY9 d         -41.056   0.926 -14.920  0.00  0.00     0.083 H 
ATOM     34  H10 SY9 d         -40.263   3.152 -15.632  0.00  0.00     0.084 H 
ATOM     35  H11 SY9 d         -42.036   4.711 -18.763  0.00  0.00     0.037 H 
ATOM     36  H12 SY9 d         -40.447   4.523 -17.947  0.00  0.00     0.037 H 
ATOM     37  H13 SY9 d         -41.922   7.138 -18.656  0.00  0.00     0.076 H 
ATOM     38  H14 SY9 d         -40.250   6.661 -19.107  0.00  0.00     0.076 H 
ATOM     39  H15 SY9 d         -39.511   7.106 -17.009  0.00  0.00     0.280 HD
ATOM     40  H16 SY9 d         -40.773   9.027 -17.970  0.00  0.00     0.083 H 
ATOM     41  H17 SY9 d         -40.386   9.088 -16.216  0.00  0.00     0.083 H 
ATOM     42  H18 SY9 d         -42.728   9.788 -18.424  0.00  0.00     0.080 H 
ATOM     43  H19 SY9 d         -44.957  10.065 -18.224  0.00  0.00     0.080 H 
ATOM     44  H20 SY9 d         -44.771   9.893 -16.446  0.00  0.00     0.080 H 
ATOM     45  H21 SY9 d         -45.823   7.885 -15.450  0.00  0.00     0.084 H 
ATOM     46  H22 SY9 d         -46.399   6.343 -17.925  0.00  0.00     0.043 H 
ATOM     47  H23 SY9 d         -47.252   6.279 -16.346  0.00  0.00     0.043 H 
ATOM     48  H24 SY9 d         -45.620   5.030 -15.497  0.00  0.00     0.117 H 
ENDROOT
BRANCH  24  49
ATOM     49  OAJ SY9 d         -46.482   3.746 -16.364  0.00  0.00    -0.377 OA
ATOM     50  H25 SY9 d         -46.086   2.977 -16.758  0.00  0.00     0.212 HD
ENDBRANCH  24  49
TORSDOF 1
ENDMDL
