MODEL 1
REMARK VINA RESULT:      -5.9      0.000      0.000
REMARK  5 active torsions:
REMARK  status: ('A' for Active; 'I' for Inactive)
REMARK    1  A    between atoms: C2_2  and  O2_8 
REMARK    2  A    between atoms: C3_3  and  O3_9 
REMARK    3  A    between atoms: C4_4  and  O4_10 
REMARK    4  A    between atoms: C5_5  and  C6_6 
REMARK    5  A    between atoms: C6_6  and  O6_12 
ROOT
ATOM      1  C1  MOL d         -10.339 -29.685 -28.887  0.00  0.00     0.291 C 
ATOM      2  C2  MOL d         -11.426 -28.873 -28.165  0.00  0.00     0.146 C 
ATOM      3  C3  MOL d         -10.917 -28.430 -26.794  0.00  0.00     0.096 C 
ATOM      4  C4  MOL d         -10.385 -29.628 -26.011  0.00  0.00     0.090 C 
ATOM      5  C5  MOL d          -9.104 -30.124 -26.708  0.00  0.00     0.095 C 
ATOM      6  O1  MOL d         -10.398 -29.840 -30.080  0.00  0.00    -0.262 OA
ATOM      7  O5  MOL d          -9.289 -30.246 -28.177  0.00  0.00    -0.309 OA
ATOM      8  H1  MOL d         -12.324 -29.497 -28.042  0.00  0.00     0.103 H 
ATOM      9  H2  MOL d         -10.107 -27.699 -26.927  0.00  0.00     0.091 H 
ATOM     10  H3  MOL d         -10.156 -29.325 -24.979  0.00  0.00     0.091 H 
ATOM     11  H4  MOL d          -8.296 -29.405 -26.508  0.00  0.00     0.091 H 
ENDROOT
BRANCH   5  12
ATOM     12  C6  MOL d          -8.703 -31.497 -26.169  0.00  0.00     0.044 C 
ATOM     13  H5  MOL d          -7.658 -31.703 -26.444  0.00  0.00     0.078 H 
ATOM     14  H6  MOL d          -9.356 -32.265 -26.609  0.00  0.00     0.078 H 
BRANCH  12  15
ATOM     15  O6  MOL d          -8.831 -31.526 -24.749  0.00  0.00    -0.398 OA
ATOM     16  H10 MOL d          -8.053 -31.918 -24.370  0.00  0.00     0.209 HD
ENDBRANCH  12  15
ENDBRANCH   5  12
BRANCH   4  17
ATOM     17  O4  MOL d         -11.365 -30.675 -25.996  0.00  0.00    -0.390 OA
ATOM     18  H9  MOL d         -12.093 -30.418 -25.443  0.00  0.00     0.210 HD
ENDBRANCH   4  17
BRANCH   3  19
ATOM     19  O3  MOL d         -11.982 -27.826 -26.087  0.00  0.00    -0.390 OA
ATOM     20  H8  MOL d         -11.633 -27.317 -25.365  0.00  0.00     0.210 HD
ENDBRANCH   3  19
BRANCH   2  21
ATOM     21  O2  MOL d         -11.755 -27.701 -28.928  0.00  0.00    -0.383 OA
ATOM     22  H7  MOL d         -11.647 -27.886 -29.853  0.00  0.00     0.210 HD
ENDBRANCH   2  21
TORSDOF 5
ENDMDL
MODEL 2
REMARK VINA RESULT:      -5.4      1.446      3.927
REMARK  5 active torsions:
REMARK  status: ('A' for Active; 'I' for Inactive)
REMARK    1  A    between atoms: C2_2  and  O2_8 
REMARK    2  A    between atoms: C3_3  and  O3_9 
REMARK    3  A    between atoms: C4_4  and  O4_10 
REMARK    4  A    between atoms: C5_5  and  C6_6 
REMARK    5  A    between atoms: C6_6  and  O6_12 
ROOT
ATOM      1  C1  MOL d         -10.849 -27.834 -26.595  0.00  0.00     0.291 C 
ATOM      2  C2  MOL d          -9.973 -28.887 -25.900  0.00  0.00     0.146 C 
ATOM      3  C3  MOL d          -9.012 -29.513 -26.911  0.00  0.00     0.096 C 
ATOM      4  C4  MOL d          -9.780 -30.019 -28.130  0.00  0.00     0.090 C 
ATOM      5  C5  MOL d         -10.331 -28.798 -28.890  0.00  0.00     0.095 C 
ATOM      6  O1  MOL d         -11.422 -27.003 -25.939  0.00  0.00    -0.262 OA
ATOM      7  O5  MOL d         -10.988 -27.830 -27.974  0.00  0.00    -0.309 OA
ATOM      8  H1  MOL d         -10.617 -29.669 -25.469  0.00  0.00     0.103 H 
ATOM      9  H2  MOL d          -8.283 -28.756 -27.236  0.00  0.00     0.091 H 
ATOM     10  H3  MOL d          -9.105 -30.592 -28.783  0.00  0.00     0.091 H 
ATOM     11  H4  MOL d          -9.495 -28.297 -29.400  0.00  0.00     0.091 H 
ENDROOT
BRANCH   5  12
ATOM     12  C6  MOL d         -11.364 -29.238 -29.928  0.00  0.00     0.044 C 
ATOM     13  H5  MOL d         -11.669 -28.368 -30.527  0.00  0.00     0.078 H 
ATOM     14  H6  MOL d         -12.241 -29.656 -29.412  0.00  0.00     0.078 H 
BRANCH  12  15
ATOM     15  O6  MOL d         -10.807 -30.230 -30.788  0.00  0.00    -0.398 OA
ATOM     16  H10 MOL d         -10.547 -29.827 -31.608  0.00  0.00     0.209 HD
ENDBRANCH  12  15
ENDBRANCH   5  12
BRANCH   4  17
ATOM     17  O4  MOL d         -10.865 -30.859 -27.710  0.00  0.00    -0.390 OA
ATOM     18  H9  MOL d         -10.810 -30.999 -26.772  0.00  0.00     0.210 HD
ENDBRANCH   4  17
BRANCH   3  19
ATOM     19  O3  MOL d          -8.332 -30.584 -26.290  0.00  0.00    -0.390 OA
ATOM     20  H8  MOL d          -7.744 -30.990 -26.916  0.00  0.00     0.210 HD
ENDBRANCH   3  19
BRANCH   2  21
ATOM     21  O2  MOL d          -9.196 -28.274 -24.857  0.00  0.00    -0.383 OA
ATOM     22  H7  MOL d          -9.505 -28.581 -24.012  0.00  0.00     0.210 HD
ENDBRANCH   2  21
TORSDOF 5
ENDMDL
MODEL 3
REMARK VINA RESULT:      -4.6      1.245      4.182
REMARK  5 active torsions:
REMARK  status: ('A' for Active; 'I' for Inactive)
REMARK    1  A    between atoms: C2_2  and  O2_8 
REMARK    2  A    between atoms: C3_3  and  O3_9 
REMARK    3  A    between atoms: C4_4  and  O4_10 
REMARK    4  A    between atoms: C5_5  and  C6_6 
REMARK    5  A    between atoms: C6_6  and  O6_12 
ROOT
ATOM      1  C1  MOL d         -11.340 -30.896 -26.195  0.00  0.00     0.291 C 
ATOM      2  C2  MOL d          -9.805 -30.841 -26.186  0.00  0.00     0.146 C 
ATOM      3  C3  MOL d          -9.335 -29.417 -26.484  0.00  0.00     0.096 C 
ATOM      4  C4  MOL d          -9.989 -28.899 -27.763  0.00  0.00     0.090 C 
ATOM      5  C5  MOL d         -11.493 -28.714 -27.490  0.00  0.00     0.095 C 
ATOM      6  O1  MOL d         -11.911 -31.815 -25.666  0.00  0.00    -0.262 OA
ATOM      7  O5  MOL d         -12.079 -29.897 -26.809  0.00  0.00    -0.309 OA
ATOM      8  H1  MOL d          -9.412 -31.528 -26.951  0.00  0.00     0.103 H 
ATOM      9  H2  MOL d          -9.613 -28.761 -25.647  0.00  0.00     0.091 H 
ATOM     10  H3  MOL d          -9.539 -27.936 -28.046  0.00  0.00     0.091 H 
ATOM     11  H4  MOL d         -11.626 -27.830 -26.849  0.00  0.00     0.091 H 
ENDROOT
BRANCH   5  12
ATOM     12  C6  MOL d         -12.250 -28.504 -28.802  0.00  0.00     0.044 C 
ATOM     13  H5  MOL d         -13.122 -27.859 -28.618  0.00  0.00     0.078 H 
ATOM     14  H6  MOL d         -12.588 -29.478 -29.186  0.00  0.00     0.078 H 
BRANCH  12  15
ATOM     15  O6  MOL d         -11.402 -27.885 -29.767  0.00  0.00    -0.398 OA
ATOM     16  H10 MOL d         -10.585 -27.631 -29.353  0.00  0.00     0.209 HD
ENDBRANCH  12  15
ENDBRANCH   5  12
BRANCH   4  17
ATOM     17  O4  MOL d          -9.801 -29.845 -28.825  0.00  0.00    -0.390 OA
ATOM     18  H9  MOL d          -9.869 -30.726 -28.478  0.00  0.00     0.210 HD
ENDBRANCH   4  17
BRANCH   3  19
ATOM     19  O3  MOL d          -7.929 -29.423 -26.629  0.00  0.00    -0.390 OA
ATOM     20  H8  MOL d          -7.695 -29.009 -27.451  0.00  0.00     0.210 HD
ENDBRANCH   3  19
BRANCH   2  21
ATOM     21  O2  MOL d          -9.304 -31.222 -24.894  0.00  0.00    -0.383 OA
ATOM     22  H7  MOL d          -9.811 -30.788 -24.219  0.00  0.00     0.210 HD
ENDBRANCH   2  21
TORSDOF 5
ENDMDL
MODEL 4
REMARK VINA RESULT:      -4.4      1.227      2.840
REMARK  5 active torsions:
REMARK  status: ('A' for Active; 'I' for Inactive)
REMARK    1  A    between atoms: C2_2  and  O2_8 
REMARK    2  A    between atoms: C3_3  and  O3_9 
REMARK    3  A    between atoms: C4_4  and  O4_10 
REMARK    4  A    between atoms: C5_5  and  C6_6 
REMARK    5  A    between atoms: C6_6  and  O6_12 
ROOT
ATOM      1  C1  MOL d         -11.672 -28.255 -27.281  0.00  0.00     0.291 C 
ATOM      2  C2  MOL d         -11.297 -28.393 -28.764  0.00  0.00     0.146 C 
ATOM      3  C3  MOL d         -10.819 -29.816 -29.048  0.00  0.00     0.096 C 
ATOM      4  C4  MOL d          -9.717 -30.213 -28.067  0.00  0.00     0.090 C 
ATOM      5  C5  MOL d         -10.346 -30.334 -26.666  0.00  0.00     0.095 C 
ATOM      6  O1  MOL d         -12.373 -27.343 -26.921  0.00  0.00    -0.262 OA
ATOM      7  O5  MOL d         -11.211 -29.170 -26.348  0.00  0.00    -0.309 OA
ATOM      8  H1  MOL d         -10.495 -27.678 -29.004  0.00  0.00     0.103 H 
ATOM      9  H2  MOL d         -11.664 -30.512 -28.939  0.00  0.00     0.091 H 
ATOM     10  H3  MOL d          -9.282 -31.177 -28.367  0.00  0.00     0.091 H 
ATOM     11  H4  MOL d         -10.953 -31.251 -26.633  0.00  0.00     0.091 H 
ENDROOT
BRANCH   5  12
ATOM     12  C6  MOL d          -9.254 -30.415 -25.599  0.00  0.00     0.044 C 
ATOM     13  H5  MOL d          -8.457 -31.089 -25.945  0.00  0.00     0.078 H 
ATOM     14  H6  MOL d          -9.687 -30.807 -24.666  0.00  0.00     0.078 H 
BRANCH  12  15
ATOM     15  O6  MOL d          -8.705 -29.122 -25.356  0.00  0.00    -0.398 OA
ATOM     16  H10 MOL d          -8.821 -28.896 -24.440  0.00  0.00     0.209 HD
ENDBRANCH  12  15
ENDBRANCH   5  12
BRANCH   4  17
ATOM     17  O4  MOL d          -8.692 -29.209 -28.053  0.00  0.00    -0.390 OA
ATOM     18  H9  MOL d          -8.732 -28.729 -27.235  0.00  0.00     0.210 HD
ENDBRANCH   4  17
BRANCH   3  19
ATOM     19  O3  MOL d         -10.330 -29.877 -30.373  0.00  0.00    -0.390 OA
ATOM     20  H8  MOL d         -11.042 -30.092 -30.962  0.00  0.00     0.210 HD
ENDBRANCH   3  19
BRANCH   2  21
ATOM     21  O2  MOL d         -12.442 -28.126 -29.591  0.00  0.00    -0.383 OA
ATOM     22  H7  MOL d         -13.098 -27.666 -29.081  0.00  0.00     0.210 HD
ENDBRANCH   2  21
TORSDOF 5
ENDMDL
MODEL 5
REMARK VINA RESULT:      -4.4      1.358      2.519
REMARK  5 active torsions:
REMARK  status: ('A' for Active; 'I' for Inactive)
REMARK    1  A    between atoms: C2_2  and  O2_8 
REMARK    2  A    between atoms: C3_3  and  O3_9 
REMARK    3  A    between atoms: C4_4  and  O4_10 
REMARK    4  A    between atoms: C5_5  and  C6_6 
REMARK    5  A    between atoms: C6_6  and  O6_12 
ROOT
ATOM      1  C1  MOL d         -11.395 -30.126 -26.304  0.00  0.00     0.291 C 
ATOM      2  C2  MOL d         -11.046 -28.902 -27.165  0.00  0.00     0.146 C 
ATOM      3  C3  MOL d          -9.941 -29.265 -28.156  0.00  0.00     0.096 C 
ATOM      4  C4  MOL d          -8.757 -29.895 -27.426  0.00  0.00     0.090 C 
ATOM      5  C5  MOL d          -9.202 -31.269 -26.891  0.00  0.00     0.095 C 
ATOM      6  O1  MOL d         -12.441 -30.161 -25.708  0.00  0.00    -0.262 OA
ATOM      7  O5  MOL d         -10.517 -31.193 -26.204  0.00  0.00    -0.309 OA
ATOM      8  H1  MOL d         -10.704 -28.084 -26.513  0.00  0.00     0.103 H 
ATOM      9  H2  MOL d         -10.333 -29.983 -28.891  0.00  0.00     0.091 H 
ATOM     10  H3  MOL d          -7.915 -30.021 -28.122  0.00  0.00     0.091 H 
ATOM     11  H4  MOL d          -9.281 -31.966 -27.738  0.00  0.00     0.091 H 
ENDROOT
BRANCH   5  12
ATOM     12  C6  MOL d          -8.179 -31.807 -25.890  0.00  0.00     0.044 C 
ATOM     13  H5  MOL d          -7.239 -31.247 -25.996  0.00  0.00     0.078 H 
ATOM     14  H6  MOL d          -7.996 -32.873 -26.096  0.00  0.00     0.078 H 
BRANCH  12  15
ATOM     15  O6  MOL d          -8.667 -31.661 -24.559  0.00  0.00    -0.398 OA
ATOM     16  H10 MOL d          -9.598 -31.473 -24.582  0.00  0.00     0.209 HD
ENDBRANCH  12  15
ENDBRANCH   5  12
BRANCH   4  17
ATOM     17  O4  MOL d          -8.354 -29.057 -26.334  0.00  0.00    -0.390 OA
ATOM     18  H9  MOL d          -9.043 -28.429 -26.148  0.00  0.00     0.210 HD
ENDBRANCH   4  17
BRANCH   3  19
ATOM     19  O3  MOL d          -9.525 -28.091 -28.825  0.00  0.00    -0.390 OA
ATOM     20  H8  MOL d          -8.644 -27.866 -28.550  0.00  0.00     0.210 HD
ENDBRANCH   3  19
BRANCH   2  21
ATOM     21  O2  MOL d         -12.199 -28.475 -27.909  0.00  0.00    -0.383 OA
ATOM     22  H7  MOL d         -12.441 -29.151 -28.531  0.00  0.00     0.210 HD
ENDBRANCH   2  21
TORSDOF 5
ENDMDL
MODEL 6
REMARK VINA RESULT:      -4.0      1.297      3.453
REMARK  5 active torsions:
REMARK  status: ('A' for Active; 'I' for Inactive)
REMARK    1  A    between atoms: C2_2  and  O2_8 
REMARK    2  A    between atoms: C3_3  and  O3_9 
REMARK    3  A    between atoms: C4_4  and  O4_10 
REMARK    4  A    between atoms: C5_5  and  C6_6 
REMARK    5  A    between atoms: C6_6  and  O6_12 
ROOT
ATOM      1  C1  MOL d         -10.343 -29.837 -28.789  0.00  0.00     0.291 C 
ATOM      2  C2  MOL d          -9.296 -30.296 -27.763  0.00  0.00     0.146 C 
ATOM      3  C3  MOL d          -9.938 -30.401 -26.379  0.00  0.00     0.096 C 
ATOM      4  C4  MOL d         -10.655 -29.100 -26.026  0.00  0.00     0.090 C 
ATOM      5  C5  MOL d         -11.873 -28.957 -26.959  0.00  0.00     0.095 C 
ATOM      6  O1  MOL d         -10.147 -30.009 -29.965  0.00  0.00    -0.262 OA
ATOM      7  O5  MOL d         -11.515 -29.222 -28.376  0.00  0.00    -0.309 OA
ATOM      8  H1  MOL d          -8.471 -29.568 -27.734  0.00  0.00     0.103 H 
ATOM      9  H2  MOL d         -10.666 -31.224 -26.378  0.00  0.00     0.091 H 
ATOM     10  H3  MOL d         -10.989 -29.132 -24.979  0.00  0.00     0.091 H 
ATOM     11  H4  MOL d         -12.641 -29.677 -26.643  0.00  0.00     0.091 H 
ENDROOT
BRANCH   5  12
ATOM     12  C6  MOL d         -12.443 -27.541 -26.875  0.00  0.00     0.044 C 
ATOM     13  H5  MOL d         -13.476 -27.544 -27.254  0.00  0.00     0.078 H 
ATOM     14  H6  MOL d         -11.829 -26.865 -27.488  0.00  0.00     0.078 H 
BRANCH  12  15
ATOM     15  O6  MOL d         -12.439 -27.087 -25.523  0.00  0.00    -0.398 OA
ATOM     16  H10 MOL d         -11.586 -27.251 -25.138  0.00  0.00     0.209 HD
ENDBRANCH  12  15
ENDBRANCH   5  12
BRANCH   4  17
ATOM     17  O4  MOL d          -9.769 -27.988 -26.212  0.00  0.00    -0.390 OA
ATOM     18  H9  MOL d          -9.121 -27.980 -25.517  0.00  0.00     0.210 HD
ENDBRANCH   4  17
BRANCH   3  19
ATOM     19  O3  MOL d          -8.927 -30.668 -25.428  0.00  0.00    -0.390 OA
ATOM     20  H8  MOL d          -8.104 -30.823 -25.877  0.00  0.00     0.210 HD
ENDBRANCH   3  19
BRANCH   2  21
ATOM     21  O2  MOL d          -8.784 -31.590 -28.124  0.00  0.00    -0.383 OA
ATOM     22  H7  MOL d          -7.940 -31.488 -28.548  0.00  0.00     0.210 HD
ENDBRANCH   2  21
TORSDOF 5
ENDMDL
MODEL 7
REMARK VINA RESULT:      -3.2      1.057      2.663
REMARK  5 active torsions:
REMARK  status: ('A' for Active; 'I' for Inactive)
REMARK    1  A    between atoms: C2_2  and  O2_8 
REMARK    2  A    between atoms: C3_3  and  O3_9 
REMARK    3  A    between atoms: C4_4  and  O4_10 
REMARK    4  A    between atoms: C5_5  and  C6_6 
REMARK    5  A    between atoms: C6_6  and  O6_12 
ROOT
ATOM      1  C1  MOL d         -11.572 -28.938 -26.312  0.00  0.00     0.291 C 
ATOM      2  C2  MOL d         -11.242 -28.170 -27.601  0.00  0.00     0.146 C 
ATOM      3  C3  MOL d         -10.641 -29.124 -28.633  0.00  0.00     0.096 C 
ATOM      4  C4  MOL d          -9.470 -29.893 -28.026  0.00  0.00     0.090 C 
ATOM      5  C5  MOL d         -10.029 -30.852 -26.958  0.00  0.00     0.095 C 
ATOM      6  O1  MOL d         -12.343 -28.468 -25.515  0.00  0.00    -0.262 OA
ATOM      7  O5  MOL d         -10.990 -30.168 -26.054  0.00  0.00    -0.309 OA
ATOM      8  H1  MOL d         -10.523 -27.369 -27.373  0.00  0.00     0.103 H 
ATOM      9  H2  MOL d         -11.410 -29.839 -28.958  0.00  0.00     0.091 H 
ATOM     10  H3  MOL d          -8.955 -30.467 -28.811  0.00  0.00     0.091 H 
ATOM     11  H4  MOL d         -10.544 -31.680 -27.467  0.00  0.00     0.091 H 
ENDROOT
BRANCH   5  12
ATOM     12  C6  MOL d          -8.895 -31.413 -26.101  0.00  0.00     0.044 C 
ATOM     13  H5  MOL d          -7.929 -31.121 -26.540  0.00  0.00     0.078 H 
ATOM     14  H6  MOL d          -8.969 -32.511 -26.074  0.00  0.00     0.078 H 
BRANCH  12  15
ATOM     15  O6  MOL d          -8.981 -30.903 -24.772  0.00  0.00    -0.398 OA
ATOM     16  H10 MOL d          -9.643 -30.222 -24.738  0.00  0.00     0.209 HD
ENDBRANCH  12  15
ENDBRANCH   5  12
BRANCH   4  17
ATOM     17  O4  MOL d          -8.546 -28.978 -27.420  0.00  0.00    -0.390 OA
ATOM     18  H9  MOL d          -8.462 -28.206 -27.967  0.00  0.00     0.210 HD
ENDBRANCH   4  17
BRANCH   3  19
ATOM     19  O3  MOL d         -10.199 -28.371 -29.745  0.00  0.00    -0.390 OA
ATOM     20  H8  MOL d         -10.136 -27.456 -29.501  0.00  0.00     0.210 HD
ENDBRANCH   3  19
BRANCH   2  21
ATOM     21  O2  MOL d         -12.438 -27.598 -28.156  0.00  0.00    -0.383 OA
ATOM     22  H7  MOL d         -12.349 -27.535 -29.100  0.00  0.00     0.210 HD
ENDBRANCH   2  21
TORSDOF 5
ENDMDL
