MODEL 1
REMARK VINA RESULT:      -8.4      0.000      0.000
REMARK  4 active torsions:
REMARK  status: ('A' for Active; 'I' for Inactive)
REMARK    1  A    between atoms: S5_2  and  N21_4 
REMARK    2  A    between atoms: S5_2  and  C5_12 
REMARK    3  A    between atoms: C22_5  and  C2M_6 
REMARK    4  A    between atoms: C4_14  and  CM_15 
ROOT
ATOM      1  N21 H52 d          10.173   9.416   3.673  0.00  0.00    -0.301 N 
ATOM      2  C22 H52 d          10.502   7.946   3.888  0.00  0.00     0.042 C 
ATOM      3  C23 H52 d          11.960   7.530   3.656  0.00  0.00     0.100 C 
ATOM      4  N24 H52 d          12.811   8.192   4.721  0.00  0.00    -0.073 N 
ATOM      5  C25 H52 d          13.359   9.500   4.172  0.00  0.00     0.083 C 
ATOM      6  C26 H52 d          12.315  10.629   4.108  0.00  0.00    -0.027 C 
ATOM      7  C27 H52 d          11.214  10.312   3.104  0.00  0.00     0.007 C 
ATOM      8  H1  H52 d          10.313   7.770   4.958  0.00  0.00     0.075 H 
ATOM      9  H5  H52 d          12.288   7.858   2.658  0.00  0.00     0.078 H 
ATOM     10  H6  H52 d          12.052   6.436   3.730  0.00  0.00     0.078 H 
ATOM     11  H7  H52 d          13.575   7.584   4.969  0.00  0.00     0.277 HD
ATOM     12  H8  H52 d          12.249   8.377   5.537  0.00  0.00     0.277 HD
ATOM     13  H9  H52 d          13.736   9.318   3.155  0.00  0.00     0.075 H 
ATOM     14  H10 H52 d          14.187   9.828   4.817  0.00  0.00     0.075 H 
ATOM     15  H11 H52 d          12.815  11.563   3.808  0.00  0.00     0.037 H 
ATOM     16  H12 H52 d          11.865  10.757   5.104  0.00  0.00     0.037 H 
ATOM     17  H13 H52 d          10.738  11.254   2.792  0.00  0.00     0.065 H 
ATOM     18  H14 H52 d          11.664   9.821   2.229  0.00  0.00     0.065 H 
ENDROOT
BRANCH   1  19
ATOM     19  S5  H52 d           8.785  10.012   4.482  0.00  0.00     0.262 S 
ATOM     20  O1  H52 d           8.918  11.410   4.974  0.00  0.00    -0.200 OA
ATOM     21  O2  H52 d           8.470   8.971   5.468  0.00  0.00    -0.200 OA
BRANCH  19  22
ATOM     22  C5  H52 d           7.443   9.942   3.308  0.00  0.00     0.091 A 
ATOM     23  C10 H52 d           6.004   9.954   3.619  0.00  0.00     0.006 A 
ATOM     24  C4  H52 d           5.313  10.096   4.891  0.00  0.00    -0.032 A 
ATOM     25  C9  H52 d           5.117   9.796   2.513  0.00  0.00    -0.006 A 
ATOM     26  C3  H52 d           3.938  10.047   4.980  0.00  0.00     0.008 A 
ATOM     27  N2  H52 d           3.162   9.859   3.893  0.00  0.00    -0.272 NA
ATOM     28  H22 H52 d           3.468  10.162   5.949  0.00  0.00     0.115 H 
ATOM     29  C1  H52 d           3.702   9.771   2.702  0.00  0.00     0.013 A 
ATOM     30  H21 H52 d           3.056   9.676   1.836  0.00  0.00     0.116 H 
ATOM     31  C8  H52 d           5.615   9.647   1.188  0.00  0.00    -0.071 A 
ATOM     32  C7  H52 d           6.959   9.638   0.941  0.00  0.00    -0.081 A 
ATOM     33  H18 H52 d           4.920   9.540   0.364  0.00  0.00     0.084 H 
ATOM     34  C6  H52 d           7.878   9.759   2.012  0.00  0.00    -0.059 A 
ATOM     35  H19 H52 d           7.322   9.540  -0.076  0.00  0.00     0.083 H 
ATOM     36  H20 H52 d           8.941   9.706   1.810  0.00  0.00     0.085 H 
BRANCH  24  37
ATOM     37  CM  H52 d           5.930  10.326   6.236  0.00  0.00    -0.049 C 
ATOM     38  H15 H52 d           5.222  10.875   6.875  0.00  0.00     0.033 H 
ATOM     39  H16 H52 d           6.852  10.914   6.121  0.00  0.00     0.033 H 
ATOM     40  H17 H52 d           6.169   9.358   6.701  0.00  0.00     0.033 H 
ENDBRANCH  24  37
ENDBRANCH  19  22
ENDBRANCH   1  19
BRANCH   2  41
ATOM     41  C2M H52 d           9.580   6.999   3.139  0.00  0.00    -0.055 C 
ATOM     42  H2  H52 d           9.717   5.976   3.518  0.00  0.00     0.030 H 
ATOM     43  H3  H52 d           9.820   7.027   2.066  0.00  0.00     0.030 H 
ATOM     44  H4  H52 d           8.536   7.309   3.289  0.00  0.00     0.030 H 
ENDBRANCH   2  41
TORSDOF 4
ENDMDL
MODEL 2
REMARK VINA RESULT:      -7.9      2.395      3.147
REMARK  4 active torsions:
REMARK  status: ('A' for Active; 'I' for Inactive)
REMARK    1  A    between atoms: S5_2  and  N21_4 
REMARK    2  A    between atoms: S5_2  and  C5_12 
REMARK    3  A    between atoms: C22_5  and  C2M_6 
REMARK    4  A    between atoms: C4_14  and  CM_15 
ROOT
ATOM      1  N21 H52 d          11.094   9.101   2.095  0.00  0.00    -0.301 N 
ATOM      2  C22 H52 d          11.744   9.718   0.865  0.00  0.00     0.042 C 
ATOM      3  C23 H52 d          13.213  10.134   1.004  0.00  0.00     0.100 C 
ATOM      4  N24 H52 d          14.041   8.878   1.190  0.00  0.00    -0.073 N 
ATOM      5  C25 H52 d          14.231   8.628   2.677  0.00  0.00     0.083 C 
ATOM      6  C26 H52 d          12.977   8.071   3.376  0.00  0.00    -0.027 C 
ATOM      7  C27 H52 d          11.845   9.090   3.378  0.00  0.00     0.007 C 
ATOM      8  H1  H52 d          11.736   8.915   0.112  0.00  0.00     0.075 H 
ATOM      9  H5  H52 d          13.333  10.793   1.877  0.00  0.00     0.078 H 
ATOM     10  H6  H52 d          13.538  10.666   0.097  0.00  0.00     0.078 H 
ATOM     11  H7  H52 d          14.940   8.998   0.749  0.00  0.00     0.277 HD
ATOM     12  H8  H52 d          13.564   8.095   0.773  0.00  0.00     0.277 HD
ATOM     13  H9  H52 d          14.503   9.580   3.157  0.00  0.00     0.075 H 
ATOM     14  H10 H52 d          15.050   7.906   2.806  0.00  0.00     0.075 H 
ATOM     15  H11 H52 d          13.231   7.815   4.415  0.00  0.00     0.037 H 
ATOM     16  H12 H52 d          12.645   7.167   2.845  0.00  0.00     0.037 H 
ATOM     17  H13 H52 d          11.148   8.842   4.193  0.00  0.00     0.065 H 
ATOM     18  H14 H52 d          12.268  10.090   3.549  0.00  0.00     0.065 H 
ENDROOT
BRANCH   1  19
ATOM     19  S5  H52 d           9.730   8.102   1.816  0.00  0.00     0.262 S 
ATOM     20  O1  H52 d           9.627   6.938   2.737  0.00  0.00    -0.200 OA
ATOM     21  O2  H52 d           9.776   7.827   0.374  0.00  0.00    -0.200 OA
BRANCH  19  22
ATOM     22  C5  H52 d           8.291   9.134   2.031  0.00  0.00     0.091 A 
ATOM     23  C10 H52 d           7.626   9.458   3.304  0.00  0.00     0.006 A 
ATOM     24  C4  H52 d           7.979   9.110   4.671  0.00  0.00    -0.032 A 
ATOM     25  C9  H52 d           6.431  10.234   3.213  0.00  0.00    -0.006 A 
ATOM     26  C3  H52 d           7.197   9.486   5.742  0.00  0.00     0.008 A 
ATOM     27  N2  H52 d           6.059  10.191   5.578  0.00  0.00    -0.272 NA
ATOM     28  H22 H52 d           7.504   9.207   6.743  0.00  0.00     0.115 H 
ATOM     29  C1  H52 d           5.693  10.587   4.383  0.00  0.00     0.013 A 
ATOM     30  H21 H52 d           4.805  11.200   4.280  0.00  0.00     0.116 H 
ATOM     31  C8  H52 d           5.934  10.670   1.954  0.00  0.00    -0.071 A 
ATOM     32  C7  H52 d           6.579  10.346   0.793  0.00  0.00    -0.081 A 
ATOM     33  H18 H52 d           5.030  11.267   1.914  0.00  0.00     0.084 H 
ATOM     34  C6  H52 d           7.749   9.549   0.833  0.00  0.00    -0.059 A 
ATOM     35  H19 H52 d           6.195  10.699  -0.157  0.00  0.00     0.083 H 
ATOM     36  H20 H52 d           8.228   9.261  -0.096  0.00  0.00     0.085 H 
BRANCH  24  37
ATOM     37  CM  H52 d           9.187   8.351   5.128  0.00  0.00    -0.049 C 
ATOM     38  H15 H52 d           9.605   8.833   6.025  0.00  0.00     0.033 H 
ATOM     39  H16 H52 d           9.943   8.347   4.329  0.00  0.00     0.033 H 
ATOM     40  H17 H52 d           8.901   7.316   5.368  0.00  0.00     0.033 H 
ENDBRANCH  24  37
ENDBRANCH  19  22
ENDBRANCH   1  19
BRANCH   2  41
ATOM     41  C2M H52 d          10.947  10.863   0.264  0.00  0.00    -0.055 C 
ATOM     42  H2  H52 d          10.349  11.347   1.051  0.00  0.00     0.030 H 
ATOM     43  H3  H52 d          10.278  10.474  -0.517  0.00  0.00     0.030 H 
ATOM     44  H4  H52 d          11.637  11.598  -0.176  0.00  0.00     0.030 H 
ENDBRANCH   2  41
TORSDOF 4
ENDMDL
MODEL 3
REMARK VINA RESULT:      -7.7      0.967      2.159
REMARK  4 active torsions:
REMARK  status: ('A' for Active; 'I' for Inactive)
REMARK    1  A    between atoms: S5_2  and  N21_4 
REMARK    2  A    between atoms: S5_2  and  C5_12 
REMARK    3  A    between atoms: C22_5  and  C2M_6 
REMARK    4  A    between atoms: C4_14  and  CM_15 
ROOT
ATOM      1  N21 H52 d          10.334   9.447   3.797  0.00  0.00    -0.301 N 
ATOM      2  C22 H52 d          10.997  10.349   2.765  0.00  0.00     0.042 C 
ATOM      3  C23 H52 d          11.876   9.657   1.716  0.00  0.00     0.100 C 
ATOM      4  N24 H52 d          10.980   8.801   0.843  0.00  0.00    -0.073 N 
ATOM      5  C25 H52 d          10.960   7.386   1.396  0.00  0.00     0.083 C 
ATOM      6  C26 H52 d          10.104   7.229   2.666  0.00  0.00    -0.027 C 
ATOM      7  C27 H52 d          10.698   8.006   3.835  0.00  0.00     0.007 C 
ATOM      8  H1  H52 d          10.160  10.791   2.203  0.00  0.00     0.075 H 
ATOM      9  H5  H52 d          12.625   9.025   2.215  0.00  0.00     0.078 H 
ATOM     10  H6  H52 d          12.386  10.413   1.101  0.00  0.00     0.078 H 
ATOM     11  H7  H52 d          11.336   8.792  -0.099  0.00  0.00     0.277 HD
ATOM     12  H8  H52 d          10.045   9.179   0.846  0.00  0.00     0.277 HD
ATOM     13  H9  H52 d          11.993   7.091   1.634  0.00  0.00     0.075 H 
ATOM     14  H10 H52 d          10.557   6.716   0.622  0.00  0.00     0.075 H 
ATOM     15  H11 H52 d          10.053   6.163   2.934  0.00  0.00     0.037 H 
ATOM     16  H12 H52 d           9.091   7.606   2.464  0.00  0.00     0.037 H 
ATOM     17  H13 H52 d          10.326   7.571   4.774  0.00  0.00     0.065 H 
ATOM     18  H14 H52 d          11.794   7.916   3.799  0.00  0.00     0.065 H 
ENDROOT
BRANCH   1  19
ATOM     19  S5  H52 d           8.926  10.062   4.554  0.00  0.00     0.262 S 
ATOM     20  O1  H52 d           9.050  11.468   5.024  0.00  0.00    -0.200 OA
ATOM     21  O2  H52 d           8.578   9.039   5.549  0.00  0.00    -0.200 OA
BRANCH  19  22
ATOM     22  C5  H52 d           7.618   9.974   3.344  0.00  0.00     0.091 A 
ATOM     23  C10 H52 d           6.171   9.973   3.615  0.00  0.00     0.006 A 
ATOM     24  C4  H52 d           5.442  10.113   4.866  0.00  0.00    -0.032 A 
ATOM     25  C9  H52 d           5.316   9.802   2.484  0.00  0.00    -0.006 A 
ATOM     26  C3  H52 d           4.066  10.051   4.916  0.00  0.00     0.008 A 
ATOM     27  N2  H52 d           3.323   9.852   3.809  0.00  0.00    -0.272 NA
ATOM     28  H22 H52 d           3.568  10.164   5.872  0.00  0.00     0.115 H 
ATOM     29  C1  H52 d           3.897   9.764   2.634  0.00  0.00     0.013 A 
ATOM     30  H21 H52 d           3.276   9.659   1.751  0.00  0.00     0.116 H 
ATOM     31  C8  H52 d           5.853   9.654   1.175  0.00  0.00    -0.071 A 
ATOM     32  C7  H52 d           7.203   9.657   0.965  0.00  0.00    -0.081 A 
ATOM     33  H18 H52 d           5.181   9.536   0.332  0.00  0.00     0.084 H 
ATOM     34  C6  H52 d           8.090   9.790   2.061  0.00  0.00    -0.059 A 
ATOM     35  H19 H52 d           7.595   9.558  -0.040  0.00  0.00     0.083 H 
ATOM     36  H20 H52 d           9.159   9.747   1.889  0.00  0.00     0.085 H 
BRANCH  24  37
ATOM     37  CM  H52 d           6.020  10.354   6.227  0.00  0.00    -0.049 C 
ATOM     38  H15 H52 d           6.445   9.417   6.616  0.00  0.00     0.033 H 
ATOM     39  H16 H52 d           5.228  10.706   6.904  0.00  0.00     0.033 H 
ATOM     40  H17 H52 d           6.810  11.116   6.160  0.00  0.00     0.033 H 
ENDBRANCH  24  37
ENDBRANCH  19  22
ENDBRANCH   1  19
BRANCH   2  41
ATOM     41  C2M H52 d          11.756  11.515   3.373  0.00  0.00    -0.055 C 
ATOM     42  H2  H52 d          12.810  11.234   3.513  0.00  0.00     0.030 H 
ATOM     43  H3  H52 d          11.314  11.772   4.347  0.00  0.00     0.030 H 
ATOM     44  H4  H52 d          11.694  12.383   2.701  0.00  0.00     0.030 H 
ENDBRANCH   2  41
TORSDOF 4
ENDMDL
MODEL 4
REMARK VINA RESULT:      -7.4      2.380      3.828
REMARK  4 active torsions:
REMARK  status: ('A' for Active; 'I' for Inactive)
REMARK    1  A    between atoms: S5_2  and  N21_4 
REMARK    2  A    between atoms: S5_2  and  C5_12 
REMARK    3  A    between atoms: C22_5  and  C2M_6 
REMARK    4  A    between atoms: C4_14  and  CM_15 
ROOT
ATOM      1  N21 H52 d          11.846   9.226   2.609  0.00  0.00    -0.301 N 
ATOM      2  C22 H52 d          12.562  10.398   1.954  0.00  0.00     0.042 C 
ATOM      3  C23 H52 d          14.085  10.282   1.821  0.00  0.00     0.100 C 
ATOM      4  N24 H52 d          14.387   9.158   0.850  0.00  0.00    -0.073 N 
ATOM      5  C25 H52 d          14.607   7.875   1.634  0.00  0.00     0.083 C 
ATOM      6  C26 H52 d          13.308   7.247   2.172  0.00  0.00    -0.027 C 
ATOM      7  C27 H52 d          12.654   8.137   3.220  0.00  0.00     0.007 C 
ATOM      8  H1  H52 d          12.177  10.420   0.923  0.00  0.00     0.075 H 
ATOM      9  H5  H52 d          14.529  10.056   2.802  0.00  0.00     0.078 H 
ATOM     10  H6  H52 d          14.500  11.227   1.440  0.00  0.00     0.078 H 
ATOM     11  H7  H52 d          15.217   9.380   0.324  0.00  0.00     0.277 HD
ATOM     12  H8  H52 d          13.610   9.039   0.219  0.00  0.00     0.277 HD
ATOM     13  H9  H52 d          15.265   8.098   2.487  0.00  0.00     0.075 H 
ATOM     14  H10 H52 d          15.099   7.145   0.974  0.00  0.00     0.075 H 
ATOM     15  H11 H52 d          13.543   6.272   2.626  0.00  0.00     0.037 H 
ATOM     16  H12 H52 d          12.608   7.103   1.336  0.00  0.00     0.037 H 
ATOM     17  H13 H52 d          11.996   7.519   3.849  0.00  0.00     0.065 H 
ATOM     18  H14 H52 d          13.441   8.588   3.843  0.00  0.00     0.065 H 
ENDROOT
BRANCH   1  19
ATOM     19  S5  H52 d          10.185   9.040   2.232  0.00  0.00     0.262 S 
ATOM     20  O1  H52 d           9.809   7.672   1.785  0.00  0.00    -0.200 OA
ATOM     21  O2  H52 d           9.897  10.157   1.323  0.00  0.00    -0.200 OA
BRANCH  19  22
ATOM     22  C5  H52 d           9.279   9.427   3.720  0.00  0.00     0.091 A 
ATOM     23  C10 H52 d           7.844   9.742   3.817  0.00  0.00     0.006 A 
ATOM     24  C4  H52 d           6.807   9.752   2.797  0.00  0.00    -0.032 A 
ATOM     25  C9  H52 d           7.363  10.109   5.109  0.00  0.00    -0.006 A 
ATOM     26  C3  H52 d           5.509  10.114   3.085  0.00  0.00     0.008 A 
ATOM     27  N2  H52 d           5.133  10.484   4.326  0.00  0.00    -0.272 NA
ATOM     28  H22 H52 d           4.770  10.102   2.292  0.00  0.00     0.115 H 
ATOM     29  C1  H52 d           5.994  10.456   5.314  0.00  0.00     0.013 A 
ATOM     30  H21 H52 d           5.656  10.704   6.314  0.00  0.00     0.116 H 
ATOM     31  C8  H52 d           8.236  10.151   6.232  0.00  0.00    -0.071 A 
ATOM     32  C7  H52 d           9.564   9.853   6.101  0.00  0.00    -0.081 A 
ATOM     33  H18 H52 d           7.844  10.422   7.205  0.00  0.00     0.084 H 
ATOM     34  C6  H52 d          10.092   9.517   4.830  0.00  0.00    -0.059 A 
ATOM     35  H19 H52 d          10.212   9.875   6.969  0.00  0.00     0.083 H 
ATOM     36  H20 H52 d          11.154   9.326   4.729  0.00  0.00     0.085 H 
BRANCH  24  37
ATOM     37  CM  H52 d           6.953   9.375   1.355  0.00  0.00    -0.049 C 
ATOM     38  H15 H52 d           6.985  10.286   0.739  0.00  0.00     0.033 H 
ATOM     39  H16 H52 d           6.096   8.756   1.049  0.00  0.00     0.033 H 
ATOM     40  H17 H52 d           7.884   8.806   1.216  0.00  0.00     0.033 H 
ENDBRANCH  24  37
ENDBRANCH  19  22
ENDBRANCH   1  19
BRANCH   2  41
ATOM     41  C2M H52 d          12.208  11.745   2.561  0.00  0.00    -0.055 C 
ATOM     42  H2  H52 d          12.901  11.970   3.384  0.00  0.00     0.030 H 
ATOM     43  H3  H52 d          11.179  11.714   2.947  0.00  0.00     0.030 H 
ATOM     44  H4  H52 d          12.287  12.526   1.791  0.00  0.00     0.030 H 
ENDBRANCH   2  41
TORSDOF 4
ENDMDL
MODEL 5
REMARK VINA RESULT:      -7.3      2.160      2.723
REMARK  4 active torsions:
REMARK  status: ('A' for Active; 'I' for Inactive)
REMARK    1  A    between atoms: S5_2  and  N21_4 
REMARK    2  A    between atoms: S5_2  and  C5_12 
REMARK    3  A    between atoms: C22_5  and  C2M_6 
REMARK    4  A    between atoms: C4_14  and  CM_15 
ROOT
ATOM      1  N21 H52 d          11.288   8.575   2.603  0.00  0.00    -0.301 N 
ATOM      2  C22 H52 d          12.256   7.819   3.501  0.00  0.00     0.042 C 
ATOM      3  C23 H52 d          13.184   8.671   4.376  0.00  0.00     0.100 C 
ATOM      4  N24 H52 d          12.330   9.402   5.393  0.00  0.00    -0.073 N 
ATOM      5  C25 H52 d          11.988  10.780   4.850  0.00  0.00     0.083 C 
ATOM      6  C26 H52 d          10.909  10.762   3.752  0.00  0.00    -0.027 C 
ATOM      7  C27 H52 d          11.405  10.053   2.498  0.00  0.00     0.007 C 
ATOM      8  H1  H52 d          11.613   7.269   4.205  0.00  0.00     0.075 H 
ATOM      9  H5  H52 d          13.724   9.398   3.750  0.00  0.00     0.078 H 
ATOM     10  H6  H52 d          13.909   8.024   4.892  0.00  0.00     0.078 H 
ATOM     11  H7  H52 d          12.841   9.496   6.257  0.00  0.00     0.277 HD
ATOM     12  H8  H52 d          11.483   8.883   5.558  0.00  0.00     0.277 HD
ATOM     13  H9  H52 d          12.903  11.225   4.431  0.00  0.00     0.075 H 
ATOM     14  H10 H52 d          11.626  11.401   5.682  0.00  0.00     0.075 H 
ATOM     15  H11 H52 d          10.642  11.798   3.495  0.00  0.00     0.037 H 
ATOM     16  H12 H52 d          10.020  10.237   4.132  0.00  0.00     0.037 H 
ATOM     17  H13 H52 d          10.809  10.395   1.639  0.00  0.00     0.065 H 
ATOM     18  H14 H52 d          12.462  10.314   2.338  0.00  0.00     0.065 H 
ENDROOT
BRANCH   1  19
ATOM     19  S5  H52 d           9.885   7.724   2.109  0.00  0.00     0.262 S 
ATOM     20  O1  H52 d           9.518   6.586   2.995  0.00  0.00    -0.200 OA
ATOM     21  O2  H52 d          10.123   7.434   0.690  0.00  0.00    -0.200 OA
BRANCH  19  22
ATOM     22  C5  H52 d           8.548   8.905   2.109  0.00  0.00     0.091 A 
ATOM     23  C10 H52 d           7.764   9.344   3.275  0.00  0.00     0.006 A 
ATOM     24  C4  H52 d           7.902   9.015   4.685  0.00  0.00    -0.032 A 
ATOM     25  C9  H52 d           6.680  10.234   3.011  0.00  0.00    -0.006 A 
ATOM     26  C3  H52 d           7.034   9.510   5.635  0.00  0.00     0.008 A 
ATOM     27  N2  H52 d           6.008  10.320   5.306  0.00  0.00    -0.272 NA
ATOM     28  H22 H52 d           7.180   9.239   6.674  0.00  0.00     0.115 H 
ATOM     29  C1  H52 d           5.841  10.705   4.065  0.00  0.00     0.013 A 
ATOM     30  H21 H52 d           5.043  11.401   3.832  0.00  0.00     0.116 H 
ATOM     31  C8  H52 d           6.396  10.669   1.686  0.00  0.00    -0.071 A 
ATOM     32  C7  H52 d           7.145  10.237   0.628  0.00  0.00    -0.081 A 
ATOM     33  H18 H52 d           5.573  11.354   1.514  0.00  0.00     0.084 H 
ATOM     34  C6  H52 d           8.210   9.327   0.840  0.00  0.00    -0.059 A 
ATOM     35  H19 H52 d           6.925  10.590  -0.372  0.00  0.00     0.083 H 
ATOM     36  H20 H52 d           8.770   8.956  -0.011  0.00  0.00     0.085 H 
BRANCH  24  37
ATOM     37  CM  H52 d           8.955   8.155   5.315  0.00  0.00    -0.049 C 
ATOM     38  H15 H52 d           9.305   8.627   6.245  0.00  0.00     0.033 H 
ATOM     39  H16 H52 d           9.800   8.041   4.621  0.00  0.00     0.033 H 
ATOM     40  H17 H52 d           8.532   7.165   5.543  0.00  0.00     0.033 H 
ENDBRANCH  24  37
ENDBRANCH  19  22
ENDBRANCH   1  19
BRANCH   2  41
ATOM     41  C2M H52 d          13.073   6.768   2.770  0.00  0.00    -0.055 C 
ATOM     42  H2  H52 d          13.133   7.027   1.703  0.00  0.00     0.030 H 
ATOM     43  H3  H52 d          12.591   5.786   2.882  0.00  0.00     0.030 H 
ATOM     44  H4  H52 d          14.087   6.730   3.195  0.00  0.00     0.030 H 
ENDBRANCH   2  41
TORSDOF 4
ENDMDL
MODEL 6
REMARK VINA RESULT:      -7.3      2.839      6.849
REMARK  4 active torsions:
REMARK  status: ('A' for Active; 'I' for Inactive)
REMARK    1  A    between atoms: S5_2  and  N21_4 
REMARK    2  A    between atoms: S5_2  and  C5_12 
REMARK    3  A    between atoms: C22_5  and  C2M_6 
REMARK    4  A    between atoms: C4_14  and  CM_15 
ROOT
ATOM      1  N21 H52 d           8.932   9.607   2.589  0.00  0.00    -0.301 N 
ATOM      2  C22 H52 d           9.210   9.833   4.068  0.00  0.00     0.042 C 
ATOM      3  C23 H52 d           8.168  10.650   4.843  0.00  0.00     0.100 C 
ATOM      4  N24 H52 d           6.884   9.847   4.892  0.00  0.00    -0.073 N 
ATOM      5  C25 H52 d           5.992  10.272   3.737  0.00  0.00     0.083 C 
ATOM      6  C26 H52 d           6.444   9.724   2.372  0.00  0.00    -0.027 C 
ATOM      7  C27 H52 d           7.786  10.311   1.955  0.00  0.00     0.007 C 
ATOM      8  H1  H52 d           9.185   8.827   4.514  0.00  0.00     0.075 H 
ATOM      9  H5  H52 d           7.990  11.608   4.332  0.00  0.00     0.078 H 
ATOM     10  H6  H52 d           8.529  10.842   5.864  0.00  0.00     0.078 H 
ATOM     11  H7  H52 d           6.411  10.019   5.766  0.00  0.00     0.277 HD
ATOM     12  H8  H52 d           7.096   8.865   4.812  0.00  0.00     0.277 HD
ATOM     13  H9  H52 d           5.989  11.371   3.687  0.00  0.00     0.075 H 
ATOM     14  H10 H52 d           4.972   9.911   3.935  0.00  0.00     0.075 H 
ATOM     15  H11 H52 d           5.689   9.982   1.614  0.00  0.00     0.037 H 
ATOM     16  H12 H52 d           6.538   8.630   2.439  0.00  0.00     0.037 H 
ATOM     17  H13 H52 d           7.883  10.231   0.862  0.00  0.00     0.065 H 
ATOM     18  H14 H52 d           7.816  11.371   2.249  0.00  0.00     0.065 H 
ENDROOT
BRANCH   1  19
ATOM     19  S5  H52 d           9.694   8.252   1.869  0.00  0.00     0.262 S 
ATOM     20  O1  H52 d           9.396   8.081   0.422  0.00  0.00    -0.200 OA
ATOM     21  O2  H52 d           9.367   7.137   2.768  0.00  0.00    -0.200 OA
BRANCH  19  22
ATOM     22  C5  H52 d          11.450   8.490   2.070  0.00  0.00     0.091 A 
ATOM     23  C10 H52 d          12.293   9.455   1.344  0.00  0.00     0.006 A 
ATOM     24  C4  H52 d          11.939  10.477   0.372  0.00  0.00    -0.032 A 
ATOM     25  C9  H52 d          13.694   9.398   1.612  0.00  0.00    -0.006 A 
ATOM     26  C3  H52 d          12.892  11.270  -0.230  0.00  0.00     0.008 A 
ATOM     27  N2  H52 d          14.205  11.136   0.048  0.00  0.00    -0.272 NA
ATOM     28  H22 H52 d          12.579  12.021  -0.945  0.00  0.00     0.115 H 
ATOM     29  C1  H52 d          14.607  10.272   0.948  0.00  0.00     0.013 A 
ATOM     30  H21 H52 d          15.661  10.219   1.195  0.00  0.00     0.116 H 
ATOM     31  C8  H52 d          14.225   8.460   2.541  0.00  0.00    -0.071 A 
ATOM     32  C7  H52 d          13.410   7.579   3.193  0.00  0.00    -0.081 A 
ATOM     33  H18 H52 d          15.292   8.445   2.735  0.00  0.00     0.084 H 
ATOM     34  C6  H52 d          12.017   7.577   2.933  0.00  0.00    -0.059 A 
ATOM     35  H19 H52 d          13.828   6.881   3.910  0.00  0.00     0.083 H 
ATOM     36  H20 H52 d          11.386   6.845   3.423  0.00  0.00     0.085 H 
BRANCH  24  37
ATOM     37  CM  H52 d          10.564  10.839  -0.100  0.00  0.00    -0.049 C 
ATOM     38  H15 H52 d          10.525  10.779  -1.198  0.00  0.00     0.033 H 
ATOM     39  H16 H52 d          10.324  11.864   0.219  0.00  0.00     0.033 H 
ATOM     40  H17 H52 d           9.832  10.140   0.331  0.00  0.00     0.033 H 
ENDBRANCH  24  37
ENDBRANCH  19  22
ENDBRANCH   1  19
BRANCH   2  41
ATOM     41  C2M H52 d          10.597  10.382   4.351  0.00  0.00    -0.055 C 
ATOM     42  H2  H52 d          11.302   9.549   4.482  0.00  0.00     0.030 H 
ATOM     43  H3  H52 d          10.571  10.987   5.269  0.00  0.00     0.030 H 
ATOM     44  H4  H52 d          10.923  11.008   3.508  0.00  0.00     0.030 H 
ENDBRANCH   2  41
TORSDOF 4
ENDMDL
MODEL 7
REMARK VINA RESULT:      -7.2      2.007      3.330
REMARK  4 active torsions:
REMARK  status: ('A' for Active; 'I' for Inactive)
REMARK    1  A    between atoms: S5_2  and  N21_4 
REMARK    2  A    between atoms: S5_2  and  C5_12 
REMARK    3  A    between atoms: C22_5  and  C2M_6 
REMARK    4  A    between atoms: C4_14  and  CM_15 
ROOT
ATOM      1  N21 H52 d           9.995   9.808   2.111  0.00  0.00    -0.301 N 
ATOM      2  C22 H52 d          10.915   9.883   0.902  0.00  0.00     0.042 C 
ATOM      3  C23 H52 d          12.337   9.339   1.089  0.00  0.00     0.100 C 
ATOM      4  N24 H52 d          12.242   7.842   1.308  0.00  0.00    -0.073 N 
ATOM      5  C25 H52 d          12.206   7.564   2.802  0.00  0.00     0.083 C 
ATOM      6  C26 H52 d          10.852   7.886   3.460  0.00  0.00    -0.027 C 
ATOM      7  C27 H52 d          10.556   9.379   3.420  0.00  0.00     0.007 C 
ATOM      8  H1  H52 d          10.446   9.228   0.152  0.00  0.00     0.075 H 
ATOM      9  H5  H52 d          12.807   9.815   1.963  0.00  0.00     0.078 H 
ATOM     10  H6  H52 d          12.938   9.548   0.192  0.00  0.00     0.078 H 
ATOM     11  H7  H52 d          13.043   7.390   0.898  0.00  0.00     0.277 HD
ATOM     12  H8  H52 d          11.401   7.491   0.879  0.00  0.00     0.277 HD
ATOM     13  H9  H52 d          12.982   8.174   3.287  0.00  0.00     0.075 H 
ATOM     14  H10 H52 d          12.426   6.498   2.962  0.00  0.00     0.075 H 
ATOM     15  H11 H52 d          10.875   7.553   4.508  0.00  0.00     0.037 H 
ATOM     16  H12 H52 d          10.057   7.349   2.922  0.00  0.00     0.037 H 
ATOM     17  H13 H52 d           9.831   9.618   4.211  0.00  0.00     0.065 H 
ATOM     18  H14 H52 d          11.491   9.930   3.601  0.00  0.00     0.065 H 
ENDROOT
BRANCH   1  19
ATOM     19  S5  H52 d           8.312   9.818   1.790  0.00  0.00     0.262 S 
ATOM     20  O1  H52 d           7.806   8.578   1.141  0.00  0.00    -0.200 OA
ATOM     21  O2  H52 d           8.088  11.091   1.093  0.00  0.00    -0.200 OA
BRANCH  19  22
ATOM     22  C5  H52 d           7.495  10.018   3.363  0.00  0.00     0.091 A 
ATOM     23  C10 H52 d           6.045   9.959   3.613  0.00  0.00     0.006 A 
ATOM     24  C4  H52 d           4.942   9.662   2.713  0.00  0.00    -0.032 A 
ATOM     25  C9  H52 d           5.621  10.240   4.946  0.00  0.00    -0.006 A 
ATOM     26  C3  H52 d           3.631   9.690   3.136  0.00  0.00     0.008 A 
ATOM     27  N2  H52 d           3.301   9.999   4.407  0.00  0.00    -0.272 NA
ATOM     28  H22 H52 d           2.843   9.457   2.429  0.00  0.00     0.115 H 
ATOM     29  C1  H52 d           4.237  10.233   5.295  0.00  0.00     0.013 A 
ATOM     30  H21 H52 d           3.951  10.425   6.323  0.00  0.00     0.116 H 
ATOM     31  C8  H52 d           6.564  10.549   5.966  0.00  0.00    -0.071 A 
ATOM     32  C7  H52 d           7.902  10.597   5.694  0.00  0.00    -0.081 A 
ATOM     33  H18 H52 d           6.216  10.749   6.973  0.00  0.00     0.084 H 
ATOM     34  C6  H52 d           8.366  10.357   4.377  0.00  0.00    -0.059 A 
ATOM     35  H19 H52 d           8.609  10.818   6.485  0.00  0.00     0.083 H 
ATOM     36  H20 H52 d           9.425  10.441   4.162  0.00  0.00     0.085 H 
BRANCH  24  37
ATOM     37  CM  H52 d           5.031   9.278   1.267  0.00  0.00    -0.049 C 
ATOM     38  H15 H52 d           5.821   9.869   0.779  0.00  0.00     0.033 H 
ATOM     39  H16 H52 d           4.068   9.475   0.775  0.00  0.00     0.033 H 
ATOM     40  H17 H52 d           5.271   8.207   1.186  0.00  0.00     0.033 H 
ENDBRANCH  24  37
ENDBRANCH  19  22
ENDBRANCH   1  19
BRANCH   2  41
ATOM     41  C2M H52 d          10.980  11.263   0.270  0.00  0.00    -0.055 C 
ATOM     42  H2  H52 d          10.264  11.930   0.771  0.00  0.00     0.030 H 
ATOM     43  H3  H52 d          10.726  11.189  -0.798  0.00  0.00     0.030 H 
ATOM     44  H4  H52 d          11.997  11.668   0.378  0.00  0.00     0.030 H 
ENDBRANCH   2  41
TORSDOF 4
ENDMDL
MODEL 8
REMARK VINA RESULT:      -7.0      2.057      6.387
REMARK  4 active torsions:
REMARK  status: ('A' for Active; 'I' for Inactive)
REMARK    1  A    between atoms: S5_2  and  N21_4 
REMARK    2  A    between atoms: S5_2  and  C5_12 
REMARK    3  A    between atoms: C22_5  and  C2M_6 
REMARK    4  A    between atoms: C4_14  and  CM_15 
ROOT
ATOM      1  N21 H52 d           7.041   9.827   3.739  0.00  0.00    -0.301 N 
ATOM      2  C22 H52 d           6.354  10.025   5.083  0.00  0.00     0.042 C 
ATOM      3  C23 H52 d           4.941  10.619   5.048  0.00  0.00     0.100 C 
ATOM      4  N24 H52 d           4.025   9.611   4.382  0.00  0.00    -0.073 N 
ATOM      5  C25 H52 d           3.928   9.936   2.901  0.00  0.00     0.083 C 
ATOM      6  C26 H52 d           5.179   9.538   2.097  0.00  0.00    -0.027 C 
ATOM      7  C27 H52 d           6.392  10.360   2.512  0.00  0.00     0.007 C 
ATOM      8  H1  H52 d           6.236   9.009   5.489  0.00  0.00     0.075 H 
ATOM      9  H5  H52 d           4.944  11.557   4.473  0.00  0.00     0.078 H 
ATOM     10  H6  H52 d           4.594  10.819   6.073  0.00  0.00     0.078 H 
ATOM     11  H7  H52 d           3.109   9.660   4.800  0.00  0.00     0.277 HD
ATOM     12  H8  H52 d           4.400   8.684   4.501  0.00  0.00     0.277 HD
ATOM     13  H9  H52 d           3.776  11.021   2.792  0.00  0.00     0.075 H 
ATOM     14  H10 H52 d           3.062   9.402   2.484  0.00  0.00     0.075 H 
ATOM     15  H11 H52 d           4.984   9.702   1.026  0.00  0.00     0.037 H 
ATOM     16  H12 H52 d           5.392   8.473   2.272  0.00  0.00     0.037 H 
ATOM     17  H13 H52 d           7.125  10.350   1.692  0.00  0.00     0.065 H 
ATOM     18  H14 H52 d           6.069  11.395   2.703  0.00  0.00     0.065 H 
ENDROOT
BRANCH   1  19
ATOM     19  S5  H52 d           8.288   8.654   3.687  0.00  0.00     0.262 S 
ATOM     20  O1  H52 d           8.158   7.673   2.576  0.00  0.00    -0.200 OA
ATOM     21  O2  H52 d           8.345   8.129   5.057  0.00  0.00    -0.200 OA
BRANCH  19  22
ATOM     22  C5  H52 d           9.819   9.549   3.486  0.00  0.00     0.091 A 
ATOM     23  C10 H52 d          10.429   9.969   2.213  0.00  0.00     0.006 A 
ATOM     24  C4  H52 d           9.945   9.848   0.847  0.00  0.00    -0.032 A 
ATOM     25  C9  H52 d          11.708  10.596   2.301  0.00  0.00    -0.006 A 
ATOM     26  C3  H52 d          10.691  10.279  -0.229  0.00  0.00     0.008 A 
ATOM     27  N2  H52 d          11.910  10.832  -0.072  0.00  0.00    -0.272 NA
ATOM     28  H22 H52 d          10.286  10.171  -1.228  0.00  0.00     0.115 H 
ATOM     29  C1  H52 d          12.401  11.023   1.129  0.00  0.00     0.013 A 
ATOM     30  H21 H52 d          13.359  11.520   1.234  0.00  0.00     0.116 H 
ATOM     31  C8  H52 d          12.337  10.804   3.560  0.00  0.00    -0.071 A 
ATOM     32  C7  H52 d          11.740  10.397   4.720  0.00  0.00    -0.081 A 
ATOM     33  H18 H52 d          13.304  11.292   3.601  0.00  0.00     0.084 H 
ATOM     34  C6  H52 d          10.485   9.740   4.678  0.00  0.00    -0.059 A 
ATOM     35  H19 H52 d          12.226  10.576   5.672  0.00  0.00     0.083 H 
ATOM     36  H20 H52 d          10.041   9.382   5.599  0.00  0.00     0.085 H 
BRANCH  24  37
ATOM     37  CM  H52 d           8.630   9.288   0.399  0.00  0.00    -0.049 C 
ATOM     38  H15 H52 d           7.968   9.165   1.270  0.00  0.00     0.033 H 
ATOM     39  H16 H52 d           8.790   8.311  -0.080  0.00  0.00     0.033 H 
ATOM     40  H17 H52 d           8.164   9.978  -0.321  0.00  0.00     0.033 H 
ENDBRANCH  24  37
ENDBRANCH  19  22
ENDBRANCH   1  19
BRANCH   2  41
ATOM     41  C2M H52 d           7.198  10.784   6.093  0.00  0.00    -0.055 C 
ATOM     42  H2  H52 d           7.911  11.431   5.562  0.00  0.00     0.030 H 
ATOM     43  H3  H52 d           7.748  10.069   6.721  0.00  0.00     0.030 H 
ATOM     44  H4  H52 d           6.544  11.402   6.726  0.00  0.00     0.030 H 
ENDBRANCH   2  41
TORSDOF 4
ENDMDL
MODEL 9
REMARK VINA RESULT:      -6.9      2.204      3.503
REMARK  4 active torsions:
REMARK  status: ('A' for Active; 'I' for Inactive)
REMARK    1  A    between atoms: S5_2  and  N21_4 
REMARK    2  A    between atoms: S5_2  and  C5_12 
REMARK    3  A    between atoms: C22_5  and  C2M_6 
REMARK    4  A    between atoms: C4_14  and  CM_15 
ROOT
ATOM      1  N21 H52 d          11.774   8.898   2.631  0.00  0.00    -0.301 N 
ATOM      2  C22 H52 d          11.757   7.996   3.857  0.00  0.00     0.042 C 
ATOM      3  C23 H52 d          12.694   6.783   3.827  0.00  0.00     0.100 C 
ATOM      4  N24 H52 d          14.121   7.292   3.842  0.00  0.00    -0.073 N 
ATOM      5  C25 H52 d          14.622   7.400   2.411  0.00  0.00     0.083 C 
ATOM      6  C26 H52 d          14.053   8.608   1.646  0.00  0.00    -0.027 C 
ATOM      7  C27 H52 d          12.550   8.475   1.435  0.00  0.00     0.007 C 
ATOM      8  H1  H52 d          12.125   8.632   4.676  0.00  0.00     0.075 H 
ATOM      9  H5  H52 d          12.517   6.197   2.913  0.00  0.00     0.078 H 
ATOM     10  H6  H52 d          12.513   6.150   4.708  0.00  0.00     0.078 H 
ATOM     11  H7  H52 d          14.703   6.650   4.357  0.00  0.00     0.277 HD
ATOM     12  H8  H52 d          14.152   8.199   4.280  0.00  0.00     0.277 HD
ATOM     13  H9  H52 d          14.338   6.483   1.874  0.00  0.00     0.075 H 
ATOM     14  H10 H52 d          15.718   7.487   2.432  0.00  0.00     0.075 H 
ATOM     15  H11 H52 d          14.547   8.676   0.665  0.00  0.00     0.037 H 
ATOM     16  H12 H52 d          14.254   9.523   2.222  0.00  0.00     0.037 H 
ATOM     17  H13 H52 d          12.255   9.103   0.582  0.00  0.00     0.065 H 
ATOM     18  H14 H52 d          12.316   7.423   1.215  0.00  0.00     0.065 H 
ENDROOT
BRANCH   1  19
ATOM     19  S5  H52 d          11.248  10.511   2.864  0.00  0.00     0.262 S 
ATOM     20  O1  H52 d          11.296  11.353   1.638  0.00  0.00    -0.200 OA
ATOM     21  O2  H52 d          12.006  10.970   4.035  0.00  0.00    -0.200 OA
BRANCH  19  22
ATOM     22  C5  H52 d           9.559  10.418   3.431  0.00  0.00     0.091 A 
ATOM     23  C10 H52 d           8.369  10.153   2.605  0.00  0.00     0.006 A 
ATOM     24  C4  H52 d           8.252   9.834   1.191  0.00  0.00    -0.032 A 
ATOM     25  C9  H52 d           7.109  10.217   3.272  0.00  0.00    -0.006 A 
ATOM     26  C3  H52 d           7.027   9.651   0.587  0.00  0.00     0.008 A 
ATOM     27  N2  H52 d           5.872   9.762   1.274  0.00  0.00    -0.272 NA
ATOM     28  H22 H52 d           6.990   9.411  -0.470  0.00  0.00     0.115 H 
ATOM     29  C1  H52 d           5.889   9.999   2.563  0.00  0.00     0.013 A 
ATOM     30  H21 H52 d           4.951  10.029   3.106  0.00  0.00     0.116 H 
ATOM     31  C8  H52 d           7.029  10.513   4.661  0.00  0.00    -0.071 A 
ATOM     32  C7  H52 d           8.157  10.756   5.394  0.00  0.00    -0.081 A 
ATOM     33  H18 H52 d           6.060  10.545   5.146  0.00  0.00     0.084 H 
ATOM     34  C6  H52 d           9.427  10.736   4.767  0.00  0.00    -0.059 A 
ATOM     35  H19 H52 d           8.080  10.965   6.455  0.00  0.00     0.083 H 
ATOM     36  H20 H52 d          10.311  10.974   5.347  0.00  0.00     0.085 H 
BRANCH  24  37
ATOM     37  CM  H52 d           9.368   9.642   0.211  0.00  0.00    -0.049 C 
ATOM     38  H15 H52 d          10.318   9.954   0.671  0.00  0.00     0.033 H 
ATOM     39  H16 H52 d           9.178  10.249  -0.686  0.00  0.00     0.033 H 
ATOM     40  H17 H52 d           9.429   8.580  -0.072  0.00  0.00     0.033 H 
ENDBRANCH  24  37
ENDBRANCH  19  22
ENDBRANCH   1  19
BRANCH   2  41
ATOM     41  C2M H52 d          10.363   7.550   4.266  0.00  0.00    -0.055 C 
ATOM     42  H2  H52 d           9.649   7.803   3.469  0.00  0.00     0.030 H 
ATOM     43  H3  H52 d          10.073   8.063   5.194  0.00  0.00     0.030 H 
ATOM     44  H4  H52 d          10.360   6.463   4.430  0.00  0.00     0.030 H 
ENDBRANCH   2  41
TORSDOF 4
ENDMDL
MODEL 10
REMARK VINA RESULT:      -6.4      2.914      4.115
REMARK  4 active torsions:
REMARK  status: ('A' for Active; 'I' for Inactive)
REMARK    1  A    between atoms: S5_2  and  N21_4 
REMARK    2  A    between atoms: S5_2  and  C5_12 
REMARK    3  A    between atoms: C22_5  and  C2M_6 
REMARK    4  A    between atoms: C4_14  and  CM_15 
ROOT
ATOM      1  N21 H52 d          11.781   9.016   0.890  0.00  0.00    -0.301 N 
ATOM      2  C22 H52 d          13.073   9.147   1.685  0.00  0.00     0.042 C 
ATOM      3  C23 H52 d          13.869  10.443   1.486  0.00  0.00     0.100 C 
ATOM      4  N24 H52 d          13.048  11.588   2.044  0.00  0.00    -0.073 N 
ATOM      5  C25 H52 d          12.237  12.209   0.919  0.00  0.00     0.083 C 
ATOM      6  C26 H52 d          11.022  11.364   0.493  0.00  0.00    -0.027 C 
ATOM      7  C27 H52 d          11.456  10.044  -0.133  0.00  0.00     0.007 C 
ATOM      8  H1  H52 d          12.754   9.157   2.738  0.00  0.00     0.075 H 
ATOM      9  H5  H52 d          14.056  10.606   0.414  0.00  0.00     0.078 H 
ATOM     10  H6  H52 d          14.829  10.376   2.019  0.00  0.00     0.078 H 
ATOM     11  H7  H52 d          13.663  12.282   2.441  0.00  0.00     0.277 HD
ATOM     12  H8  H52 d          12.427  11.242   2.758  0.00  0.00     0.277 HD
ATOM     13  H9  H52 d          12.895  12.336   0.046  0.00  0.00     0.075 H 
ATOM     14  H10 H52 d          11.876  13.193   1.252  0.00  0.00     0.075 H 
ATOM     15  H11 H52 d          10.431  11.931  -0.242  0.00  0.00     0.037 H 
ATOM     16  H12 H52 d          10.404  11.154   1.379  0.00  0.00     0.037 H 
ATOM     17  H13 H52 d          10.639   9.667  -0.766  0.00  0.00     0.065 H 
ATOM     18  H14 H52 d          12.347  10.222  -0.752  0.00  0.00     0.065 H 
ENDROOT
BRANCH   1  19
ATOM     19  S5  H52 d          10.609   7.935   1.517  0.00  0.00     0.262 S 
ATOM     20  O1  H52 d          11.081   7.124   2.671  0.00  0.00    -0.200 OA
ATOM     21  O2  H52 d          10.117   7.215   0.335  0.00  0.00    -0.200 OA
BRANCH  19  22
ATOM     22  C5  H52 d           9.227   8.933   2.042  0.00  0.00     0.091 A 
ATOM     23  C10 H52 d           9.047   9.558   3.363  0.00  0.00     0.006 A 
ATOM     24  C4  H52 d           9.930   9.598   4.518  0.00  0.00    -0.032 A 
ATOM     25  C9  H52 d           7.811  10.237   3.579  0.00  0.00    -0.006 A 
ATOM     26  C3  H52 d           9.561  10.215   5.694  0.00  0.00     0.008 A 
ATOM     27  N2  H52 d           8.359  10.809   5.838  0.00  0.00    -0.272 NA
ATOM     28  H22 H52 d          10.256  10.222   6.526  0.00  0.00     0.115 H 
ATOM     29  C1  H52 d           7.522  10.860   4.830  0.00  0.00     0.013 A 
ATOM     30  H21 H52 d           6.584  11.390   4.951  0.00  0.00     0.116 H 
ATOM     31  C8  H52 d           6.823  10.305   2.557  0.00  0.00    -0.071 A 
ATOM     32  C7  H52 d           7.026   9.710   1.344  0.00  0.00    -0.081 A 
ATOM     33  H18 H52 d           5.897  10.837   2.743  0.00  0.00     0.084 H 
ATOM     34  C6  H52 d           8.225   8.996   1.097  0.00  0.00    -0.059 A 
ATOM     35  H19 H52 d           6.270   9.784   0.570  0.00  0.00     0.083 H 
ATOM     36  H20 H52 d           8.357   8.490   0.147  0.00  0.00     0.085 H 
BRANCH  24  37
ATOM     37  CM  H52 d          11.314   9.033   4.619  0.00  0.00    -0.049 C 
ATOM     38  H15 H52 d          11.258   7.980   4.935  0.00  0.00     0.033 H 
ATOM     39  H16 H52 d          11.892   9.607   5.358  0.00  0.00     0.033 H 
ATOM     40  H17 H52 d          11.809   9.096   3.638  0.00  0.00     0.033 H 
ENDBRANCH  24  37
ENDBRANCH  19  22
ENDBRANCH   1  19
BRANCH   2  41
ATOM     41  C2M H52 d          14.002   7.955   1.540  0.00  0.00    -0.055 C 
ATOM     42  H2  H52 d          14.766   7.987   2.331  0.00  0.00     0.030 H 
ATOM     43  H3  H52 d          14.492   7.989   0.556  0.00  0.00     0.030 H 
ATOM     44  H4  H52 d          13.422   7.025   1.629  0.00  0.00     0.030 H 
ENDBRANCH   2  41
TORSDOF 4
ENDMDL
