MODEL 1
REMARK VINA RESULT:      -7.9      0.000      0.000
REMARK  6 active torsions:
REMARK  status: ('A' for Active; 'I' for Inactive)
REMARK    1  A    between atoms: P_1  and  O5'_4 
REMARK    2  A    between atoms: O5'_4  and  C5'_6 
REMARK    3  A    between atoms: C5'_6  and  C4'_7 
REMARK    4  A    between atoms: C1'_9  and  N9_10 
REMARK    5  A    between atoms: C2'_21  and  O2'_22 
REMARK    6  A    between atoms: C3'_23  and  O3'_24 
ROOT
ATOM      1  C4' XMP d           2.369  38.859  47.176  0.00  0.00     0.089 C 
ATOM      2  O4' XMP d           2.772  40.208  47.582  0.00  0.00    -0.353 OA
ATOM      3  C1' XMP d           1.859  41.165  47.014  0.00  0.00     0.139 C 
ATOM      4  C2' XMP d           0.843  40.400  46.178  0.00  0.00     0.105 C 
ATOM      5  C3' XMP d           1.532  39.092  45.922  0.00  0.00     0.091 C 
ATOM      6  H3  XMP d           1.751  38.363  47.938  0.00  0.00     0.090 H 
ATOM      7  H4  XMP d           1.309  41.674  47.819  0.00  0.00     0.122 H 
ATOM      8  H8  XMP d           0.640  40.927  45.234  0.00  0.00     0.093 H 
ATOM      9  H10 XMP d           2.189  39.171  45.042  0.00  0.00     0.091 H 
ENDROOT
BRANCH   3  10
ATOM     10  N9  XMP d           2.682  42.181  46.318  0.00  0.00    -0.295 N 
ATOM     11  C4  XMP d           2.712  43.513  46.673  0.00  0.00     0.149 A 
ATOM     12  N3  XMP d           2.004  44.113  47.701  0.00  0.00    -0.292 N 
ATOM     13  C5  XMP d           3.592  44.105  45.791  0.00  0.00     0.170 A 
ATOM     14  C2  XMP d           2.265  45.448  47.787  0.00  0.00     0.328 A 
ATOM     15  H5  XMP d           1.377  43.625  48.309  0.00  0.00     0.172 HD
ATOM     16  N1  XMP d           3.140  46.131  46.936  0.00  0.00    -0.273 N 
ATOM     17  O2  XMP d           1.735  46.154  48.640  0.00  0.00    -0.247 OA
ATOM     18  C6  XMP d           3.866  45.500  45.874  0.00  0.00     0.282 A 
ATOM     19  H6  XMP d           3.266  47.113  47.075  0.00  0.00     0.173 HD
ATOM     20  O6  XMP d           4.618  46.151  45.160  0.00  0.00    -0.265 OA
ATOM     21  N7  XMP d           4.124  43.163  44.871  0.00  0.00    -0.234 NA
ATOM     22  C8  XMP d           3.541  42.053  45.249  0.00  0.00     0.071 A 
ATOM     23  H7  XMP d           3.721  41.100  44.754  0.00  0.00     0.144 H 
ENDBRANCH   3  10
BRANCH   4  24
ATOM     24  O2' XMP d          -0.392  40.205  46.880  0.00  0.00    -0.388 OA
ATOM     25  H9  XMP d          -1.022  40.857  46.596  0.00  0.00     0.210 HD
ENDBRANCH   4  24
BRANCH   1  26
ATOM     26  C5' XMP d           3.668  38.109  47.028  0.00  0.00     0.059 C 
ATOM     27  H1  XMP d           4.421  38.770  46.572  0.00  0.00     0.079 H 
ATOM     28  H2  XMP d           4.018  37.785  48.019  0.00  0.00     0.079 H 
BRANCH  26  29
ATOM     29  O5' XMP d           3.473  36.963  46.193  0.00  0.00    -0.280 OA
BRANCH  29  30
ATOM     30  P   XMP d           4.080  36.845  44.711  0.00  0.00     0.422 P 
ATOM     31  O1P XMP d           4.297  38.178  44.142  0.00  0.00    -0.617 OA
ATOM     32  O2P XMP d           3.060  36.069  43.920  0.00  0.00    -0.617 OA
ATOM     33  O3P XMP d           5.405  36.059  44.870  0.00  0.00    -0.617 OA
ENDBRANCH  29  30
ENDBRANCH  26  29
ENDBRANCH   1  26
BRANCH   5  34
ATOM     34  O3' XMP d           0.587  38.061  45.692  0.00  0.00    -0.390 OA
ATOM     35  H11 XMP d           0.830  37.291  46.193  0.00  0.00     0.210 HD
ENDBRANCH   5  34
TORSDOF 6
ENDMDL
MODEL 2
REMARK VINA RESULT:      -7.2      2.797      6.390
REMARK  6 active torsions:
REMARK  status: ('A' for Active; 'I' for Inactive)
REMARK    1  A    between atoms: P_1  and  O5'_4 
REMARK    2  A    between atoms: O5'_4  and  C5'_6 
REMARK    3  A    between atoms: C5'_6  and  C4'_7 
REMARK    4  A    between atoms: C1'_9  and  N9_10 
REMARK    5  A    between atoms: C2'_21  and  O2'_22 
REMARK    6  A    between atoms: C3'_23  and  O3'_24 
ROOT
ATOM      1  C4' XMP d           2.818  44.836  46.441  0.00  0.00     0.089 C 
ATOM      2  O4' XMP d           2.479  43.521  45.889  0.00  0.00    -0.353 OA
ATOM      3  C1' XMP d           1.348  42.987  46.602  0.00  0.00     0.139 C 
ATOM      4  C2' XMP d           0.963  43.988  47.683  0.00  0.00     0.105 C 
ATOM      5  C3' XMP d           2.208  44.811  47.839  0.00  0.00     0.091 C 
ATOM      6  H3  XMP d           2.369  45.656  45.863  0.00  0.00     0.090 H 
ATOM      7  H4  XMP d           0.492  42.891  45.919  0.00  0.00     0.122 H 
ATOM      8  H8  XMP d           0.716  43.470  48.621  0.00  0.00     0.093 H 
ATOM      9  H10 XMP d           2.902  44.327  48.543  0.00  0.00     0.091 H 
ENDROOT
BRANCH   3  10
ATOM     10  N9  XMP d           1.727  41.624  47.044  0.00  0.00    -0.295 N 
ATOM     11  C4  XMP d           2.523  40.776  46.304  0.00  0.00     0.149 A 
ATOM     12  N3  XMP d           3.086  41.037  45.066  0.00  0.00    -0.292 N 
ATOM     13  C5  XMP d           2.634  39.628  47.061  0.00  0.00     0.170 A 
ATOM     14  C2  XMP d           3.824  39.985  44.611  0.00  0.00     0.328 A 
ATOM     15  H5  XMP d           2.966  41.894  44.565  0.00  0.00     0.172 HD
ATOM     16  N1  XMP d           3.990  38.784  45.310  0.00  0.00    -0.273 N 
ATOM     17  O2  XMP d           4.407  40.026  43.531  0.00  0.00    -0.247 OA
ATOM     18  C6  XMP d           3.401  38.526  46.590  0.00  0.00     0.282 A 
ATOM     19  H6  XMP d           4.550  38.068  44.893  0.00  0.00     0.173 HD
ATOM     20  O6  XMP d           3.582  37.454  47.154  0.00  0.00    -0.265 OA
ATOM     21  N7  XMP d           1.912  39.734  48.280  0.00  0.00    -0.234 NA
ATOM     22  C8  XMP d           1.408  40.939  48.195  0.00  0.00     0.071 A 
ATOM     23  H7  XMP d           0.782  41.368  48.977  0.00  0.00     0.144 H 
ENDBRANCH   3  10
BRANCH   4  24
ATOM     24  O2' XMP d          -0.149  44.801  47.289  0.00  0.00    -0.388 OA
ATOM     25  H9  XMP d          -0.308  45.462  47.952  0.00  0.00     0.210 HD
ENDBRANCH   4  24
BRANCH   1  26
ATOM     26  C5' XMP d           4.319  44.913  46.327  0.00  0.00     0.059 C 
ATOM     27  H1  XMP d           4.724  45.446  47.201  0.00  0.00     0.079 H 
ATOM     28  H2  XMP d           4.735  43.896  46.292  0.00  0.00     0.079 H 
BRANCH  26  29
ATOM     29  O5' XMP d           4.678  45.617  45.134  0.00  0.00    -0.280 OA
BRANCH  29  30
ATOM     30  P   XMP d           4.780  44.908  43.696  0.00  0.00     0.422 P 
ATOM     31  O1P XMP d           5.827  45.541  42.890  0.00  0.00    -0.617 OA
ATOM     32  O2P XMP d           3.423  45.078  43.066  0.00  0.00    -0.617 OA
ATOM     33  O3P XMP d           5.095  43.421  43.992  0.00  0.00    -0.617 OA
ENDBRANCH  29  30
ENDBRANCH  26  29
ENDBRANCH   1  26
BRANCH   5  34
ATOM     34  O3' XMP d           1.897  46.106  48.327  0.00  0.00    -0.390 OA
ATOM     35  H11 XMP d           2.656  46.669  48.234  0.00  0.00     0.210 HD
ENDBRANCH   5  34
TORSDOF 6
ENDMDL
MODEL 3
REMARK VINA RESULT:      -7.2      2.955      6.650
REMARK  6 active torsions:
REMARK  status: ('A' for Active; 'I' for Inactive)
REMARK    1  A    between atoms: P_1  and  O5'_4 
REMARK    2  A    between atoms: O5'_4  and  C5'_6 
REMARK    3  A    between atoms: C5'_6  and  C4'_7 
REMARK    4  A    between atoms: C1'_9  and  N9_10 
REMARK    5  A    between atoms: C2'_21  and  O2'_22 
REMARK    6  A    between atoms: C3'_23  and  O3'_24 
ROOT
ATOM      1  C4' XMP d           1.571  43.433  46.811  0.00  0.00     0.089 C 
ATOM      2  O4' XMP d           1.836  42.546  45.675  0.00  0.00    -0.353 OA
ATOM      3  C1' XMP d           1.415  41.211  46.009  0.00  0.00     0.139 C 
ATOM      4  C2' XMP d           0.885  41.233  47.436  0.00  0.00     0.105 C 
ATOM      5  C3' XMP d           1.491  42.483  48.002  0.00  0.00     0.091 C 
ATOM      6  H3  XMP d           0.614  43.965  46.707  0.00  0.00     0.090 H 
ATOM      7  H4  XMP d           0.586  40.910  45.352  0.00  0.00     0.122 H 
ATOM      8  H8  XMP d           1.225  40.346  47.990  0.00  0.00     0.093 H 
ATOM      9  H10 XMP d           2.502  42.278  48.387  0.00  0.00     0.091 H 
ENDROOT
BRANCH   3  10
ATOM     10  N9  XMP d           2.562  40.318  45.726  0.00  0.00    -0.295 N 
ATOM     11  C4  XMP d           2.427  39.032  45.245  0.00  0.00     0.149 A 
ATOM     12  N3  XMP d           1.243  38.375  44.955  0.00  0.00    -0.292 N 
ATOM     13  C5  XMP d           3.715  38.554  45.117  0.00  0.00     0.170 A 
ATOM     14  C2  XMP d           1.462  37.112  44.493  0.00  0.00     0.328 A 
ATOM     15  H5  XMP d           0.335  38.779  45.071  0.00  0.00     0.172 HD
ATOM     16  N1  XMP d           2.732  36.546  44.332  0.00  0.00    -0.273 N 
ATOM     17  O2  XMP d           0.535  36.372  44.176  0.00  0.00    -0.247 OA
ATOM     18  C6  XMP d           3.949  37.235  44.637  0.00  0.00     0.282 A 
ATOM     19  H6  XMP d           2.792  35.609  43.987  0.00  0.00     0.173 HD
ATOM     20  O6  XMP d           5.033  36.687  44.477  0.00  0.00    -0.265 OA
ATOM     21  N7  XMP d           4.674  39.523  45.515  0.00  0.00    -0.234 NA
ATOM     22  C8  XMP d           3.916  40.534  45.858  0.00  0.00     0.071 A 
ATOM     23  H7  XMP d           4.325  41.476  46.221  0.00  0.00     0.144 H 
ENDBRANCH   3  10
BRANCH   4  24
ATOM     24  O2' XMP d          -0.547  41.288  47.474  0.00  0.00    -0.388 OA
ATOM     25  H9  XMP d          -0.894  40.410  47.576  0.00  0.00     0.210 HD
ENDBRANCH   4  24
BRANCH   1  26
ATOM     26  C5' XMP d           2.699  44.431  46.779  0.00  0.00     0.059 C 
ATOM     27  H1  XMP d           2.287  45.445  46.666  0.00  0.00     0.079 H 
ATOM     28  H2  XMP d           3.269  44.369  47.718  0.00  0.00     0.079 H 
BRANCH  26  29
ATOM     29  O5' XMP d           3.567  44.146  45.677  0.00  0.00    -0.280 OA
BRANCH  29  30
ATOM     30  P   XMP d           4.653  45.191  45.123  0.00  0.00     0.422 P 
ATOM     31  O1P XMP d           4.020  46.150  44.216  0.00  0.00    -0.617 OA
ATOM     32  O2P XMP d           5.685  44.358  44.410  0.00  0.00    -0.617 OA
ATOM     33  O3P XMP d           5.239  45.880  46.380  0.00  0.00    -0.617 OA
ENDBRANCH  29  30
ENDBRANCH  26  29
ENDBRANCH   1  26
BRANCH   5  34
ATOM     34  O3' XMP d           0.697  42.993  49.061  0.00  0.00    -0.390 OA
ATOM     35  H11 XMP d           0.279  42.272  49.517  0.00  0.00     0.210 HD
ENDBRANCH   5  34
TORSDOF 6
ENDMDL
MODEL 4
REMARK VINA RESULT:      -6.9      2.811      6.068
REMARK  6 active torsions:
REMARK  status: ('A' for Active; 'I' for Inactive)
REMARK    1  A    between atoms: P_1  and  O5'_4 
REMARK    2  A    between atoms: O5'_4  and  C5'_6 
REMARK    3  A    between atoms: C5'_6  and  C4'_7 
REMARK    4  A    between atoms: C1'_9  and  N9_10 
REMARK    5  A    between atoms: C2'_21  and  O2'_22 
REMARK    6  A    between atoms: C3'_23  and  O3'_24 
ROOT
ATOM      1  C4' XMP d           2.068  44.277  46.867  0.00  0.00     0.089 C 
ATOM      2  O4' XMP d           1.406  43.078  46.345  0.00  0.00    -0.353 OA
ATOM      3  C1' XMP d           0.805  42.357  47.437  0.00  0.00     0.139 C 
ATOM      4  C2' XMP d           1.124  43.108  48.723  0.00  0.00     0.105 C 
ATOM      5  C3' XMP d           2.305  43.950  48.338  0.00  0.00     0.091 C 
ATOM      6  H3  XMP d           1.430  45.169  46.791  0.00  0.00     0.090 H 
ATOM      7  H4  XMP d          -0.288  42.351  47.319  0.00  0.00     0.122 H 
ATOM      8  H8  XMP d           1.388  42.406  49.527  0.00  0.00     0.093 H 
ATOM      9  H10 XMP d           3.237  43.376  48.450  0.00  0.00     0.091 H 
ENDROOT
BRANCH   3  10
ATOM     10  N9  XMP d           1.278  40.957  47.335  0.00  0.00    -0.295 N 
ATOM     11  C4  XMP d           1.108  40.174  46.212  0.00  0.00     0.149 A 
ATOM     12  N3  XMP d           0.491  40.544  45.029  0.00  0.00    -0.292 N 
ATOM     13  C5  XMP d           1.685  38.960  46.525  0.00  0.00     0.170 A 
ATOM     14  C2  XMP d           0.496  39.533  44.116  0.00  0.00     0.328 A 
ATOM     15  H5  XMP d           0.089  41.445  44.865  0.00  0.00     0.172 HD
ATOM     16  N1  XMP d           1.056  38.271  44.346  0.00  0.00    -0.273 N 
ATOM     17  O2  XMP d          -0.001  39.669  43.001  0.00  0.00    -0.247 OA
ATOM     18  C6  XMP d           1.691  37.900  45.575  0.00  0.00     0.282 A 
ATOM     19  H6  XMP d           1.009  37.592  43.613  0.00  0.00     0.173 HD
ATOM     20  O6  XMP d           2.162  36.779  45.719  0.00  0.00    -0.265 OA
ATOM     21  N7  XMP d           2.219  38.958  47.841  0.00  0.00    -0.234 NA
ATOM     22  C8  XMP d           1.941  40.170  48.251  0.00  0.00     0.071 A 
ATOM     23  H7  XMP d           2.214  40.530  49.242  0.00  0.00     0.144 H 
ENDBRANCH   3  10
BRANCH   4  24
ATOM     24  O2' XMP d           0.026  43.923  49.153  0.00  0.00    -0.388 OA
ATOM     25  H9  XMP d           0.275  44.838  49.109  0.00  0.00     0.210 HD
ENDBRANCH   4  24
BRANCH   1  26
ATOM     26  C5' XMP d           3.274  44.454  45.981  0.00  0.00     0.059 C 
ATOM     27  H1  XMP d           2.980  44.992  45.067  0.00  0.00     0.079 H 
ATOM     28  H2  XMP d           4.040  45.033  46.517  0.00  0.00     0.079 H 
BRANCH  26  29
ATOM     29  O5' XMP d           3.807  43.173  45.627  0.00  0.00    -0.280 OA
BRANCH  29  30
ATOM     30  P   XMP d           4.148  42.753  44.115  0.00  0.00     0.422 P 
ATOM     31  O1P XMP d           5.470  42.127  44.047  0.00  0.00    -0.617 OA
ATOM     32  O2P XMP d           4.104  44.033  43.323  0.00  0.00    -0.617 OA
ATOM     33  O3P XMP d           3.021  41.777  43.695  0.00  0.00    -0.617 OA
ENDBRANCH  29  30
ENDBRANCH  26  29
ENDBRANCH   1  26
BRANCH   5  34
ATOM     34  O3' XMP d           2.384  45.107  49.153  0.00  0.00    -0.390 OA
ATOM     35  H11 XMP d           3.040  45.698  48.800  0.00  0.00     0.210 HD
ENDBRANCH   5  34
TORSDOF 6
ENDMDL
MODEL 5
REMARK VINA RESULT:      -6.5      3.017      7.054
REMARK  6 active torsions:
REMARK  status: ('A' for Active; 'I' for Inactive)
REMARK    1  A    between atoms: P_1  and  O5'_4 
REMARK    2  A    between atoms: O5'_4  and  C5'_6 
REMARK    3  A    between atoms: C5'_6  and  C4'_7 
REMARK    4  A    between atoms: C1'_9  and  N9_10 
REMARK    5  A    between atoms: C2'_21  and  O2'_22 
REMARK    6  A    between atoms: C3'_23  and  O3'_24 
ROOT
ATOM      1  C4' XMP d           3.799  43.817  46.097  0.00  0.00     0.089 C 
ATOM      2  O4' XMP d           3.832  42.379  46.373  0.00  0.00    -0.353 OA
ATOM      3  C1' XMP d           4.074  41.667  45.146  0.00  0.00     0.139 C 
ATOM      4  C2' XMP d           4.167  42.691  44.024  0.00  0.00     0.105 C 
ATOM      5  C3' XMP d           3.484  43.893  44.606  0.00  0.00     0.091 C 
ATOM      6  H3  XMP d           4.769  44.299  46.287  0.00  0.00     0.090 H 
ATOM      7  H4  XMP d           5.042  41.148  45.204  0.00  0.00     0.122 H 
ATOM      8  H8  XMP d           3.638  42.335  43.128  0.00  0.00     0.093 H 
ATOM      9  H10 XMP d           2.396  43.830  44.448  0.00  0.00     0.091 H 
ENDROOT
BRANCH   3  10
ATOM     10  N9  XMP d           3.016  40.635  45.035  0.00  0.00    -0.295 N 
ATOM     11  C4  XMP d           3.276  39.293  44.851  0.00  0.00     0.149 A 
ATOM     12  N3  XMP d           4.521  38.697  44.740  0.00  0.00    -0.292 N 
ATOM     13  C5  XMP d           2.038  38.686  44.804  0.00  0.00     0.170 A 
ATOM     14  C2  XMP d           4.426  37.349  44.569  0.00  0.00     0.328 A 
ATOM     15  H5  XMP d           5.387  39.196  44.782  0.00  0.00     0.172 HD
ATOM     16  N1  XMP d           3.215  36.650  44.509  0.00  0.00    -0.273 N 
ATOM     17  O2  XMP d           5.423  36.641  44.455  0.00  0.00    -0.247 OA
ATOM     18  C6  XMP d           1.933  37.278  44.623  0.00  0.00     0.282 A 
ATOM     19  H6  XMP d           3.246  35.659  44.379  0.00  0.00     0.173 HD
ATOM     20  O6  XMP d           0.905  36.614  44.562  0.00  0.00    -0.265 OA
ATOM     21  N7  XMP d           0.987  39.629  44.954  0.00  0.00    -0.234 NA
ATOM     22  C8  XMP d           1.645  40.753  45.087  0.00  0.00     0.071 A 
ATOM     23  H7  XMP d           1.145  41.711  45.228  0.00  0.00     0.144 H 
ENDBRANCH   3  10
BRANCH   4  24
ATOM     24  O2' XMP d           5.527  42.985  43.679  0.00  0.00    -0.388 OA
ATOM     25  H9  XMP d           6.077  42.881  44.447  0.00  0.00     0.210 HD
ENDBRANCH   4  24
BRANCH   1  26
ATOM     26  C5' XMP d           2.778  44.361  47.062  0.00  0.00     0.059 C 
ATOM     27  H1  XMP d           3.286  44.961  47.832  0.00  0.00     0.079 H 
ATOM     28  H2  XMP d           2.061  44.994  46.518  0.00  0.00     0.079 H 
BRANCH  26  29
ATOM     29  O5' XMP d           2.079  43.280  47.687  0.00  0.00    -0.280 OA
BRANCH  29  30
ATOM     30  P   XMP d           0.487  43.271  47.897  0.00  0.00     0.422 P 
ATOM     31  O1P XMP d           0.120  44.098  49.049  0.00  0.00    -0.617 OA
ATOM     32  O2P XMP d           0.119  41.827  48.118  0.00  0.00    -0.617 OA
ATOM     33  O3P XMP d          -0.106  43.819  46.576  0.00  0.00    -0.617 OA
ENDBRANCH  29  30
ENDBRANCH  26  29
ENDBRANCH   1  26
BRANCH   5  34
ATOM     34  O3' XMP d           3.960  45.085  44.002  0.00  0.00    -0.390 OA
ATOM     35  H11 XMP d           4.035  45.765  44.662  0.00  0.00     0.210 HD
ENDBRANCH   5  34
TORSDOF 6
ENDMDL
MODEL 6
REMARK VINA RESULT:      -6.0      3.223      6.365
REMARK  6 active torsions:
REMARK  status: ('A' for Active; 'I' for Inactive)
REMARK    1  A    between atoms: P_1  and  O5'_4 
REMARK    2  A    between atoms: O5'_4  and  C5'_6 
REMARK    3  A    between atoms: C5'_6  and  C4'_7 
REMARK    4  A    between atoms: C1'_9  and  N9_10 
REMARK    5  A    between atoms: C2'_21  and  O2'_22 
REMARK    6  A    between atoms: C3'_23  and  O3'_24 
ROOT
ATOM      1  C4' XMP d           3.485  43.180  45.506  0.00  0.00     0.089 C 
ATOM      2  O4' XMP d           3.961  41.893  46.021  0.00  0.00    -0.353 OA
ATOM      3  C1' XMP d           4.666  41.198  44.977  0.00  0.00     0.139 C 
ATOM      4  C2' XMP d           4.614  42.061  43.724  0.00  0.00     0.105 C 
ATOM      5  C3' XMP d           3.458  42.978  43.993  0.00  0.00     0.091 C 
ATOM      6  H3  XMP d           4.172  44.003  45.749  0.00  0.00     0.090 H 
ATOM      7  H4  XMP d           5.724  41.084  45.258  0.00  0.00     0.122 H 
ATOM      8  H8  XMP d           4.425  41.443  42.834  0.00  0.00     0.093 H 
ATOM      9  H10 XMP d           2.512  42.500  43.696  0.00  0.00     0.091 H 
ENDROOT
BRANCH   3  10
ATOM     10  N9  XMP d           4.074  39.842  44.891  0.00  0.00    -0.295 N 
ATOM     11  C4  XMP d           2.733  39.608  44.671  0.00  0.00     0.149 A 
ATOM     12  N3  XMP d           1.742  40.560  44.499  0.00  0.00    -0.292 N 
ATOM     13  C5  XMP d           2.602  38.234  44.657  0.00  0.00     0.170 A 
ATOM     14  C2  XMP d           0.520  39.991  44.297  0.00  0.00     0.328 A 
ATOM     15  H5  XMP d           1.903  41.546  44.521  0.00  0.00     0.172 HD
ATOM     16  N1  XMP d           0.294  38.611  44.269  0.00  0.00    -0.273 N 
ATOM     17  O2  XMP d          -0.486  40.672  44.120  0.00  0.00    -0.247 OA
ATOM     18  C6  XMP d           1.327  37.636  44.449  0.00  0.00     0.282 A 
ATOM     19  H6  XMP d          -0.640  38.288  44.115  0.00  0.00     0.173 HD
ATOM     20  O6  XMP d           1.068  36.439  44.414  0.00  0.00    -0.265 OA
ATOM     21  N7  XMP d           3.847  37.587  44.870  0.00  0.00    -0.234 NA
ATOM     22  C8  XMP d           4.665  38.602  44.997  0.00  0.00     0.071 A 
ATOM     23  H7  XMP d           5.732  38.476  45.173  0.00  0.00     0.144 H 
ENDBRANCH   3  10
BRANCH   4  24
ATOM     24  O2' XMP d           5.827  42.800  43.532  0.00  0.00    -0.388 OA
ATOM     25  H9  XMP d           6.527  42.202  43.294  0.00  0.00     0.210 HD
ENDBRANCH   4  24
BRANCH   1  26
ATOM     26  C5' XMP d           2.173  43.404  46.211  0.00  0.00     0.059 C 
ATOM     27  H1  XMP d           2.216  44.351  46.770  0.00  0.00     0.079 H 
ATOM     28  H2  XMP d           1.363  43.453  45.469  0.00  0.00     0.079 H 
BRANCH  26  29
ATOM     29  O5' XMP d           1.922  42.328  47.120  0.00  0.00    -0.280 OA
BRANCH  29  30
ATOM     30  P   XMP d           0.454  41.957  47.656  0.00  0.00     0.422 P 
ATOM     31  O1P XMP d           0.206  40.521  47.511  0.00  0.00    -0.617 OA
ATOM     32  O2P XMP d          -0.497  42.767  46.815  0.00  0.00    -0.617 OA
ATOM     33  O3P XMP d           0.433  42.403  49.139  0.00  0.00    -0.617 OA
ENDBRANCH  29  30
ENDBRANCH  26  29
ENDBRANCH   1  26
BRANCH   5  34
ATOM     34  O3' XMP d           3.599  44.191  43.273  0.00  0.00    -0.390 OA
ATOM     35  H11 XMP d           3.455  44.028  42.349  0.00  0.00     0.210 HD
ENDBRANCH   5  34
TORSDOF 6
ENDMDL
MODEL 7
REMARK VINA RESULT:      -5.9      3.283      6.865
REMARK  6 active torsions:
REMARK  status: ('A' for Active; 'I' for Inactive)
REMARK    1  A    between atoms: P_1  and  O5'_4 
REMARK    2  A    between atoms: O5'_4  and  C5'_6 
REMARK    3  A    between atoms: C5'_6  and  C4'_7 
REMARK    4  A    between atoms: C1'_9  and  N9_10 
REMARK    5  A    between atoms: C2'_21  and  O2'_22 
REMARK    6  A    between atoms: C3'_23  and  O3'_24 
ROOT
ATOM      1  C4' XMP d           3.556  43.226  45.753  0.00  0.00     0.089 C 
ATOM      2  O4' XMP d           4.085  41.904  46.105  0.00  0.00    -0.353 OA
ATOM      3  C1' XMP d           4.760  41.347  44.963  0.00  0.00     0.139 C 
ATOM      4  C2' XMP d           4.632  42.338  43.815  0.00  0.00     0.105 C 
ATOM      5  C3' XMP d           3.467  43.187  44.231  0.00  0.00     0.091 C 
ATOM      6  H3  XMP d           4.233  44.037  46.057  0.00  0.00     0.090 H 
ATOM      7  H4  XMP d           5.831  41.233  45.186  0.00  0.00     0.122 H 
ATOM      8  H8  XMP d           4.419  41.815  42.872  0.00  0.00     0.093 H 
ATOM      9  H10 XMP d           2.521  42.717  43.922  0.00  0.00     0.091 H 
ENDROOT
BRANCH   3  10
ATOM     10  N9  XMP d           4.198  39.992  44.754  0.00  0.00    -0.295 N 
ATOM     11  C4  XMP d           2.846  39.722  44.735  0.00  0.00     0.149 A 
ATOM     12  N3  XMP d           1.816  40.632  44.903  0.00  0.00    -0.292 N 
ATOM     13  C5  XMP d           2.749  38.363  44.513  0.00  0.00     0.170 A 
ATOM     14  C2  XMP d           0.593  40.036  44.824  0.00  0.00     0.328 A 
ATOM     15  H5  XMP d           1.952  41.610  45.063  0.00  0.00     0.172 HD
ATOM     16  N1  XMP d           0.400  38.668  44.603  0.00  0.00    -0.273 N 
ATOM     17  O2  XMP d          -0.446  40.680  44.943  0.00  0.00    -0.247 OA
ATOM     18  C6  XMP d           1.474  37.736  44.433  0.00  0.00     0.282 A 
ATOM     19  H6  XMP d          -0.537  38.323  44.563  0.00  0.00     0.173 HD
ATOM     20  O6  XMP d           1.244  36.548  44.243  0.00  0.00    -0.265 OA
ATOM     21  N7  XMP d           4.029  37.761  44.393  0.00  0.00    -0.234 NA
ATOM     22  C8  XMP d           4.830  38.786  44.545  0.00  0.00     0.071 A 
ATOM     23  H7  XMP d           5.914  38.693  44.508  0.00  0.00     0.144 H 
ENDBRANCH   3  10
BRANCH   4  24
ATOM     24  O2' XMP d           5.818  43.128  43.655  0.00  0.00    -0.388 OA
ATOM     25  H9  XMP d           5.621  44.036  43.857  0.00  0.00     0.210 HD
ENDBRANCH   4  24
BRANCH   1  26
ATOM     26  C5' XMP d           2.272  43.334  46.533  0.00  0.00     0.059 C 
ATOM     27  H1  XMP d           1.564  43.974  45.984  0.00  0.00     0.079 H 
ATOM     28  H2  XMP d           1.837  42.333  46.662  0.00  0.00     0.079 H 
BRANCH  26  29
ATOM     29  O5' XMP d           2.532  43.909  47.818  0.00  0.00    -0.280 OA
BRANCH  29  30
ATOM     30  P   XMP d           3.051  45.416  48.015  0.00  0.00     0.422 P 
ATOM     31  O1P XMP d           2.993  46.145  46.746  0.00  0.00    -0.617 OA
ATOM     32  O2P XMP d           4.467  45.291  48.513  0.00  0.00    -0.617 OA
ATOM     33  O3P XMP d           2.118  46.036  49.084  0.00  0.00    -0.617 OA
ENDBRANCH  29  30
ENDBRANCH  26  29
ENDBRANCH   1  26
BRANCH   5  34
ATOM     34  O3' XMP d           3.547  44.475  43.642  0.00  0.00    -0.390 OA
ATOM     35  H11 XMP d           4.143  44.448  42.903  0.00  0.00     0.210 HD
ENDBRANCH   5  34
TORSDOF 6
ENDMDL
MODEL 8
REMARK VINA RESULT:      -5.4      2.527      3.903
REMARK  6 active torsions:
REMARK  status: ('A' for Active; 'I' for Inactive)
REMARK    1  A    between atoms: P_1  and  O5'_4 
REMARK    2  A    between atoms: O5'_4  and  C5'_6 
REMARK    3  A    between atoms: C5'_6  and  C4'_7 
REMARK    4  A    between atoms: C1'_9  and  N9_10 
REMARK    5  A    between atoms: C2'_21  and  O2'_22 
REMARK    6  A    between atoms: C3'_23  and  O3'_24 
ROOT
ATOM      1  C4' XMP d           4.279  39.306  45.315  0.00  0.00     0.089 C 
ATOM      2  O4' XMP d           3.898  40.438  46.163  0.00  0.00    -0.353 OA
ATOM      3  C1' XMP d           2.831  40.034  47.039  0.00  0.00     0.139 C 
ATOM      4  C2' XMP d           2.487  38.586  46.718  0.00  0.00     0.105 C 
ATOM      5  C3' XMP d           3.049  38.403  45.339  0.00  0.00     0.091 C 
ATOM      6  H3  XMP d           5.141  38.756  45.720  0.00  0.00     0.090 H 
ATOM      7  H4  XMP d           3.176  40.069  48.083  0.00  0.00     0.122 H 
ATOM      8  H8  XMP d           1.398  38.436  46.720  0.00  0.00     0.093 H 
ATOM      9  H10 XMP d           2.324  38.737  44.582  0.00  0.00     0.091 H 
ENDROOT
BRANCH   3  10
ATOM     10  N9  XMP d           1.750  41.037  46.888  0.00  0.00    -0.295 N 
ATOM     11  C4  XMP d           1.899  42.372  47.201  0.00  0.00     0.149 A 
ATOM     12  N3  XMP d           3.038  42.986  47.694  0.00  0.00    -0.292 N 
ATOM     13  C5  XMP d           0.679  42.950  46.916  0.00  0.00     0.170 A 
ATOM     14  C2  XMP d           2.850  44.321  47.892  0.00  0.00     0.328 A 
ATOM     15  H5  XMP d           3.896  42.508  47.881  0.00  0.00     0.172 HD
ATOM     16  N1  XMP d           1.649  44.990  47.632  0.00  0.00    -0.273 N 
ATOM     17  O2  XMP d           3.748  45.041  48.321  0.00  0.00    -0.247 OA
ATOM     18  C6  XMP d           0.477  44.343  47.124  0.00  0.00     0.282 A 
ATOM     19  H6  XMP d           1.607  45.973  47.812  0.00  0.00     0.173 HD
ATOM     20  O6  XMP d          -0.547  44.982  46.917  0.00  0.00    -0.265 OA
ATOM     21  N7  XMP d          -0.251  41.995  46.426  0.00  0.00    -0.234 NA
ATOM     22  C8  XMP d           0.457  40.893  46.437  0.00  0.00     0.071 A 
ATOM     23  H7  XMP d           0.053  39.935  46.114  0.00  0.00     0.144 H 
ENDBRANCH   3  10
BRANCH   4  24
ATOM     24  O2' XMP d           3.087  37.674  47.648  0.00  0.00    -0.388 OA
ATOM     25  H9  XMP d           3.808  37.222  47.225  0.00  0.00     0.210 HD
ENDBRANCH   4  24
BRANCH   1  26
ATOM     26  C5' XMP d           4.666  39.935  44.001  0.00  0.00     0.059 C 
ATOM     27  H1  XMP d           5.348  39.262  43.461  0.00  0.00     0.079 H 
ATOM     28  H2  XMP d           3.763  40.104  43.397  0.00  0.00     0.079 H 
BRANCH  26  29
ATOM     29  O5' XMP d           5.321  41.185  44.238  0.00  0.00    -0.280 OA
BRANCH  29  30
ATOM     30  P   XMP d           4.793  42.578  43.637  0.00  0.00     0.422 P 
ATOM     31  O1P XMP d           5.824  43.193  42.797  0.00  0.00    -0.617 OA
ATOM     32  O2P XMP d           4.474  43.437  44.833  0.00  0.00    -0.617 OA
ATOM     33  O3P XMP d           3.521  42.222  42.829  0.00  0.00    -0.617 OA
ENDBRANCH  29  30
ENDBRANCH  26  29
ENDBRANCH   1  26
BRANCH   5  34
ATOM     34  O3' XMP d           3.361  37.041  45.100  0.00  0.00    -0.390 OA
ATOM     35  H11 XMP d           3.718  36.655  45.891  0.00  0.00     0.210 HD
ENDBRANCH   5  34
TORSDOF 6
ENDMDL
MODEL 9
REMARK VINA RESULT:      -5.3      2.975      6.282
REMARK  6 active torsions:
REMARK  status: ('A' for Active; 'I' for Inactive)
REMARK    1  A    between atoms: P_1  and  O5'_4 
REMARK    2  A    between atoms: O5'_4  and  C5'_6 
REMARK    3  A    between atoms: C5'_6  and  C4'_7 
REMARK    4  A    between atoms: C1'_9  and  N9_10 
REMARK    5  A    between atoms: C2'_21  and  O2'_22 
REMARK    6  A    between atoms: C3'_23  and  O3'_24 
ROOT
ATOM      1  C4' XMP d           3.638  42.987  46.050  0.00  0.00     0.089 C 
ATOM      2  O4' XMP d           4.504  41.806  46.102  0.00  0.00    -0.353 OA
ATOM      3  C1' XMP d           5.294  41.746  44.901  0.00  0.00     0.139 C 
ATOM      4  C2' XMP d           4.894  42.922  44.021  0.00  0.00     0.105 C 
ATOM      5  C3' XMP d           3.548  43.306  44.561  0.00  0.00     0.091 C 
ATOM      6  H3  XMP d           4.076  43.846  46.579  0.00  0.00     0.090 H 
ATOM      7  H4  XMP d           6.358  41.865  45.151  0.00  0.00     0.122 H 
ATOM      8  H8  XMP d           4.820  42.613  42.968  0.00  0.00     0.093 H 
ATOM      9  H10 XMP d           2.760  42.697  44.094  0.00  0.00     0.091 H 
ENDROOT
BRANCH   3  10
ATOM     10  N9  XMP d           5.113  40.387  44.338  0.00  0.00    -0.295 N 
ATOM     11  C4  XMP d           4.418  39.383  44.979  0.00  0.00     0.149 A 
ATOM     12  N3  XMP d           3.792  39.463  46.212  0.00  0.00    -0.292 N 
ATOM     13  C5  XMP d           4.482  38.297  44.129  0.00  0.00     0.170 A 
ATOM     14  C2  XMP d           3.190  38.290  46.554  0.00  0.00     0.328 A 
ATOM     15  H5  XMP d           3.783  40.284  46.783  0.00  0.00     0.172 HD
ATOM     16  N1  XMP d           3.204  37.140  45.757  0.00  0.00    -0.273 N 
ATOM     17  O2  XMP d           2.578  38.164  47.611  0.00  0.00    -0.247 OA
ATOM     18  C6  XMP d           3.856  37.068  44.483  0.00  0.00     0.282 A 
ATOM     19  H6  XMP d           2.735  36.324  46.094  0.00  0.00     0.173 HD
ATOM     20  O6  XMP d           3.836  36.033  43.830  0.00  0.00    -0.265 OA
ATOM     21  N7  XMP d           5.215  38.598  42.951  0.00  0.00    -0.234 NA
ATOM     22  C8  XMP d           5.552  39.848  43.150  0.00  0.00     0.071 A 
ATOM     23  H7  XMP d           6.134  40.418  42.428  0.00  0.00     0.144 H 
ENDBRANCH   3  10
BRANCH   4  24
ATOM     24  O2' XMP d           5.823  44.009  44.125  0.00  0.00    -0.388 OA
ATOM     25  H9  XMP d           6.625  43.701  44.531  0.00  0.00     0.210 HD
ENDBRANCH   4  24
BRANCH   1  26
ATOM     26  C5' XMP d           2.378  42.559  46.757  0.00  0.00     0.059 C 
ATOM     27  H1  XMP d           2.627  42.222  47.775  0.00  0.00     0.079 H 
ATOM     28  H2  XMP d           1.683  43.410  46.813  0.00  0.00     0.079 H 
BRANCH  26  29
ATOM     29  O5' XMP d           1.761  41.487  46.039  0.00  0.00    -0.280 OA
BRANCH  29  30
ATOM     30  P   XMP d           0.189  41.167  46.122  0.00  0.00     0.422 P 
ATOM     31  O1P XMP d          -0.278  40.581  44.863  0.00  0.00    -0.617 OA
ATOM     32  O2P XMP d          -0.477  42.490  46.393  0.00  0.00    -0.617 OA
ATOM     33  O3P XMP d           0.030  40.189  47.312  0.00  0.00    -0.617 OA
ENDBRANCH  29  30
ENDBRANCH  26  29
ENDBRANCH   1  26
BRANCH   5  34
ATOM     34  O3' XMP d           3.275  44.674  44.306  0.00  0.00    -0.390 OA
ATOM     35  H11 XMP d           2.386  44.764  43.985  0.00  0.00     0.210 HD
ENDBRANCH   5  34
TORSDOF 6
ENDMDL
MODEL 10
REMARK VINA RESULT:      -5.3      2.528      5.850
REMARK  6 active torsions:
REMARK  status: ('A' for Active; 'I' for Inactive)
REMARK    1  A    between atoms: P_1  and  O5'_4 
REMARK    2  A    between atoms: O5'_4  and  C5'_6 
REMARK    3  A    between atoms: C5'_6  and  C4'_7 
REMARK    4  A    between atoms: C1'_9  and  N9_10 
REMARK    5  A    between atoms: C2'_21  and  O2'_22 
REMARK    6  A    between atoms: C3'_23  and  O3'_24 
ROOT
ATOM      1  C4' XMP d           2.606  44.356  45.226  0.00  0.00     0.089 C 
ATOM      2  O4' XMP d           1.727  43.227  45.544  0.00  0.00    -0.353 OA
ATOM      3  C1' XMP d           1.479  43.206  46.961  0.00  0.00     0.139 C 
ATOM      4  C2' XMP d           2.259  44.353  47.588  0.00  0.00     0.105 C 
ATOM      5  C3' XMP d           3.298  44.662  46.551  0.00  0.00     0.091 C 
ATOM      6  H3  XMP d           2.042  45.241  44.899  0.00  0.00     0.090 H 
ATOM      7  H4  XMP d           0.411  43.388  47.152  0.00  0.00     0.122 H 
ATOM      8  H8  XMP d           2.728  44.034  48.530  0.00  0.00     0.093 H 
ATOM      9  H10 XMP d           4.172  44.006  46.678  0.00  0.00     0.091 H 
ENDROOT
BRANCH   3  10
ATOM     10  N9  XMP d           1.793  41.836  47.430  0.00  0.00    -0.295 N 
ATOM     11  C4  XMP d           1.695  40.716  46.632  0.00  0.00     0.149 A 
ATOM     12  N3  XMP d           1.300  40.674  45.306  0.00  0.00    -0.292 N 
ATOM     13  C5  XMP d           2.075  39.662  47.437  0.00  0.00     0.170 A 
ATOM     14  C2  XMP d           1.317  39.405  44.809  0.00  0.00     0.328 A 
ATOM     15  H5  XMP d           1.034  41.479  44.774  0.00  0.00     0.172 HD
ATOM     16  N1  XMP d           1.687  38.278  45.552  0.00  0.00    -0.273 N 
ATOM     17  O2  XMP d           1.003  39.163  43.647  0.00  0.00    -0.247 OA
ATOM     18  C6  XMP d           2.092  38.334  46.925  0.00  0.00     0.282 A 
ATOM     19  H6  XMP d           1.666  37.386  45.101  0.00  0.00     0.173 HD
ATOM     20  O6  XMP d           2.404  37.312  47.524  0.00  0.00    -0.265 OA
ATOM     21  N7  XMP d           2.413  40.098  48.746  0.00  0.00    -0.234 NA
ATOM     22  C8  XMP d           2.223  41.391  48.660  0.00  0.00     0.071 A 
ATOM     23  H7  XMP d           2.392  42.064  49.500  0.00  0.00     0.144 H 
ENDBRANCH   3  10
BRANCH   4  24
ATOM     24  O2' XMP d           1.426  45.492  47.842  0.00  0.00    -0.388 OA
ATOM     25  H9  XMP d           0.582  45.366  47.422  0.00  0.00     0.210 HD
ENDBRANCH   4  24
BRANCH   1  26
ATOM     26  C5' XMP d           3.455  43.860  44.085  0.00  0.00     0.059 C 
ATOM     27  H1  XMP d           3.079  44.280  43.140  0.00  0.00     0.079 H 
ATOM     28  H2  XMP d           4.497  44.179  44.239  0.00  0.00     0.079 H 
BRANCH  26  29
ATOM     29  O5' XMP d           3.400  42.431  44.025  0.00  0.00    -0.280 OA
BRANCH  29  30
ATOM     30  P   XMP d           4.683  41.516  43.718  0.00  0.00     0.422 P 
ATOM     31  O1P XMP d           4.273  40.257  43.092  0.00  0.00    -0.617 OA
ATOM     32  O2P XMP d           5.337  41.279  45.053  0.00  0.00    -0.617 OA
ATOM     33  O3P XMP d           5.579  42.365  42.782  0.00  0.00    -0.617 OA
ENDBRANCH  29  30
ENDBRANCH  26  29
ENDBRANCH   1  26
BRANCH   5  34
ATOM     34  O3' XMP d           3.724  46.011  46.652  0.00  0.00    -0.390 OA
ATOM     35  H11 XMP d           3.650  46.429  45.802  0.00  0.00     0.210 HD
ENDBRANCH   5  34
TORSDOF 6
ENDMDL
