MODEL 1
REMARK VINA RESULT:      -7.9      0.000      0.000
REMARK  6 active torsions:
REMARK  status: ('A' for Active; 'I' for Inactive)
REMARK    1  A    between atoms: P_1  and  O5'_4 
REMARK    2  A    between atoms: O5'_4  and  C5'_6 
REMARK    3  A    between atoms: C5'_6  and  C4'_7 
REMARK    4  A    between atoms: C1'_9  and  N9_10 
REMARK    5  A    between atoms: C2'_21  and  O2'_22 
REMARK    6  A    between atoms: C3'_23  and  O3'_24 
ROOT
ATOM      1  C4' XMP d           2.400  38.990  47.127  0.00  0.00     0.089 C 
ATOM      2  O4' XMP d           2.778  40.369  47.452  0.00  0.00    -0.353 OA
ATOM      3  C1' XMP d           1.828  41.272  46.858  0.00  0.00     0.139 C 
ATOM      4  C2' XMP d           0.812  40.440  46.087  0.00  0.00     0.105 C 
ATOM      5  C3' XMP d           1.528  39.137  45.883  0.00  0.00     0.091 C 
ATOM      6  H3  XMP d           1.812  38.521  47.929  0.00  0.00     0.090 H 
ATOM      7  H4  XMP d           1.285  41.810  47.648  0.00  0.00     0.122 H 
ATOM      8  H8  XMP d           0.575  40.911  45.123  0.00  0.00     0.093 H 
ATOM      9  H10 XMP d           2.162  39.185  44.984  0.00  0.00     0.091 H 
ENDROOT
BRANCH   3  10
ATOM     10  N9  XMP d           2.609  42.269  46.089  0.00  0.00    -0.295 N 
ATOM     11  C4  XMP d           2.808  43.568  46.507  0.00  0.00     0.149 A 
ATOM     12  N3  XMP d           2.331  44.148  47.670  0.00  0.00    -0.292 N 
ATOM     13  C5  XMP d           3.579  44.152  45.523  0.00  0.00     0.170 A 
ATOM     14  C2  XMP d           2.713  45.451  47.783  0.00  0.00     0.328 A 
ATOM     15  H5  XMP d           1.773  43.668  48.347  0.00  0.00     0.172 HD
ATOM     16  N1  XMP d           3.492  46.124  46.836  0.00  0.00    -0.273 N 
ATOM     17  O2  XMP d           2.392  46.135  48.751  0.00  0.00    -0.247 OA
ATOM     18  C6  XMP d           3.979  45.514  45.635  0.00  0.00     0.282 A 
ATOM     19  H6  XMP d           3.721  47.082  47.006  0.00  0.00     0.173 HD
ATOM     20  O6  XMP d           4.657  46.154  44.841  0.00  0.00    -0.265 OA
ATOM     21  N7  XMP d           3.873  43.238  44.477  0.00  0.00    -0.234 NA
ATOM     22  C8  XMP d           3.268  42.151  44.886  0.00  0.00     0.071 A 
ATOM     23  H7  XMP d           3.284  41.223  44.317  0.00  0.00     0.144 H 
ENDBRANCH   3  10
BRANCH   4  24
ATOM     24  O2' XMP d          -0.400  40.253  46.829  0.00  0.00    -0.388 OA
ATOM     25  H9  XMP d          -0.196  39.887  47.682  0.00  0.00     0.210 HD
ENDBRANCH   4  24
BRANCH   1  26
ATOM     26  C5' XMP d           3.714  38.266  46.986  0.00  0.00     0.059 C 
ATOM     27  H1  XMP d           4.442  38.923  46.487  0.00  0.00     0.079 H 
ATOM     28  H2  XMP d           4.089  37.993  47.983  0.00  0.00     0.079 H 
BRANCH  26  29
ATOM     29  O5' XMP d           3.531  37.080  46.206  0.00  0.00    -0.280 OA
BRANCH  29  30
ATOM     30  P   XMP d           3.998  36.958  44.674  0.00  0.00     0.422 P 
ATOM     31  O1P XMP d           5.125  36.030  44.558  0.00  0.00    -0.617 OA
ATOM     32  O2P XMP d           4.389  38.352  44.261  0.00  0.00    -0.617 OA
ATOM     33  O3P XMP d           2.752  36.457  43.903  0.00  0.00    -0.617 OA
ENDBRANCH  29  30
ENDBRANCH  26  29
ENDBRANCH   1  26
BRANCH   5  34
ATOM     34  O3' XMP d           0.604  38.073  45.730  0.00  0.00    -0.390 OA
ATOM     35  H11 XMP d           0.666  37.491  46.479  0.00  0.00     0.210 HD
ENDBRANCH   5  34
TORSDOF 6
ENDMDL
MODEL 2
REMARK VINA RESULT:      -7.6      1.338      2.490
REMARK  6 active torsions:
REMARK  status: ('A' for Active; 'I' for Inactive)
REMARK    1  A    between atoms: P_1  and  O5'_4 
REMARK    2  A    between atoms: O5'_4  and  C5'_6 
REMARK    3  A    between atoms: C5'_6  and  C4'_7 
REMARK    4  A    between atoms: C1'_9  and  N9_10 
REMARK    5  A    between atoms: C2'_21  and  O2'_22 
REMARK    6  A    between atoms: C3'_23  and  O3'_24 
ROOT
ATOM      1  C4' XMP d           2.491  39.389  46.305  0.00  0.00     0.089 C 
ATOM      2  O4' XMP d           2.767  40.530  47.182  0.00  0.00    -0.353 OA
ATOM      3  C1' XMP d           1.649  41.436  47.143  0.00  0.00     0.139 C 
ATOM      4  C2' XMP d           0.622  40.869  46.173  0.00  0.00     0.105 C 
ATOM      5  C3' XMP d           1.432  39.917  45.342  0.00  0.00     0.091 C 
ATOM      6  H3  XMP d           2.083  38.530  46.858  0.00  0.00     0.090 H 
ATOM      7  H4  XMP d           1.177  41.483  48.135  0.00  0.00     0.122 H 
ATOM      8  H8  XMP d           0.195  41.667  45.549  0.00  0.00     0.093 H 
ATOM      9  H10 XMP d           1.915  40.451  44.510  0.00  0.00     0.091 H 
ENDROOT
BRANCH   3  10
ATOM     10  N9  XMP d           2.197  42.779  46.840  0.00  0.00    -0.295 N 
ATOM     11  C4  XMP d           3.160  43.011  45.881  0.00  0.00     0.149 A 
ATOM     12  N3  XMP d           3.762  42.068  45.064  0.00  0.00    -0.292 N 
ATOM     13  C5  XMP d           3.386  44.372  45.914  0.00  0.00     0.170 A 
ATOM     14  C2  XMP d           4.671  42.632  44.220  0.00  0.00     0.328 A 
ATOM     15  H5  XMP d           3.554  41.090  45.090  0.00  0.00     0.172 HD
ATOM     16  N1  XMP d           4.964  44.000  44.185  0.00  0.00    -0.273 N 
ATOM     17  O2  XMP d           5.306  41.958  43.414  0.00  0.00    -0.247 OA
ATOM     18  C6  XMP d           4.336  44.966  45.036  0.00  0.00     0.282 A 
ATOM     19  H6  XMP d           5.649  44.320  43.531  0.00  0.00     0.173 HD
ATOM     20  O6  XMP d           4.635  46.151  44.960  0.00  0.00    -0.265 OA
ATOM     21  N7  XMP d           2.577  45.013  46.890  0.00  0.00    -0.234 NA
ATOM     22  C8  XMP d           1.905  44.007  47.391  0.00  0.00     0.071 A 
ATOM     23  H7  XMP d           1.168  44.132  48.183  0.00  0.00     0.144 H 
ENDBRANCH   3  10
BRANCH   4  24
ATOM     24  O2' XMP d          -0.439  40.187  46.854  0.00  0.00    -0.388 OA
ATOM     25  H9  XMP d          -0.185  40.029  47.756  0.00  0.00     0.210 HD
ENDBRANCH   4  24
BRANCH   1  26
ATOM     26  C5' XMP d           3.838  39.018  45.739  0.00  0.00     0.059 C 
ATOM     27  H1  XMP d           4.438  39.929  45.599  0.00  0.00     0.079 H 
ATOM     28  H2  XMP d           4.354  38.342  46.436  0.00  0.00     0.079 H 
BRANCH  26  29
ATOM     29  O5' XMP d           3.669  38.362  44.478  0.00  0.00    -0.280 OA
BRANCH  29  30
ATOM     30  P   XMP d           3.620  36.764  44.321  0.00  0.00     0.422 P 
ATOM     31  O1P XMP d           4.224  36.119  45.489  0.00  0.00    -0.617 OA
ATOM     32  O2P XMP d           4.393  36.461  43.065  0.00  0.00    -0.617 OA
ATOM     33  O3P XMP d           2.120  36.410  44.173  0.00  0.00    -0.617 OA
ENDBRANCH  29  30
ENDBRANCH  26  29
ENDBRANCH   1  26
BRANCH   5  34
ATOM     34  O3' XMP d           0.612  38.891  44.808  0.00  0.00    -0.390 OA
ATOM     35  H11 XMP d          -0.048  39.276  44.245  0.00  0.00     0.210 HD
ENDBRANCH   5  34
TORSDOF 6
ENDMDL
MODEL 3
REMARK VINA RESULT:      -7.1      2.861      6.111
REMARK  6 active torsions:
REMARK  status: ('A' for Active; 'I' for Inactive)
REMARK    1  A    between atoms: P_1  and  O5'_4 
REMARK    2  A    between atoms: O5'_4  and  C5'_6 
REMARK    3  A    between atoms: C5'_6  and  C4'_7 
REMARK    4  A    between atoms: C1'_9  and  N9_10 
REMARK    5  A    between atoms: C2'_21  and  O2'_22 
REMARK    6  A    between atoms: C3'_23  and  O3'_24 
ROOT
ATOM      1  C4' XMP d           1.987  44.269  46.922  0.00  0.00     0.089 C 
ATOM      2  O4' XMP d           1.878  42.979  46.235  0.00  0.00    -0.353 OA
ATOM      3  C1' XMP d           1.150  42.059  47.069  0.00  0.00     0.139 C 
ATOM      4  C2' XMP d           0.804  42.780  48.365  0.00  0.00     0.105 C 
ATOM      5  C3' XMP d           1.783  43.916  48.392  0.00  0.00     0.091 C 
ATOM      6  H3  XMP d           1.204  44.974  46.606  0.00  0.00     0.090 H 
ATOM      7  H4  XMP d           0.204  41.785  46.580  0.00  0.00     0.122 H 
ATOM      8  H8  XMP d           0.950  42.116  49.230  0.00  0.00     0.093 H 
ATOM      9  H10 XMP d           2.736  43.590  48.835  0.00  0.00     0.091 H 
ENDROOT
BRANCH   3  10
ATOM     10  N9  XMP d           1.975  40.833  47.175  0.00  0.00    -0.295 N 
ATOM     11  C4  XMP d           2.846  40.413  46.192  0.00  0.00     0.149 A 
ATOM     12  N3  XMP d           3.092  41.036  44.980  0.00  0.00    -0.292 N 
ATOM     13  C5  XMP d           3.410  39.251  46.679  0.00  0.00     0.170 A 
ATOM     14  C2  XMP d           4.015  40.360  44.239  0.00  0.00     0.328 A 
ATOM     15  H5  XMP d           2.647  41.881  44.684  0.00  0.00     0.172 HD
ATOM     16  N1  XMP d           4.637  39.177  44.651  0.00  0.00    -0.273 N 
ATOM     17  O2  XMP d           4.370  40.759  43.133  0.00  0.00    -0.247 OA
ATOM     18  C6  XMP d           4.373  38.541  45.907  0.00  0.00     0.282 A 
ATOM     19  H6  XMP d           5.301  38.752  44.036  0.00  0.00     0.173 HD
ATOM     20  O6  XMP d           4.948  37.504  46.214  0.00  0.00    -0.265 OA
ATOM     21  N7  XMP d           2.906  38.923  47.965  0.00  0.00    -0.234 NA
ATOM     22  C8  XMP d           2.067  39.904  48.188  0.00  0.00     0.071 A 
ATOM     23  H7  XMP d           1.486  39.980  49.106  0.00  0.00     0.144 H 
ENDBRANCH   3  10
BRANCH   4  24
ATOM     24  O2' XMP d          -0.547  43.260  48.367  0.00  0.00    -0.388 OA
ATOM     25  H9  XMP d          -0.672  43.849  49.102  0.00  0.00     0.210 HD
ENDBRANCH   4  24
BRANCH   1  26
ATOM     26  C5' XMP d           3.332  44.803  46.505  0.00  0.00     0.059 C 
ATOM     27  H1  XMP d           3.220  45.837  46.146  0.00  0.00     0.079 H 
ATOM     28  H2  XMP d           4.016  44.786  47.366  0.00  0.00     0.079 H 
BRANCH  26  29
ATOM     29  O5' XMP d           3.871  43.992  45.456  0.00  0.00    -0.280 OA
BRANCH  29  30
ATOM     30  P   XMP d           4.486  44.602  44.103  0.00  0.00     0.422 P 
ATOM     31  O1P XMP d           3.493  44.558  43.027  0.00  0.00    -0.617 OA
ATOM     32  O2P XMP d           5.683  43.746  43.783  0.00  0.00    -0.617 OA
ATOM     33  O3P XMP d           4.895  46.054  44.456  0.00  0.00    -0.617 OA
ENDBRANCH  29  30
ENDBRANCH  26  29
ENDBRANCH   1  26
BRANCH   5  34
ATOM     34  O3' XMP d           1.276  44.999  49.153  0.00  0.00    -0.390 OA
ATOM     35  H11 XMP d           1.968  45.634  49.299  0.00  0.00     0.210 HD
ENDBRANCH   5  34
TORSDOF 6
ENDMDL
MODEL 4
REMARK VINA RESULT:      -7.0      2.743      6.002
REMARK  6 active torsions:
REMARK  status: ('A' for Active; 'I' for Inactive)
REMARK    1  A    between atoms: P_1  and  O5'_4 
REMARK    2  A    between atoms: O5'_4  and  C5'_6 
REMARK    3  A    between atoms: C5'_6  and  C4'_7 
REMARK    4  A    between atoms: C1'_9  and  N9_10 
REMARK    5  A    between atoms: C2'_21  and  O2'_22 
REMARK    6  A    between atoms: C3'_23  and  O3'_24 
ROOT
ATOM      1  C4' XMP d           1.996  44.275  46.856  0.00  0.00     0.089 C 
ATOM      2  O4' XMP d           1.315  43.094  46.318  0.00  0.00    -0.353 OA
ATOM      3  C1' XMP d           0.691  42.376  47.398  0.00  0.00     0.139 C 
ATOM      4  C2' XMP d           1.014  43.108  48.693  0.00  0.00     0.105 C 
ATOM      5  C3' XMP d           2.215  43.930  48.326  0.00  0.00     0.091 C 
ATOM      6  H3  XMP d           1.377  45.180  46.784  0.00  0.00     0.090 H 
ATOM      7  H4  XMP d          -0.401  42.392  47.272  0.00  0.00     0.122 H 
ATOM      8  H8  XMP d           1.258  42.394  49.493  0.00  0.00     0.093 H 
ATOM      9  H10 XMP d           3.135  43.337  48.440  0.00  0.00     0.091 H 
ENDROOT
BRANCH   3  10
ATOM     10  N9  XMP d           1.137  40.967  47.288  0.00  0.00    -0.295 N 
ATOM     11  C4  XMP d           0.995  40.210  46.143  0.00  0.00     0.149 A 
ATOM     12  N3  XMP d           0.434  40.616  44.945  0.00  0.00    -0.292 N 
ATOM     13  C5  XMP d           1.532  38.978  46.454  0.00  0.00     0.170 A 
ATOM     14  C2  XMP d           0.453  39.623  44.012  0.00  0.00     0.328 A 
ATOM     15  H5  XMP d           0.059  41.529  44.782  0.00  0.00     0.172 HD
ATOM     16  N1  XMP d           0.976  38.345  44.239  0.00  0.00    -0.273 N 
ATOM     17  O2  XMP d           0.003  39.792  42.882  0.00  0.00    -0.247 OA
ATOM     18  C6  XMP d           1.553  37.936  45.484  0.00  0.00     0.282 A 
ATOM     19  H6  XMP d           0.944  37.681  43.492  0.00  0.00     0.173 HD
ATOM     20  O6  XMP d           1.994  36.802  45.624  0.00  0.00    -0.265 OA
ATOM     21  N7  XMP d           2.014  38.939  47.789  0.00  0.00    -0.234 NA
ATOM     22  C8  XMP d           1.746  40.148  48.212  0.00  0.00     0.071 A 
ATOM     23  H7  XMP d           1.987  40.483  49.221  0.00  0.00     0.144 H 
ENDBRANCH   3  10
BRANCH   4  24
ATOM     24  O2' XMP d          -0.071  43.940  49.123  0.00  0.00    -0.388 OA
ATOM     25  H9  XMP d          -0.859  43.415  49.206  0.00  0.00     0.210 HD
ENDBRANCH   4  24
BRANCH   1  26
ATOM     26  C5' XMP d           3.213  44.436  45.981  0.00  0.00     0.059 C 
ATOM     27  H1  XMP d           3.310  45.490  45.682  0.00  0.00     0.079 H 
ATOM     28  H2  XMP d           4.108  44.130  46.541  0.00  0.00     0.079 H 
BRANCH  26  29
ATOM     29  O5' XMP d           3.080  43.620  44.813  0.00  0.00    -0.280 OA
BRANCH  29  30
ATOM     30  P   XMP d           4.035  42.366  44.506  0.00  0.00     0.422 P 
ATOM     31  O1P XMP d           5.280  42.816  43.880  0.00  0.00    -0.617 OA
ATOM     32  O2P XMP d           3.246  41.476  43.583  0.00  0.00    -0.617 OA
ATOM     33  O3P XMP d           4.285  41.694  45.879  0.00  0.00    -0.617 OA
ENDBRANCH  29  30
ENDBRANCH  26  29
ENDBRANCH   1  26
BRANCH   5  34
ATOM     34  O3' XMP d           2.311  45.078  49.153  0.00  0.00    -0.390 OA
ATOM     35  H11 XMP d           1.443  45.329  49.447  0.00  0.00     0.210 HD
ENDBRANCH   5  34
TORSDOF 6
ENDMDL
MODEL 5
REMARK VINA RESULT:      -6.4      1.935      3.708
REMARK  6 active torsions:
REMARK  status: ('A' for Active; 'I' for Inactive)
REMARK    1  A    between atoms: P_1  and  O5'_4 
REMARK    2  A    between atoms: O5'_4  and  C5'_6 
REMARK    3  A    between atoms: C5'_6  and  C4'_7 
REMARK    4  A    between atoms: C1'_9  and  N9_10 
REMARK    5  A    between atoms: C2'_21  and  O2'_22 
REMARK    6  A    between atoms: C3'_23  and  O3'_24 
ROOT
ATOM      1  C4' XMP d           3.458  41.002  44.148  0.00  0.00     0.089 C 
ATOM      2  O4' XMP d           2.887  42.345  44.288  0.00  0.00    -0.353 OA
ATOM      3  C1' XMP d           3.950  43.315  44.259  0.00  0.00     0.139 C 
ATOM      4  C2' XMP d           5.266  42.561  44.129  0.00  0.00     0.105 C 
ATOM      5  C3' XMP d           4.909  41.176  44.585  0.00  0.00     0.091 C 
ATOM      6  H3  XMP d           3.432  40.647  43.107  0.00  0.00     0.090 H 
ATOM      7  H4  XMP d           3.844  43.953  43.370  0.00  0.00     0.122 H 
ATOM      8  H8  XMP d           6.033  43.002  44.781  0.00  0.00     0.093 H 
ATOM      9  H10 XMP d           4.983  41.103  45.680  0.00  0.00     0.091 H 
ENDROOT
BRANCH   3  10
ATOM     10  N9  XMP d           3.777  44.173  45.454  0.00  0.00    -0.295 N 
ATOM     11  C4  XMP d           2.634  44.185  46.226  0.00  0.00     0.149 A 
ATOM     12  N3  XMP d           1.492  43.427  46.028  0.00  0.00    -0.292 N 
ATOM     13  C5  XMP d           2.879  45.104  47.226  0.00  0.00     0.170 A 
ATOM     14  C2  XMP d           0.545  43.676  46.976  0.00  0.00     0.328 A 
ATOM     15  H5  XMP d           1.375  42.775  45.278  0.00  0.00     0.172 HD
ATOM     16  N1  XMP d           0.707  44.590  48.023  0.00  0.00    -0.273 N 
ATOM     17  O2  XMP d          -0.538  43.098  46.973  0.00  0.00    -0.247 OA
ATOM     18  C6  XMP d           1.893  45.369  48.217  0.00  0.00     0.282 A 
ATOM     19  H6  XMP d          -0.046  44.705  48.671  0.00  0.00     0.173 HD
ATOM     20  O6  XMP d           1.977  46.154  49.153  0.00  0.00    -0.265 OA
ATOM     21  N7  XMP d           4.170  45.683  47.099  0.00  0.00    -0.234 NA
ATOM     22  C8  XMP d           4.635  45.081  46.033  0.00  0.00     0.071 A 
ATOM     23  H7  XMP d           5.628  45.284  45.633  0.00  0.00     0.144 H 
ENDBRANCH   3  10
BRANCH   4  24
ATOM     24  O2' XMP d           5.748  42.553  42.779  0.00  0.00    -0.388 OA
ATOM     25  H9  XMP d           6.346  43.281  42.653  0.00  0.00     0.210 HD
ENDBRANCH   4  24
BRANCH   1  26
ATOM     26  C5' XMP d           2.568  40.127  44.992  0.00  0.00     0.059 C 
ATOM     27  H1  XMP d           3.084  39.878  45.931  0.00  0.00     0.079 H 
ATOM     28  H2  XMP d           1.635  40.664  45.217  0.00  0.00     0.079 H 
BRANCH  26  29
ATOM     29  O5' XMP d           2.262  38.921  44.284  0.00  0.00    -0.280 OA
BRANCH  29  30
ATOM     30  P   XMP d           2.809  37.479  44.732  0.00  0.00     0.422 P 
ATOM     31  O1P XMP d           2.839  37.378  46.193  0.00  0.00    -0.617 OA
ATOM     32  O2P XMP d           4.192  37.374  44.145  0.00  0.00    -0.617 OA
ATOM     33  O3P XMP d           1.836  36.455  44.099  0.00  0.00    -0.617 OA
ENDBRANCH  29  30
ENDBRANCH  26  29
ENDBRANCH   1  26
BRANCH   5  34
ATOM     34  O3' XMP d           5.778  40.216  44.006  0.00  0.00    -0.390 OA
ATOM     35  H11 XMP d           6.449  39.979  44.634  0.00  0.00     0.210 HD
ENDBRANCH   5  34
TORSDOF 6
ENDMDL
MODEL 6
REMARK VINA RESULT:      -6.3      2.960      6.882
REMARK  6 active torsions:
REMARK  status: ('A' for Active; 'I' for Inactive)
REMARK    1  A    between atoms: P_1  and  O5'_4 
REMARK    2  A    between atoms: O5'_4  and  C5'_6 
REMARK    3  A    between atoms: C5'_6  and  C4'_7 
REMARK    4  A    between atoms: C1'_9  and  N9_10 
REMARK    5  A    between atoms: C2'_21  and  O2'_22 
REMARK    6  A    between atoms: C3'_23  and  O3'_24 
ROOT
ATOM      1  C4' XMP d           3.689  43.824  45.968  0.00  0.00     0.089 C 
ATOM      2  O4' XMP d           3.776  42.381  46.210  0.00  0.00    -0.353 OA
ATOM      3  C1' XMP d           4.180  41.721  44.997  0.00  0.00     0.139 C 
ATOM      4  C2' XMP d           4.329  42.783  43.916  0.00  0.00     0.105 C 
ATOM      5  C3' XMP d           3.523  43.928  44.455  0.00  0.00     0.091 C 
ATOM      6  H3  XMP d           4.606  44.350  46.269  0.00  0.00     0.090 H 
ATOM      7  H4  XMP d           5.166  41.254  45.140  0.00  0.00     0.122 H 
ATOM      8  H8  XMP d           3.914  42.427  42.962  0.00  0.00     0.093 H 
ATOM      9  H10 XMP d           2.462  43.811  44.185  0.00  0.00     0.091 H 
ENDROOT
BRANCH   3  10
ATOM     10  N9  XMP d           3.200  40.638  44.752  0.00  0.00    -0.295 N 
ATOM     11  C4  XMP d           3.506  39.296  44.845  0.00  0.00     0.149 A 
ATOM     12  N3  XMP d           4.735  38.747  45.168  0.00  0.00    -0.292 N 
ATOM     13  C5  XMP d           2.332  38.634  44.550  0.00  0.00     0.170 A 
ATOM     14  C2  XMP d           4.698  37.385  45.177  0.00  0.00     0.328 A 
ATOM     15  H5  XMP d           5.554  39.285  45.372  0.00  0.00     0.172 HD
ATOM     16  N1  XMP d           3.554  36.631  44.890  0.00  0.00    -0.273 N 
ATOM     17  O2  XMP d           5.690  36.714  45.446  0.00  0.00    -0.247 OA
ATOM     18  C6  XMP d           2.288  37.211  44.555  0.00  0.00     0.282 A 
ATOM     19  H6  XMP d           3.625  35.634  44.920  0.00  0.00     0.173 HD
ATOM     20  O6  XMP d           1.321  36.499  44.312  0.00  0.00    -0.265 OA
ATOM     21  N7  XMP d           1.277  39.541  44.266  0.00  0.00    -0.234 NA
ATOM     22  C8  XMP d           1.868  40.701  44.408  0.00  0.00     0.071 A 
ATOM     23  H7  XMP d           1.345  41.645  44.265  0.00  0.00     0.144 H 
ENDBRANCH   3  10
BRANCH   4  24
ATOM     24  O2' XMP d           5.698  43.160  43.720  0.00  0.00    -0.388 OA
ATOM     25  H9  XMP d           5.955  43.777  44.395  0.00  0.00     0.210 HD
ENDBRANCH   4  24
BRANCH   1  26
ATOM     26  C5' XMP d           2.547  44.282  46.837  0.00  0.00     0.059 C 
ATOM     27  H1  XMP d           2.893  44.372  47.877  0.00  0.00     0.079 H 
ATOM     28  H2  XMP d           2.188  45.259  46.483  0.00  0.00     0.079 H 
BRANCH  26  29
ATOM     29  O5' XMP d           1.479  43.331  46.772  0.00  0.00    -0.280 OA
BRANCH  29  30
ATOM     30  P   XMP d           0.677  42.825  48.068  0.00  0.00     0.422 P 
ATOM     31  O1P XMP d          -0.067  43.934  48.672  0.00  0.00    -0.617 OA
ATOM     32  O2P XMP d           1.726  42.291  49.007  0.00  0.00    -0.617 OA
ATOM     33  O3P XMP d          -0.264  41.705  47.559  0.00  0.00    -0.617 OA
ENDBRANCH  29  30
ENDBRANCH  26  29
ENDBRANCH   1  26
BRANCH   5  34
ATOM     34  O3' XMP d           3.989  45.161  43.933  0.00  0.00    -0.390 OA
ATOM     35  H11 XMP d           4.933  45.124  43.832  0.00  0.00     0.210 HD
ENDBRANCH   5  34
TORSDOF 6
ENDMDL
MODEL 7
REMARK VINA RESULT:      -6.0      3.092      6.312
REMARK  6 active torsions:
REMARK  status: ('A' for Active; 'I' for Inactive)
REMARK    1  A    between atoms: P_1  and  O5'_4 
REMARK    2  A    between atoms: O5'_4  and  C5'_6 
REMARK    3  A    between atoms: C5'_6  and  C4'_7 
REMARK    4  A    between atoms: C1'_9  and  N9_10 
REMARK    5  A    between atoms: C2'_21  and  O2'_22 
REMARK    6  A    between atoms: C3'_23  and  O3'_24 
ROOT
ATOM      1  C4' XMP d           3.552  43.319  45.586  0.00  0.00     0.089 C 
ATOM      2  O4' XMP d           4.114  42.080  46.129  0.00  0.00    -0.353 OA
ATOM      3  C1' XMP d           4.811  41.379  45.084  0.00  0.00     0.139 C 
ATOM      4  C2' XMP d           4.663  42.186  43.802  0.00  0.00     0.105 C 
ATOM      5  C3' XMP d           3.473  43.054  44.085  0.00  0.00     0.091 C 
ATOM      6  H3  XMP d           4.204  44.185  45.767  0.00  0.00     0.090 H 
ATOM      7  H4  XMP d           5.884  41.330  45.323  0.00  0.00     0.122 H 
ATOM      8  H8  XMP d           4.470  41.524  42.945  0.00  0.00     0.093 H 
ATOM      9  H10 XMP d           2.542  42.518  43.847  0.00  0.00     0.091 H 
ENDROOT
BRANCH   3  10
ATOM     10  N9  XMP d           4.287  39.993  45.076  0.00  0.00    -0.295 N 
ATOM     11  C4  XMP d           2.963  39.679  44.852  0.00  0.00     0.149 A 
ATOM     12  N3  XMP d           1.930  40.568  44.606  0.00  0.00    -0.292 N 
ATOM     13  C5  XMP d           2.899  38.302  44.924  0.00  0.00     0.170 A 
ATOM     14  C2  XMP d           0.741  39.928  44.423  0.00  0.00     0.328 A 
ATOM     15  H5  XMP d           2.043  41.561  44.567  0.00  0.00     0.172 HD
ATOM     16  N1  XMP d           0.582  38.539  44.479  0.00  0.00    -0.273 N 
ATOM     17  O2  XMP d          -0.294  40.546  44.188  0.00  0.00    -0.247 OA
ATOM     18  C6  XMP d           1.658  37.629  44.736  0.00  0.00     0.282 A 
ATOM     19  H6  XMP d          -0.332  38.161  44.333  0.00  0.00     0.173 HD
ATOM     20  O6  XMP d           1.458  36.422  44.774  0.00  0.00    -0.265 OA
ATOM     21  N7  XMP d           4.170  37.732  45.195  0.00  0.00    -0.234 NA
ATOM     22  C8  XMP d           4.935  38.793  45.269  0.00  0.00     0.071 A 
ATOM     23  H7  XMP d           6.004  38.731  45.468  0.00  0.00     0.144 H 
ENDBRANCH   3  10
BRANCH   4  24
ATOM     24  O2' XMP d           5.827  42.977  43.529  0.00  0.00    -0.388 OA
ATOM     25  H9  XMP d           6.071  43.460  44.311  0.00  0.00     0.210 HD
ENDBRANCH   4  24
BRANCH   1  26
ATOM     26  C5' XMP d           2.260  43.506  46.338  0.00  0.00     0.059 C 
ATOM     27  H1  XMP d           2.325  44.414  46.956  0.00  0.00     0.079 H 
ATOM     28  H2  XMP d           1.431  43.609  45.622  0.00  0.00     0.079 H 
BRANCH  26  29
ATOM     29  O5' XMP d           2.021  42.373  47.180  0.00  0.00    -0.280 OA
BRANCH  29  30
ATOM     30  P   XMP d           0.569  41.996  47.752  0.00  0.00     0.422 P 
ATOM     31  O1P XMP d           0.436  42.445  49.140  0.00  0.00    -0.617 OA
ATOM     32  O2P XMP d           0.472  40.497  47.647  0.00  0.00    -0.617 OA
ATOM     33  O3P XMP d          -0.439  42.705  46.814  0.00  0.00    -0.617 OA
ENDBRANCH  29  30
ENDBRANCH  26  29
ENDBRANCH   1  26
BRANCH   5  34
ATOM     34  O3' XMP d           3.521  44.243  43.313  0.00  0.00    -0.390 OA
ATOM     35  H11 XMP d           4.404  44.594  43.329  0.00  0.00     0.210 HD
ENDBRANCH   5  34
TORSDOF 6
ENDMDL
MODEL 8
REMARK VINA RESULT:      -5.7      3.173      6.749
REMARK  6 active torsions:
REMARK  status: ('A' for Active; 'I' for Inactive)
REMARK    1  A    between atoms: P_1  and  O5'_4 
REMARK    2  A    between atoms: O5'_4  and  C5'_6 
REMARK    3  A    between atoms: C5'_6  and  C4'_7 
REMARK    4  A    between atoms: C1'_9  and  N9_10 
REMARK    5  A    between atoms: C2'_21  and  O2'_22 
REMARK    6  A    between atoms: C3'_23  and  O3'_24 
ROOT
ATOM      1  C4' XMP d           4.117  43.058  45.783  0.00  0.00     0.089 C 
ATOM      2  O4' XMP d           4.713  41.727  45.923  0.00  0.00    -0.353 OA
ATOM      3  C1' XMP d           5.105  41.246  44.625  0.00  0.00     0.139 C 
ATOM      4  C2' XMP d           4.712  42.300  43.599  0.00  0.00     0.105 C 
ATOM      5  C3' XMP d           3.675  43.107  44.323  0.00  0.00     0.091 C 
ATOM      6  H3  XMP d           4.845  43.861  45.969  0.00  0.00     0.090 H 
ATOM      7  H4  XMP d           6.198  41.135  44.585  0.00  0.00     0.122 H 
ATOM      8  H8  XMP d           4.286  41.829  42.702  0.00  0.00     0.093 H 
ATOM      9  H10 XMP d           2.684  42.641  44.216  0.00  0.00     0.091 H 
ENDROOT
BRANCH   3  10
ATOM     10  N9  XMP d           4.510  39.897  44.472  0.00  0.00    -0.295 N 
ATOM     11  C4  XMP d           3.179  39.619  44.704  0.00  0.00     0.149 A 
ATOM     12  N3  XMP d           2.203  40.515  45.107  0.00  0.00    -0.292 N 
ATOM     13  C5  XMP d           3.039  38.271  44.449  0.00  0.00     0.170 A 
ATOM     14  C2  XMP d           0.987  39.916  45.241  0.00  0.00     0.328 A 
ATOM     15  H5  XMP d           2.370  41.487  45.278  0.00  0.00     0.172 HD
ATOM     16  N1  XMP d           0.753  38.557  45.005  0.00  0.00    -0.273 N 
ATOM     17  O2  XMP d          -0.008  40.548  45.586  0.00  0.00    -0.247 OA
ATOM     18  C6  XMP d           1.771  37.639  44.590  0.00  0.00     0.282 A 
ATOM     19  H6  XMP d          -0.176  38.208  45.132  0.00  0.00     0.173 HD
ATOM     20  O6  XMP d           1.506  36.459  44.399  0.00  0.00    -0.265 OA
ATOM     21  N7  XMP d           4.270  37.682  44.057  0.00  0.00    -0.234 NA
ATOM     22  C8  XMP d           5.087  38.705  44.094  0.00  0.00     0.071 A 
ATOM     23  H7  XMP d           6.143  38.620  43.843  0.00  0.00     0.144 H 
ENDBRANCH   3  10
BRANCH   4  24
ATOM     24  O2' XMP d           5.827  43.115  43.215  0.00  0.00    -0.388 OA
ATOM     25  H9  XMP d           5.510  43.909  42.802  0.00  0.00     0.210 HD
ENDBRANCH   4  24
BRANCH   1  26
ATOM     26  C5' XMP d           3.049  43.104  46.845  0.00  0.00     0.059 C 
ATOM     27  H1  XMP d           2.481  42.161  46.833  0.00  0.00     0.079 H 
ATOM     28  H2  XMP d           3.519  43.236  47.831  0.00  0.00     0.079 H 
BRANCH  26  29
ATOM     29  O5' XMP d           2.160  44.197  46.592  0.00  0.00    -0.280 OA
BRANCH  29  30
ATOM     30  P   XMP d           1.077  44.711  47.660  0.00  0.00     0.422 P 
ATOM     31  O1P XMP d           1.217  46.154  47.872  0.00  0.00    -0.617 OA
ATOM     32  O2P XMP d           1.359  43.940  48.922  0.00  0.00    -0.617 OA
ATOM     33  O3P XMP d          -0.302  44.344  47.057  0.00  0.00    -0.617 OA
ENDBRANCH  29  30
ENDBRANCH  26  29
ENDBRANCH   1  26
BRANCH   5  34
ATOM     34  O3' XMP d           3.615  44.427  43.810  0.00  0.00    -0.390 OA
ATOM     35  H11 XMP d           2.737  44.603  43.493  0.00  0.00     0.210 HD
ENDBRANCH   5  34
TORSDOF 6
ENDMDL
MODEL 9
REMARK VINA RESULT:      -5.7      3.037      6.796
REMARK  6 active torsions:
REMARK  status: ('A' for Active; 'I' for Inactive)
REMARK    1  A    between atoms: P_1  and  O5'_4 
REMARK    2  A    between atoms: O5'_4  and  C5'_6 
REMARK    3  A    between atoms: C5'_6  and  C4'_7 
REMARK    4  A    between atoms: C1'_9  and  N9_10 
REMARK    5  A    between atoms: C2'_21  and  O2'_22 
REMARK    6  A    between atoms: C3'_23  and  O3'_24 
ROOT
ATOM      1  C4' XMP d           3.359  43.402  45.564  0.00  0.00     0.089 C 
ATOM      2  O4' XMP d           4.122  42.210  45.947  0.00  0.00    -0.353 OA
ATOM      3  C1' XMP d           5.041  41.878  44.891  0.00  0.00     0.139 C 
ATOM      4  C2' XMP d           4.838  42.881  43.763  0.00  0.00     0.105 C 
ATOM      5  C3' XMP d           3.470  43.430  44.042  0.00  0.00     0.091 C 
ATOM      6  H3  XMP d           3.795  44.323  45.977  0.00  0.00     0.090 H 
ATOM      7  H4  XMP d           6.074  41.989  45.251  0.00  0.00     0.122 H 
ATOM      8  H8  XMP d           4.866  42.377  42.786  0.00  0.00     0.093 H 
ATOM      9  H10 XMP d           2.699  42.784  43.597  0.00  0.00     0.091 H 
ENDROOT
BRANCH   3  10
ATOM     10  N9  XMP d           4.826  40.447  44.572  0.00  0.00    -0.295 N 
ATOM     11  C4  XMP d           3.988  39.623  45.292  0.00  0.00     0.149 A 
ATOM     12  N3  XMP d           3.229  39.972  46.396  0.00  0.00    -0.292 N 
ATOM     13  C5  XMP d           4.070  38.392  44.674  0.00  0.00     0.170 A 
ATOM     14  C2  XMP d           2.505  38.919  46.870  0.00  0.00     0.328 A 
ATOM     15  H5  XMP d           3.214  40.887  46.799  0.00  0.00     0.172 HD
ATOM     16  N1  XMP d           2.527  37.638  46.308  0.00  0.00    -0.273 N 
ATOM     17  O2  XMP d           1.765  39.031  47.843  0.00  0.00    -0.247 OA
ATOM     18  C6  XMP d           3.317  37.288  45.166  0.00  0.00     0.282 A 
ATOM     19  H6  XMP d           1.961  36.928  46.727  0.00  0.00     0.173 HD
ATOM     20  O6  XMP d           3.296  36.148  44.718  0.00  0.00    -0.265 OA
ATOM     21  N7  XMP d           4.957  38.420  43.566  0.00  0.00    -0.234 NA
ATOM     22  C8  XMP d           5.360  39.666  43.571  0.00  0.00     0.071 A 
ATOM     23  H7  XMP d           6.065  40.056  42.837  0.00  0.00     0.144 H 
ENDBRANCH   3  10
BRANCH   4  24
ATOM     24  O2' XMP d           5.827  43.918  43.784  0.00  0.00    -0.388 OA
ATOM     25  H9  XMP d           5.825  44.373  42.950  0.00  0.00     0.210 HD
ENDBRANCH   4  24
BRANCH   1  26
ATOM     26  C5' XMP d           1.996  43.184  46.167  0.00  0.00     0.059 C 
ATOM     27  H1  XMP d           1.286  43.907  45.738  0.00  0.00     0.079 H 
ATOM     28  H2  XMP d           1.657  42.161  45.945  0.00  0.00     0.079 H 
BRANCH  26  29
ATOM     29  O5' XMP d           2.060  43.366  47.585  0.00  0.00    -0.280 OA
BRANCH  29  30
ATOM     30  P   XMP d           2.026  44.811  48.286  0.00  0.00     0.422 P 
ATOM     31  O1P XMP d           2.010  45.868  47.272  0.00  0.00    -0.617 OA
ATOM     32  O2P XMP d           3.272  44.877  49.130  0.00  0.00    -0.617 OA
ATOM     33  O3P XMP d           0.743  44.818  49.153  0.00  0.00    -0.617 OA
ENDBRANCH  29  30
ENDBRANCH  26  29
ENDBRANCH   1  26
BRANCH   5  34
ATOM     34  O3' XMP d           3.333  44.735  43.505  0.00  0.00    -0.390 OA
ATOM     35  H11 XMP d           3.851  45.344  44.018  0.00  0.00     0.210 HD
ENDBRANCH   5  34
TORSDOF 6
ENDMDL
MODEL 10
REMARK VINA RESULT:      -5.4      2.898      6.274
REMARK  6 active torsions:
REMARK  status: ('A' for Active; 'I' for Inactive)
REMARK    1  A    between atoms: P_1  and  O5'_4 
REMARK    2  A    between atoms: O5'_4  and  C5'_6 
REMARK    3  A    between atoms: C5'_6  and  C4'_7 
REMARK    4  A    between atoms: C1'_9  and  N9_10 
REMARK    5  A    between atoms: C2'_21  and  O2'_22 
REMARK    6  A    between atoms: C3'_23  and  O3'_24 
ROOT
ATOM      1  C4' XMP d           3.245  43.357  45.590  0.00  0.00     0.089 C 
ATOM      2  O4' XMP d           4.092  42.188  45.850  0.00  0.00    -0.353 OA
ATOM      3  C1' XMP d           5.159  42.155  44.885  0.00  0.00     0.139 C 
ATOM      4  C2' XMP d           4.973  43.336  43.943  0.00  0.00     0.105 C 
ATOM      5  C3' XMP d           3.528  43.692  44.129  0.00  0.00     0.091 C 
ATOM      6  H3  XMP d           3.520  44.215  46.220  0.00  0.00     0.090 H 
ATOM      7  H4  XMP d           6.124  42.288  45.397  0.00  0.00     0.122 H 
ATOM      8  H8  XMP d           5.172  43.039  42.903  0.00  0.00     0.093 H 
ATOM      9  H10 XMP d           2.894  43.077  43.473  0.00  0.00     0.091 H 
ENDROOT
BRANCH   3  10
ATOM     10  N9  XMP d           5.151  40.801  44.284  0.00  0.00    -0.295 N 
ATOM     11  C4  XMP d           4.639  39.688  44.919  0.00  0.00     0.149 A 
ATOM     12  N3  XMP d           4.067  39.642  46.179  0.00  0.00    -0.292 N 
ATOM     13  C5  XMP d           4.820  38.648  44.030  0.00  0.00     0.170 A 
ATOM     14  C2  XMP d           3.658  38.384  46.506  0.00  0.00     0.328 A 
ATOM     15  H5  XMP d           3.966  40.436  46.778  0.00  0.00     0.172 HD
ATOM     16  N1  XMP d           3.801  37.272  45.669  0.00  0.00    -0.273 N 
ATOM     17  O2  XMP d           3.121  38.140  47.583  0.00  0.00    -0.247 OA
ATOM     18  C6  XMP d           4.396  37.332  44.368  0.00  0.00     0.282 A 
ATOM     19  H6  XMP d           3.471  36.387  45.998  0.00  0.00     0.173 HD
ATOM     20  O6  XMP d           4.495  36.323  43.680  0.00  0.00    -0.265 OA
ATOM     21  N7  XMP d           5.445  39.086  42.833  0.00  0.00    -0.234 NA
ATOM     22  C8  XMP d           5.606  40.365  43.060  0.00  0.00     0.071 A 
ATOM     23  H7  XMP d           6.066  41.035  42.335  0.00  0.00     0.144 H 
ENDBRANCH   3  10
BRANCH   4  24
ATOM     24  O2' XMP d           5.826  44.436  44.287  0.00  0.00    -0.388 OA
ATOM     25  H9  XMP d           5.697  45.143  43.664  0.00  0.00     0.210 HD
ENDBRANCH   4  24
BRANCH   1  26
ATOM     26  C5' XMP d           1.856  42.900  45.953  0.00  0.00     0.059 C 
ATOM     27  H1  XMP d           1.402  43.626  46.645  0.00  0.00     0.079 H 
ATOM     28  H2  XMP d           1.244  42.830  45.042  0.00  0.00     0.079 H 
BRANCH  26  29
ATOM     29  O5' XMP d           1.917  41.617  46.584  0.00  0.00    -0.280 OA
BRANCH  29  30
ATOM     30  P   XMP d           0.844  41.123  47.672  0.00  0.00     0.422 P 
ATOM     31  O1P XMP d           0.231  39.862  47.246  0.00  0.00    -0.617 OA
ATOM     32  O2P XMP d          -0.176  42.228  47.761  0.00  0.00    -0.617 OA
ATOM     33  O3P XMP d           1.638  40.966  48.992  0.00  0.00    -0.617 OA
ENDBRANCH  29  30
ENDBRANCH  26  29
ENDBRANCH   1  26
BRANCH   5  34
ATOM     34  O3' XMP d           3.303  45.059  43.825  0.00  0.00    -0.390 OA
ATOM     35  H11 XMP d           4.114  45.543  43.927  0.00  0.00     0.210 HD
ENDBRANCH   5  34
TORSDOF 6
ENDMDL
