MODEL 1
REMARK VINA RESULT:      -7.6      0.000      0.000
REMARK  4 active torsions:
REMARK  status: ('A' for Active; 'I' for Inactive)
REMARK    1  A    between atoms: CA_2  and  N_1 
REMARK    2  A    between atoms: CA_2  and  CB_5 
REMARK    3  A    between atoms: CA_2  and  C_3 
REMARK    4  A    between atoms: CB_5  and  CG_6 
ROOT
ATOM      1  CG  TRP d         -26.790  -4.069 -21.632  0.00  0.00    -0.028 A 
ATOM      2  CD1 TRP d         -25.923  -3.571 -22.569  0.00  0.00    -0.015 A 
ATOM      3  CD2 TRP d         -28.048  -3.422 -21.867  0.00  0.00    -0.002 A 
ATOM      4  NE1 TRP d         -26.565  -2.663 -23.374  0.00  0.00    -0.365 N 
ATOM      5  CE2 TRP d         -27.870  -2.553 -22.975  0.00  0.00     0.042 A 
ATOM      6  CE3 TRP d         -29.310  -3.506 -21.263  0.00  0.00    -0.070 A 
ATOM      7  CZ2 TRP d         -28.900  -1.758 -23.483  0.00  0.00    -0.056 A 
ATOM      8  CZ3 TRP d         -30.342  -2.713 -21.768  0.00  0.00    -0.082 A 
ATOM      9  CH2 TRP d         -30.127  -1.850 -22.880  0.00  0.00    -0.081 A 
ATOM     10  H7  TRP d         -24.876  -3.855 -22.661  0.00  0.00     0.112 H 
ATOM     11  H8  TRP d         -26.133  -2.146 -24.153  0.00  0.00     0.165 HD
ATOM     12  H9  TRP d         -29.481  -4.170 -20.423  0.00  0.00     0.084 H 
ATOM     13  H10 TRP d         -28.734  -1.093 -24.323  0.00  0.00     0.086 H 
ATOM     14  H11 TRP d         -31.322  -2.755 -21.306  0.00  0.00     0.083 H 
ATOM     15  H12 TRP d         -30.950  -1.254 -23.258  0.00  0.00     0.083 H 
ENDROOT
BRANCH   1  16
ATOM     16  CB  TRP d         -26.491  -5.097 -20.599  0.00  0.00    -0.003 C 
ATOM     17  H5  TRP d         -27.367  -5.756 -20.511  0.00  0.00     0.044 H 
ATOM     18  H6  TRP d         -25.625  -5.682 -20.942  0.00  0.00     0.044 H 
BRANCH  16  19
ATOM     19  CA  TRP d         -26.168  -4.547 -19.199  0.00  0.00     0.186 C 
ATOM     20  H4  TRP d         -27.059  -4.043 -18.796  0.00  0.00     0.101 H 
BRANCH  19  21
ATOM     21  N   TRP d         -25.094  -3.572 -19.287  0.00  0.00    -0.065 N 
ATOM     22  H1  TRP d         -25.372  -2.821 -19.898  0.00  0.00     0.275 HD
ATOM     23  H2  TRP d         -24.266  -4.015 -19.654  0.00  0.00     0.275 HD
ATOM     24  H3  TRP d         -24.899  -3.203 -18.369  0.00  0.00     0.275 HD
ENDBRANCH  19  21
BRANCH  19  25
ATOM     25  C   TRP d         -25.819  -5.726 -18.282  0.00  0.00     0.204 C 
ATOM     26  O   TRP d         -26.614  -6.632 -18.056  0.00  0.00    -0.646 OA
ATOM     27  OXT TRP d         -24.712  -5.818 -17.751  0.00  0.00    -0.646 OA
ENDBRANCH  19  25
ENDBRANCH  16  19
ENDBRANCH   1  16
TORSDOF 4
ENDMDL
