MODEL 1
REMARK VINA RESULT:      -7.7      0.000      0.000
REMARK  4 active torsions:
REMARK  status: ('A' for Active; 'I' for Inactive)
REMARK    1  A    between atoms: CA_2  and  N_1 
REMARK    2  A    between atoms: CA_2  and  CB_5 
REMARK    3  A    between atoms: CA_2  and  C_3 
REMARK    4  A    between atoms: CB_5  and  CG_6 
ROOT
ATOM      1  CG  TRP d         -27.324  -4.462 -21.199  0.00  0.00    -0.028 A 
ATOM      2  CD1 TRP d         -26.178  -4.261 -21.922  0.00  0.00    -0.015 A 
ATOM      3  CD2 TRP d         -28.289  -3.533 -21.711  0.00  0.00    -0.002 A 
ATOM      4  NE1 TRP d         -26.373  -3.272 -22.855  0.00  0.00    -0.365 N 
ATOM      5  CE2 TRP d         -27.659  -2.810 -22.757  0.00  0.00     0.042 A 
ATOM      6  CE3 TRP d         -29.628  -3.256 -21.402  0.00  0.00    -0.070 A 
ATOM      7  CZ2 TRP d         -28.312  -1.814 -23.486  0.00  0.00    -0.056 A 
ATOM      8  CZ3 TRP d         -30.284  -2.261 -22.128  0.00  0.00    -0.082 A 
ATOM      9  CH2 TRP d         -29.619  -1.553 -23.170  0.00  0.00    -0.081 A 
ATOM     10  H7  TRP d         -25.246  -4.806 -21.778  0.00  0.00     0.112 H 
ATOM     11  H8  TRP d         -25.666  -2.932 -23.522  0.00  0.00     0.165 HD
ATOM     12  H9  TRP d         -30.141  -3.800 -20.617  0.00  0.00     0.084 H 
ATOM     13  H10 TRP d         -27.803  -1.268 -24.272  0.00  0.00     0.086 H 
ATOM     14  H11 TRP d         -31.317  -2.024 -21.895  0.00  0.00     0.083 H 
ATOM     15  H12 TRP d         -30.158  -0.793 -23.724  0.00  0.00     0.083 H 
ENDROOT
BRANCH   1  16
ATOM     16  CB  TRP d         -27.531  -5.465 -20.119  0.00  0.00    -0.003 C 
ATOM     17  H5  TRP d         -28.588  -5.766 -20.133  0.00  0.00     0.044 H 
ATOM     18  H6  TRP d         -26.898  -6.337 -20.339  0.00  0.00     0.044 H 
BRANCH  16  19
ATOM     19  CA  TRP d         -27.194  -4.980 -18.698  0.00  0.00     0.186 C 
ATOM     20  H4  TRP d         -27.876  -5.462 -17.982  0.00  0.00     0.101 H 
BRANCH  19  21
ATOM     21  N   TRP d         -27.384  -3.541 -18.610  0.00  0.00    -0.065 N 
ATOM     22  H1  TRP d         -27.267  -3.130 -19.522  0.00  0.00     0.275 HD
ATOM     23  H2  TRP d         -26.703  -3.151 -17.976  0.00  0.00     0.275 HD
ATOM     24  H3  TRP d         -28.311  -3.345 -18.269  0.00  0.00     0.275 HD
ENDBRANCH  19  21
BRANCH  19  25
ATOM     25  C   TRP d         -25.759  -5.406 -18.366  0.00  0.00     0.204 C 
ATOM     26  O   TRP d         -24.789  -4.935 -18.952  0.00  0.00    -0.646 OA
ATOM     27  OXT TRP d         -25.524  -6.226 -17.479  0.00  0.00    -0.646 OA
ENDBRANCH  19  25
ENDBRANCH  16  19
ENDBRANCH   1  16
TORSDOF 4
ENDMDL
MODEL 2
REMARK VINA RESULT:      -6.8      1.609      1.886
REMARK  4 active torsions:
REMARK  status: ('A' for Active; 'I' for Inactive)
REMARK    1  A    between atoms: CA_2  and  N_1 
REMARK    2  A    between atoms: CA_2  and  CB_5 
REMARK    3  A    between atoms: CA_2  and  C_3 
REMARK    4  A    between atoms: CB_5  and  CG_6 
ROOT
ATOM      1  CG  TRP d         -28.187  -5.413 -21.695  0.00  0.00    -0.028 A 
ATOM      2  CD1 TRP d         -28.181  -6.064 -22.901  0.00  0.00    -0.015 A 
ATOM      3  CD2 TRP d         -28.980  -4.232 -21.882  0.00  0.00    -0.002 A 
ATOM      4  NE1 TRP d         -28.925  -5.367 -23.820  0.00  0.00    -0.365 N 
ATOM      5  CE2 TRP d         -29.434  -4.243 -23.226  0.00  0.00     0.042 A 
ATOM      6  CE3 TRP d         -29.365  -3.180 -21.041  0.00  0.00    -0.070 A 
ATOM      7  CZ2 TRP d         -30.240  -3.234 -23.758  0.00  0.00    -0.056 A 
ATOM      8  CZ3 TRP d         -30.170  -2.169 -21.568  0.00  0.00    -0.082 A 
ATOM      9  CH2 TRP d         -30.606  -2.211 -22.924  0.00  0.00    -0.081 A 
ATOM     10  H7  TRP d         -27.660  -7.000 -23.101  0.00  0.00     0.112 H 
ATOM     11  H8  TRP d         -29.076  -5.644 -24.801  0.00  0.00     0.165 HD
ATOM     12  H9  TRP d         -29.045  -3.150 -20.005  0.00  0.00     0.084 H 
ATOM     13  H10 TRP d         -30.564  -3.259 -24.792  0.00  0.00     0.086 H 
ATOM     14  H11 TRP d         -30.469  -1.340 -20.936  0.00  0.00     0.083 H 
ATOM     15  H12 TRP d         -31.240  -1.417 -23.302  0.00  0.00     0.083 H 
ENDROOT
BRANCH   1  16
ATOM     16  CB  TRP d         -27.527  -5.860 -20.438  0.00  0.00    -0.003 C 
ATOM     17  H5  TRP d         -28.311  -6.194 -19.743  0.00  0.00     0.044 H 
ATOM     18  H6  TRP d         -26.868  -6.706 -20.683  0.00  0.00     0.044 H 
BRANCH  16  19
ATOM     19  CA  TRP d         -26.682  -4.791 -19.724  0.00  0.00     0.186 C 
ATOM     20  H4  TRP d         -27.350  -4.021 -19.310  0.00  0.00     0.101 H 
BRANCH  19  21
ATOM     21  N   TRP d         -25.786  -4.153 -20.675  0.00  0.00    -0.065 N 
ATOM     22  H1  TRP d         -24.836  -4.418 -20.471  0.00  0.00     0.275 HD
ATOM     23  H2  TRP d         -25.878  -3.151 -20.603  0.00  0.00     0.275 HD
ATOM     24  H3  TRP d         -26.024  -4.445 -21.610  0.00  0.00     0.275 HD
ENDBRANCH  19  21
BRANCH  19  25
ATOM     25  C   TRP d         -25.931  -5.459 -18.566  0.00  0.00     0.204 C 
ATOM     26  O   TRP d         -26.484  -6.239 -17.797  0.00  0.00    -0.646 OA
ATOM     27  OXT TRP d         -24.732  -5.251 -18.375  0.00  0.00    -0.646 OA
ENDBRANCH  19  25
ENDBRANCH  16  19
ENDBRANCH   1  16
TORSDOF 4
ENDMDL
MODEL 3
REMARK VINA RESULT:      -6.6      2.833      4.849
REMARK  4 active torsions:
REMARK  status: ('A' for Active; 'I' for Inactive)
REMARK    1  A    between atoms: CA_2  and  N_1 
REMARK    2  A    between atoms: CA_2  and  CB_5 
REMARK    3  A    between atoms: CA_2  and  C_3 
REMARK    4  A    between atoms: CB_5  and  CG_6 
ROOT
ATOM      1  CG  TRP d         -27.660  -4.180 -22.563  0.00  0.00    -0.028 A 
ATOM      2  CD1 TRP d         -26.438  -3.593 -22.756  0.00  0.00    -0.015 A 
ATOM      3  CD2 TRP d         -27.580  -4.870 -21.308  0.00  0.00    -0.002 A 
ATOM      4  NE1 TRP d         -25.608  -3.868 -21.697  0.00  0.00    -0.365 N 
ATOM      5  CE2 TRP d         -26.279  -4.643 -20.789  0.00  0.00     0.042 A 
ATOM      6  CE3 TRP d         -28.485  -5.640 -20.564  0.00  0.00    -0.070 A 
ATOM      7  CZ2 TRP d         -25.850  -5.170 -19.569  0.00  0.00    -0.056 A 
ATOM      8  CZ3 TRP d         -28.060  -6.169 -19.345  0.00  0.00    -0.082 A 
ATOM      9  CH2 TRP d         -26.745  -5.923 -18.856  0.00  0.00    -0.081 A 
ATOM     10  H7  TRP d         -26.164  -2.994 -23.623  0.00  0.00     0.112 H 
ATOM     11  H8  TRP d         -24.634  -3.543 -21.602  0.00  0.00     0.165 HD
ATOM     12  H9  TRP d         -29.490  -5.821 -20.928  0.00  0.00     0.084 H 
ATOM     13  H10 TRP d         -24.846  -4.991 -19.201  0.00  0.00     0.086 H 
ATOM     14  H11 TRP d         -28.742  -6.778 -18.760  0.00  0.00     0.083 H 
ATOM     15  H12 TRP d         -26.447  -6.338 -17.900  0.00  0.00     0.083 H 
ENDROOT
BRANCH   1  16
ATOM     16  CB  TRP d         -28.842  -4.094 -23.463  0.00  0.00    -0.003 C 
ATOM     17  H5  TRP d         -28.522  -4.389 -24.473  0.00  0.00     0.044 H 
ATOM     18  H6  TRP d         -29.601  -4.802 -23.097  0.00  0.00     0.044 H 
BRANCH  16  19
ATOM     19  CA  TRP d         -29.496  -2.705 -23.559  0.00  0.00     0.186 C 
ATOM     20  H4  TRP d         -30.452  -2.793 -24.096  0.00  0.00     0.101 H 
BRANCH  19  21
ATOM     21  N   TRP d         -28.634  -1.804 -24.307  0.00  0.00    -0.065 N 
ATOM     22  H1  TRP d         -28.701  -2.015 -25.290  0.00  0.00     0.275 HD
ATOM     23  H2  TRP d         -27.680  -1.920 -24.003  0.00  0.00     0.275 HD
ATOM     24  H3  TRP d         -28.924  -0.852 -24.147  0.00  0.00     0.275 HD
ENDBRANCH  19  21
BRANCH  19  25
ATOM     25  C   TRP d         -29.780  -2.202 -22.139  0.00  0.00     0.204 C 
ATOM     26  O   TRP d         -29.067  -1.369 -21.589  0.00  0.00    -0.646 OA
ATOM     27  OXT TRP d         -30.754  -2.603 -21.500  0.00  0.00    -0.646 OA
ENDBRANCH  19  25
ENDBRANCH  16  19
ENDBRANCH   1  16
TORSDOF 4
ENDMDL
MODEL 4
REMARK VINA RESULT:      -5.1      2.387      2.870
REMARK  4 active torsions:
REMARK  status: ('A' for Active; 'I' for Inactive)
REMARK    1  A    between atoms: CA_2  and  N_1 
REMARK    2  A    between atoms: CA_2  and  CB_5 
REMARK    3  A    between atoms: CA_2  and  C_3 
REMARK    4  A    between atoms: CB_5  and  CG_6 
ROOT
ATOM      1  CG  TRP d         -27.428  -3.743 -21.340  0.00  0.00    -0.028 A 
ATOM      2  CD1 TRP d         -28.121  -2.563 -21.278  0.00  0.00    -0.015 A 
ATOM      3  CD2 TRP d         -28.049  -4.520 -22.373  0.00  0.00    -0.002 A 
ATOM      4  NE1 TRP d         -29.128  -2.556 -22.212  0.00  0.00    -0.365 N 
ATOM      5  CE2 TRP d         -29.107  -3.737 -22.904  0.00  0.00     0.042 A 
ATOM      6  CE3 TRP d         -27.804  -5.790 -22.912  0.00  0.00    -0.070 A 
ATOM      7  CZ2 TRP d         -29.933  -4.186 -23.937  0.00  0.00    -0.056 A 
ATOM      8  CZ3 TRP d         -28.627  -6.242 -23.945  0.00  0.00    -0.082 A 
ATOM      9  CH2 TRP d         -29.682  -5.430 -24.452  0.00  0.00    -0.081 A 
ATOM     10  H7  TRP d         -27.905  -1.749 -20.588  0.00  0.00     0.112 H 
ATOM     11  H8  TRP d         -29.793  -1.784 -22.366  0.00  0.00     0.165 HD
ATOM     12  H9  TRP d         -26.995  -6.406 -22.537  0.00  0.00     0.084 H 
ATOM     13  H10 TRP d         -30.742  -3.573 -24.317  0.00  0.00     0.086 H 
ATOM     14  H11 TRP d         -28.461  -7.227 -24.368  0.00  0.00     0.083 H 
ATOM     15  H12 TRP d         -30.297  -5.804 -25.262  0.00  0.00     0.083 H 
ENDROOT
BRANCH   1  16
ATOM     16  CB  TRP d         -26.247  -4.127 -20.518  0.00  0.00    -0.003 C 
ATOM     17  H5  TRP d         -25.838  -5.062 -20.927  0.00  0.00     0.044 H 
ATOM     18  H6  TRP d         -25.496  -3.328 -20.608  0.00  0.00     0.044 H 
BRANCH  16  19
ATOM     19  CA  TRP d         -26.531  -4.346 -19.022  0.00  0.00     0.186 C 
ATOM     20  H4  TRP d         -26.582  -3.369 -18.519  0.00  0.00     0.101 H 
BRANCH  19  21
ATOM     21  N   TRP d         -25.452  -5.113 -18.421  0.00  0.00    -0.065 N 
ATOM     22  H1  TRP d         -25.199  -5.872 -19.034  0.00  0.00     0.275 HD
ATOM     23  H2  TRP d         -25.757  -5.485 -17.535  0.00  0.00     0.275 HD
ATOM     24  H3  TRP d         -24.654  -4.515 -18.279  0.00  0.00     0.275 HD
ENDBRANCH  19  21
BRANCH  19  25
ATOM     25  C   TRP d         -27.893  -5.037 -18.882  0.00  0.00     0.204 C 
ATOM     26  O   TRP d         -28.032  -6.243 -19.062  0.00  0.00    -0.646 OA
ATOM     27  OXT TRP d         -28.901  -4.406 -18.560  0.00  0.00    -0.646 OA
ENDBRANCH  19  25
ENDBRANCH  16  19
ENDBRANCH   1  16
TORSDOF 4
ENDMDL
MODEL 5
REMARK VINA RESULT:      -4.7      1.824      2.163
REMARK  4 active torsions:
REMARK  status: ('A' for Active; 'I' for Inactive)
REMARK    1  A    between atoms: CA_2  and  N_1 
REMARK    2  A    between atoms: CA_2  and  CB_5 
REMARK    3  A    between atoms: CA_2  and  C_3 
REMARK    4  A    between atoms: CB_5  and  CG_6 
ROOT
ATOM      1  CG  TRP d         -28.344  -3.637 -20.255  0.00  0.00    -0.028 A 
ATOM      2  CD1 TRP d         -28.003  -2.396 -19.787  0.00  0.00    -0.015 A 
ATOM      3  CD2 TRP d         -28.700  -3.462 -21.634  0.00  0.00    -0.002 A 
ATOM      4  NE1 TRP d         -28.117  -1.464 -20.789  0.00  0.00    -0.365 N 
ATOM      5  CE2 TRP d         -28.535  -2.085 -21.935  0.00  0.00     0.042 A 
ATOM      6  CE3 TRP d         -29.122  -4.336 -22.645  0.00  0.00    -0.070 A 
ATOM      7  CZ2 TRP d         -28.794  -1.554 -23.201  0.00  0.00    -0.056 A 
ATOM      8  CZ3 TRP d         -29.381  -3.809 -23.911  0.00  0.00    -0.082 A 
ATOM      9  CH2 TRP d         -29.208  -2.421 -24.178  0.00  0.00    -0.081 A 
ATOM     10  H7  TRP d         -27.687  -2.179 -18.768  0.00  0.00     0.112 H 
ATOM     11  H8  TRP d         -27.919  -0.457 -20.694  0.00  0.00     0.165 HD
ATOM     12  H9  TRP d         -29.244  -5.395 -22.449  0.00  0.00     0.084 H 
ATOM     13  H10 TRP d         -28.671  -0.496 -23.402  0.00  0.00     0.086 H 
ATOM     14  H11 TRP d         -29.720  -4.467 -24.704  0.00  0.00     0.083 H 
ATOM     15  H12 TRP d         -29.406  -2.042 -25.174  0.00  0.00     0.083 H 
ENDROOT
BRANCH   1  16
ATOM     16  CB  TRP d         -28.321  -4.914 -19.491  0.00  0.00    -0.003 C 
ATOM     17  H5  TRP d         -28.495  -4.679 -18.431  0.00  0.00     0.044 H 
ATOM     18  H6  TRP d         -29.138  -5.549 -19.865  0.00  0.00     0.044 H 
BRANCH  16  19
ATOM     19  CA  TRP d         -27.013  -5.717 -19.592  0.00  0.00     0.186 C 
ATOM     20  H4  TRP d         -27.193  -6.626 -20.186  0.00  0.00     0.101 H 
BRANCH  19  21
ATOM     21  N   TRP d         -26.576  -6.120 -18.265  0.00  0.00    -0.065 N 
ATOM     22  H1  TRP d         -27.111  -6.918 -17.963  0.00  0.00     0.275 HD
ATOM     23  H2  TRP d         -26.717  -5.358 -17.619  0.00  0.00     0.275 HD
ATOM     24  H3  TRP d         -25.598  -6.361 -18.291  0.00  0.00     0.275 HD
ENDBRANCH  19  21
BRANCH  19  25
ATOM     25  C   TRP d         -25.970  -4.859 -20.319  0.00  0.00     0.204 C 
ATOM     26  O   TRP d         -25.796  -4.936 -21.531  0.00  0.00    -0.646 OA
ATOM     27  OXT TRP d         -25.278  -4.041 -19.712  0.00  0.00    -0.646 OA
ENDBRANCH  19  25
ENDBRANCH  16  19
ENDBRANCH   1  16
TORSDOF 4
ENDMDL
