MODEL 1
REMARK VINA RESULT:      -7.8      0.000      0.000
REMARK  7 active torsions:
REMARK  status: ('A' for Active; 'I' for Inactive)
REMARK    1  A    between atoms: C9_2  and  C10_3 
REMARK       I    between atoms: C9_2  and  N2_4 
REMARK    2  A    between atoms: N2_4  and  C5_5 
REMARK    3  A    between atoms: C6_6  and  O6_7 
REMARK    4  A    between atoms: C4_8  and  O4_9 
REMARK    5  A    between atoms: C3_10  and  O3_11 
REMARK    6  A    between atoms: C2_12  and  C8_13 
REMARK    7  A    between atoms: C8_13  and  O8_14 
ROOT
ATOM      1  C5  HQ6 d           7.895 -11.646   3.862  0.00  0.00     0.065 C 
ATOM      2  C6  HQ6 d           7.238 -13.077   3.877  0.00  0.00     0.080 C 
ATOM      3  C4  HQ6 d           7.476 -10.633   2.772  0.00  0.00     0.084 C 
ATOM      4  C3  HQ6 d           6.410 -11.044   1.740  0.00  0.00     0.091 C 
ATOM      5  C2  HQ6 d           5.043 -11.414   2.379  0.00  0.00     0.149 C 
ATOM      6  N1  HQ6 d           5.088 -12.820   2.776  0.00  0.00    -0.064 N 
ATOM      7  C7  HQ6 d           5.707 -13.112   4.041  0.00  0.00     0.108 C 
ATOM      8  H5  HQ6 d           8.937 -11.889   3.607  0.00  0.00     0.080 H 
ATOM      9  H6  HQ6 d           7.676 -13.606   4.736  0.00  0.00     0.088 H 
ATOM     10  H8  HQ6 d           7.084  -9.747   3.292  0.00  0.00     0.090 H 
ATOM     11  H10 HQ6 d           6.777 -11.952   1.240  0.00  0.00     0.090 H 
ATOM     12  H12 HQ6 d           4.838 -10.757   3.237  0.00  0.00     0.091 H 
ATOM     13  H16 HQ6 d           5.594 -13.324   2.065  0.00  0.00     0.277 HD
ATOM     14  H17 HQ6 d           4.138 -13.158   2.815  0.00  0.00     0.277 HD
ATOM     15  H18 HQ6 d           5.400 -12.362   4.784  0.00  0.00     0.079 H 
ATOM     16  H19 HQ6 d           5.397 -14.111   4.380  0.00  0.00     0.079 H 
ENDROOT
BRANCH   1  17
ATOM     17  N2  HQ6 d           8.010 -10.882   5.116  0.00  0.00    -0.352 N 
ATOM     18  C9  HQ6 d           6.916 -10.313   5.874  0.00  0.00     0.214 C 
ATOM     19  O9  HQ6 d           5.814 -10.198   5.357  0.00  0.00    -0.274 OA
ATOM     20  H4  HQ6 d           8.932 -10.744   5.479  0.00  0.00     0.163 HD
BRANCH  18  21
ATOM     21  C10 HQ6 d           7.222  -9.879   7.318  0.00  0.00    -0.003 C 
ATOM     22  H1  HQ6 d           6.282  -9.629   7.833  0.00  0.00     0.040 H 
ATOM     23  H2  HQ6 d           7.879  -8.997   7.305  0.00  0.00     0.040 H 
ATOM     24  H3  HQ6 d           7.723 -10.702   7.849  0.00  0.00     0.040 H 
ENDBRANCH  18  21
ENDBRANCH   1  17
BRANCH   2  25
ATOM     25  O6  HQ6 d           7.521 -13.839   2.686  0.00  0.00    -0.392 OA
ATOM     26  H7  HQ6 d           6.983 -13.520   1.972  0.00  0.00     0.210 HD
ENDBRANCH   2  25
BRANCH   3  27
ATOM     27  O4  HQ6 d           8.667 -10.274   2.067  0.00  0.00    -0.391 OA
ATOM     28  H9  HQ6 d           9.287 -10.992   2.110  0.00  0.00     0.210 HD
ENDBRANCH   3  27
BRANCH   4  29
ATOM     29  O3  HQ6 d           6.303 -10.041   0.755  0.00  0.00    -0.391 OA
ATOM     30  H11 HQ6 d           6.961  -9.374   0.911  0.00  0.00     0.210 HD
ENDBRANCH   4  29
BRANCH   5  31
ATOM     31  C8  HQ6 d           3.886 -11.355   1.348  0.00  0.00     0.046 C 
ATOM     32  H13 HQ6 d           4.119 -10.602   0.580  0.00  0.00     0.077 H 
ATOM     33  H14 HQ6 d           2.954 -11.077   1.862  0.00  0.00     0.077 H 
BRANCH  31  34
ATOM     34  O8  HQ6 d           3.725 -12.621   0.734  0.00  0.00    -0.399 OA
ATOM     35  H15 HQ6 d           3.040 -13.104   1.180  0.00  0.00     0.209 HD
ENDBRANCH  31  34
ENDBRANCH   5  31
TORSDOF 7
ENDMDL
MODEL 2
REMARK VINA RESULT:      -5.3      1.971      3.197
REMARK  7 active torsions:
REMARK  status: ('A' for Active; 'I' for Inactive)
REMARK    1  A    between atoms: C9_2  and  C10_3 
REMARK       I    between atoms: C9_2  and  N2_4 
REMARK    2  A    between atoms: N2_4  and  C5_5 
REMARK    3  A    between atoms: C6_6  and  O6_7 
REMARK    4  A    between atoms: C4_8  and  O4_9 
REMARK    5  A    between atoms: C3_10  and  O3_11 
REMARK    6  A    between atoms: C2_12  and  C8_13 
REMARK    7  A    between atoms: C8_13  and  O8_14 
ROOT
ATOM      1  C5  HQ6 d           5.908 -10.954   3.759  0.00  0.00     0.065 C 
ATOM      2  C6  HQ6 d           6.095 -10.297   2.339  0.00  0.00     0.080 C 
ATOM      3  C4  HQ6 d           5.516 -12.446   3.855  0.00  0.00     0.084 C 
ATOM      4  C3  HQ6 d           5.338 -13.258   2.559  0.00  0.00     0.091 C 
ATOM      5  C2  HQ6 d           6.621 -13.317   1.686  0.00  0.00     0.149 C 
ATOM      6  N1  HQ6 d           6.659 -12.125   0.842  0.00  0.00    -0.064 N 
ATOM      7  C7  HQ6 d           7.179 -10.926   1.444  0.00  0.00     0.108 C 
ATOM      8  H5  HQ6 d           5.018 -10.424   4.127  0.00  0.00     0.080 H 
ATOM      9  H6  HQ6 d           6.381  -9.250   2.521  0.00  0.00     0.088 H 
ATOM     10  H8  HQ6 d           6.306 -12.948   4.433  0.00  0.00     0.090 H 
ATOM     11  H10 HQ6 d           4.576 -12.742   1.957  0.00  0.00     0.090 H 
ATOM     12  H12 HQ6 d           7.511 -13.387   2.330  0.00  0.00     0.091 H 
ATOM     13  H16 HQ6 d           5.717 -11.932   0.542  0.00  0.00     0.277 HD
ATOM     14  H17 HQ6 d           7.231 -12.336   0.039  0.00  0.00     0.277 HD
ATOM     15  H18 HQ6 d           8.061 -11.172   2.053  0.00  0.00     0.079 H 
ATOM     16  H19 HQ6 d           7.464 -10.213   0.657  0.00  0.00     0.079 H 
ENDROOT
BRANCH   1  17
ATOM     17  N2  HQ6 d           6.915 -10.720   4.808  0.00  0.00    -0.352 N 
ATOM     18  C9  HQ6 d           6.660 -10.212   6.140  0.00  0.00     0.214 C 
ATOM     19  O9  HQ6 d           5.592  -9.675   6.391  0.00  0.00    -0.274 OA
ATOM     20  H4  HQ6 d           7.865 -10.933   4.579  0.00  0.00     0.163 HD
BRANCH  18  21
ATOM     21  C10 HQ6 d           7.782 -10.389   7.177  0.00  0.00    -0.003 C 
ATOM     22  H1  HQ6 d           8.448 -11.206   6.862  0.00  0.00     0.040 H 
ATOM     23  H2  HQ6 d           7.342 -10.632   8.156  0.00  0.00     0.040 H 
ATOM     24  H3  HQ6 d           8.359  -9.455   7.256  0.00  0.00     0.040 H 
ENDBRANCH  18  21
ENDBRANCH   1  17
BRANCH   2  25
ATOM     25  O6  HQ6 d           4.886 -10.303   1.553  0.00  0.00    -0.392 OA
ATOM     26  H7  HQ6 d           4.437 -11.131   1.672  0.00  0.00     0.210 HD
ENDBRANCH   2  25
BRANCH   3  27
ATOM     27  O4  HQ6 d           4.291 -12.500   4.590  0.00  0.00    -0.391 OA
ATOM     28  H9  HQ6 d           3.748 -13.201   4.248  0.00  0.00     0.210 HD
ENDBRANCH   3  27
BRANCH   4  29
ATOM     29  O3  HQ6 d           4.827 -14.532   2.874  0.00  0.00    -0.391 OA
ATOM     30  H11 HQ6 d           3.877 -14.513   2.827  0.00  0.00     0.210 HD
ENDBRANCH   4  29
BRANCH   5  31
ATOM     31  C8  HQ6 d           6.580 -14.491   0.673  0.00  0.00     0.046 C 
ATOM     32  H13 HQ6 d           6.687 -15.443   1.213  0.00  0.00     0.077 H 
ATOM     33  H14 HQ6 d           7.406 -14.382  -0.045  0.00  0.00     0.077 H 
BRANCH  31  34
ATOM     34  O8  HQ6 d           5.346 -14.480  -0.023  0.00  0.00    -0.399 OA
ATOM     35  H15 HQ6 d           4.772 -13.829   0.363  0.00  0.00     0.209 HD
ENDBRANCH  31  34
ENDBRANCH   5  31
TORSDOF 7
ENDMDL
