MODEL 1
REMARK VINA RESULT:     -10.3      0.000      0.000
REMARK  2 active torsions:
REMARK  status: ('A' for Active; 'I' for Inactive)
REMARK    1  A    between atoms: CG_8  and  CA_2 
REMARK    2  A    between atoms: NM_14  and  CG_8 
ROOT
ATOM      1  CG  MOL d          -7.875 -27.487 -13.948  0.00  0.00     0.154 C 
ATOM      2  CH  MOL d          -6.709 -26.656 -14.668  0.00  0.00    -0.029 C 
ATOM      3  CI  MOL d          -6.996 -25.177 -14.457  0.00  0.00    -0.062 C 
ATOM      4  CJ  MOL d          -6.810 -24.793 -12.973  0.00  0.00    -0.065 C 
ATOM      5  CK  MOL d          -7.685 -25.689 -12.076  0.00  0.00    -0.062 C 
ATOM      6  CL  MOL d          -7.528 -27.173 -12.438  0.00  0.00    -0.029 C 
ATOM      7  H8  MOL d          -6.695 -26.885 -15.744  0.00  0.00     0.037 H 
ATOM      8  H9  MOL d          -5.736 -26.915 -14.225  0.00  0.00     0.037 H 
ATOM      9  H10 MOL d          -8.032 -24.963 -14.759  0.00  0.00     0.033 H 
ATOM     10  H11 MOL d          -6.304 -24.583 -15.074  0.00  0.00     0.033 H 
ATOM     11  H12 MOL d          -7.101 -23.742 -12.831  0.00  0.00     0.033 H 
ATOM     12  H13 MOL d          -5.754 -24.922 -12.695  0.00  0.00     0.033 H 
ATOM     13  H14 MOL d          -8.739 -25.400 -12.202  0.00  0.00     0.033 H 
ATOM     14  H15 MOL d          -7.389 -25.544 -11.027  0.00  0.00     0.033 H 
ATOM     15  H16 MOL d          -6.485 -27.470 -12.250  0.00  0.00     0.037 H 
ATOM     16  H17 MOL d          -8.199 -27.762 -11.795  0.00  0.00     0.037 H 
ENDROOT
BRANCH   1  17
ATOM     17  NM  MOL d          -7.576 -29.019 -14.112  0.00  0.00    -0.058 N 
ATOM     18  CN  MOL d          -8.811 -29.888 -14.492  0.00  0.00     0.085 C 
ATOM     19  CO  MOL d          -8.460 -31.380 -14.625  0.00  0.00    -0.042 C 
ATOM     20  H19 MOL d          -9.578 -29.773 -13.712  0.00  0.00     0.076 H 
ATOM     21  H20 MOL d          -9.211 -29.532 -15.454  0.00  0.00     0.076 H 
ATOM     22  CP  MOL d          -7.304 -31.640 -15.592  0.00  0.00    -0.062 C 
ATOM     23  H21 MOL d          -8.180 -31.764 -13.633  0.00  0.00     0.035 H 
ATOM     24  H22 MOL d          -9.347 -31.918 -14.988  0.00  0.00     0.035 H 
ATOM     25  CQ  MOL d          -6.089 -30.804 -15.141  0.00  0.00    -0.042 C 
ATOM     26  H1  MOL d          -7.044 -32.708 -15.580  0.00  0.00     0.033 H 
ATOM     27  H2  MOL d          -7.599 -31.345 -16.610  0.00  0.00     0.033 H 
ATOM     28  CR  MOL d          -6.394 -29.326 -15.045  0.00  0.00     0.085 C 
ATOM     29  H23 MOL d          -5.274 -30.948 -15.866  0.00  0.00     0.035 H 
ATOM     30  H24 MOL d          -5.765 -31.159 -14.151  0.00  0.00     0.035 H 
ATOM     31  H25 MOL d          -5.502 -28.807 -14.665  0.00  0.00     0.076 H 
ATOM     32  H26 MOL d          -6.635 -28.952 -16.051  0.00  0.00     0.076 H 
ATOM     33  H18 MOL d          -7.294 -29.331 -13.196  0.00  0.00     0.281 HD
ENDBRANCH   1  17
BRANCH   1  34
ATOM     34  CA  MOL d          -9.352 -27.089 -14.429  0.00  0.00    -0.022 A 
ATOM     35  CF  MOL d          -9.600 -26.642 -15.792  0.00  0.00    -0.074 A 
ATOM     36  CE  MOL d         -10.903 -26.304 -16.255  0.00  0.00    -0.082 A 
ATOM     37  H7  MOL d          -8.765 -26.564 -16.478  0.00  0.00     0.084 H 
ATOM     38  CD  MOL d         -12.005 -26.395 -15.425  0.00  0.00    -0.083 A 
ATOM     39  H6  MOL d         -11.033 -25.968 -17.277  0.00  0.00     0.083 H 
ATOM     40  CC  MOL d         -11.788 -26.832 -14.057  0.00  0.00    -0.082 A 
ATOM     41  H5  MOL d         -12.997 -26.149 -15.783  0.00  0.00     0.083 H 
ATOM     42  CB  MOL d         -10.478 -27.175 -13.569  0.00  0.00    -0.074 A 
ATOM     43  H4  MOL d         -12.636 -26.903 -13.385  0.00  0.00     0.083 H 
ATOM     44  H3  MOL d         -10.351 -27.500 -12.542  0.00  0.00     0.084 H 
ENDBRANCH   1  34
TORSDOF 2
ENDMDL
MODEL 2
REMARK VINA RESULT:      -9.9      0.881      3.918
REMARK  2 active torsions:
REMARK  status: ('A' for Active; 'I' for Inactive)
REMARK    1  A    between atoms: CG_8  and  CA_2 
REMARK    2  A    between atoms: NM_14  and  CG_8 
ROOT
ATOM      1  CG  MOL d          -9.377 -28.138 -14.851  0.00  0.00     0.154 C 
ATOM      2  CH  MOL d         -10.719 -28.486 -14.046  0.00  0.00    -0.029 C 
ATOM      3  CI  MOL d         -11.459 -27.181 -13.794  0.00  0.00    -0.062 C 
ATOM      4  CJ  MOL d         -12.005 -26.602 -15.117  0.00  0.00    -0.065 C 
ATOM      5  CK  MOL d         -10.864 -26.435 -16.140  0.00  0.00    -0.062 C 
ATOM      6  CL  MOL d         -10.005 -27.704 -16.236  0.00  0.00    -0.029 C 
ATOM      7  H8  MOL d         -10.468 -28.965 -13.088  0.00  0.00     0.037 H 
ATOM      8  H9  MOL d         -11.348 -29.164 -14.642  0.00  0.00     0.037 H 
ATOM      9  H10 MOL d         -10.768 -26.455 -13.340  0.00  0.00     0.033 H 
ATOM     10  H11 MOL d         -12.298 -27.368 -13.107  0.00  0.00     0.033 H 
ATOM     11  H12 MOL d         -12.464 -25.621 -14.922  0.00  0.00     0.033 H 
ATOM     12  H13 MOL d         -12.763 -27.286 -15.527  0.00  0.00     0.033 H 
ATOM     13  H14 MOL d         -10.226 -25.594 -15.829  0.00  0.00     0.033 H 
ATOM     14  H15 MOL d         -11.297 -26.221 -17.128  0.00  0.00     0.033 H 
ATOM     15  H16 MOL d         -10.636 -28.526 -16.606  0.00  0.00     0.037 H 
ATOM     16  H17 MOL d          -9.188 -27.520 -16.948  0.00  0.00     0.037 H 
ENDROOT
BRANCH   1  17
ATOM     17  NM  MOL d          -8.617 -29.476 -15.165  0.00  0.00    -0.058 N 
ATOM     18  CN  MOL d          -7.067 -29.392 -15.034  0.00  0.00     0.085 C 
ATOM     19  CO  MOL d          -6.378 -30.727 -15.366  0.00  0.00    -0.042 C 
ATOM     20  H19 MOL d          -6.695 -28.621 -15.725  0.00  0.00     0.076 H 
ATOM     21  H20 MOL d          -6.815 -29.112 -14.000  0.00  0.00     0.076 H 
ATOM     22  CP  MOL d          -6.922 -31.901 -14.551  0.00  0.00    -0.062 C 
ATOM     23  H21 MOL d          -6.528 -30.943 -16.434  0.00  0.00     0.035 H 
ATOM     24  H22 MOL d          -5.303 -30.627 -15.160  0.00  0.00     0.035 H 
ATOM     25  CQ  MOL d          -8.449 -31.978 -14.759  0.00  0.00    -0.042 C 
ATOM     26  H1  MOL d          -6.455 -32.837 -14.891  0.00  0.00     0.033 H 
ATOM     27  H2  MOL d          -6.701 -31.746 -13.485  0.00  0.00     0.033 H 
ATOM     28  CR  MOL d          -9.157 -30.693 -14.397  0.00  0.00     0.085 C 
ATOM     29  H23 MOL d          -8.848 -32.789 -14.131  0.00  0.00     0.035 H 
ATOM     30  H24 MOL d          -8.649 -32.202 -15.817  0.00  0.00     0.035 H 
ATOM     31  H25 MOL d         -10.227 -30.805 -14.625  0.00  0.00     0.076 H 
ATOM     32  H26 MOL d          -9.029 -30.513 -13.319  0.00  0.00     0.076 H 
ATOM     33  H18 MOL d          -8.800 -29.659 -16.139  0.00  0.00     0.281 HD
ENDBRANCH   1  17
BRANCH   1  34
ATOM     34  CA  MOL d          -8.445 -27.052 -14.128  0.00  0.00    -0.022 A 
ATOM     35  CF  MOL d          -8.122 -27.166 -12.714  0.00  0.00    -0.074 A 
ATOM     36  CE  MOL d          -7.279 -26.230 -12.050  0.00  0.00    -0.082 A 
ATOM     37  H7  MOL d          -8.535 -27.992 -12.147  0.00  0.00     0.084 H 
ATOM     38  CD  MOL d          -6.717 -25.165 -12.728  0.00  0.00    -0.083 A 
ATOM     39  H6  MOL d          -7.075 -26.355 -10.993  0.00  0.00     0.083 H 
ATOM     40  CC  MOL d          -7.028 -25.020 -14.139  0.00  0.00    -0.082 A 
ATOM     41  H5  MOL d          -6.067 -24.460 -12.223  0.00  0.00     0.083 H 
ATOM     42  CB  MOL d          -7.880 -25.954 -14.828  0.00  0.00    -0.074 A 
ATOM     43  H4  MOL d          -6.605 -24.186 -14.690  0.00  0.00     0.083 H 
ATOM     44  H3  MOL d          -8.090 -25.818 -15.883  0.00  0.00     0.084 H 
ENDBRANCH   1  34
TORSDOF 2
ENDMDL
MODEL 3
REMARK VINA RESULT:      -9.4      1.082      3.831
REMARK  2 active torsions:
REMARK  status: ('A' for Active; 'I' for Inactive)
REMARK    1  A    between atoms: CG_8  and  CA_2 
REMARK    2  A    between atoms: NM_14  and  CG_8 
ROOT
ATOM      1  CG  MOL d          -9.733 -28.151 -14.385  0.00  0.00     0.154 C 
ATOM      2  CH  MOL d         -11.148 -27.943 -13.659  0.00  0.00    -0.029 C 
ATOM      3  CI  MOL d         -11.632 -26.538 -13.982  0.00  0.00    -0.062 C 
ATOM      4  CJ  MOL d         -12.005 -26.422 -15.476  0.00  0.00    -0.065 C 
ATOM      5  CK  MOL d         -10.814 -26.844 -16.359  0.00  0.00    -0.062 C 
ATOM      6  CL  MOL d         -10.212 -28.177 -15.891  0.00  0.00    -0.029 C 
ATOM      7  H8  MOL d         -11.031 -28.058 -12.571  0.00  0.00     0.037 H 
ATOM      8  H9  MOL d         -11.872 -28.684 -14.030  0.00  0.00     0.037 H 
ATOM      9  H10 MOL d         -10.834 -25.818 -13.752  0.00  0.00     0.033 H 
ATOM     10  H11 MOL d         -12.518 -26.311 -13.370  0.00  0.00     0.033 H 
ATOM     11  H12 MOL d         -12.274 -25.380 -15.704  0.00  0.00     0.033 H 
ATOM     12  H13 MOL d         -12.863 -27.077 -15.688  0.00  0.00     0.033 H 
ATOM     13  H14 MOL d         -10.040 -26.065 -16.310  0.00  0.00     0.033 H 
ATOM     14  H15 MOL d         -11.159 -26.953 -17.398  0.00  0.00     0.033 H 
ATOM     15  H16 MOL d         -10.974 -28.963 -16.002  0.00  0.00     0.037 H 
ATOM     16  H17 MOL d          -9.347 -28.412 -16.529  0.00  0.00     0.037 H 
ENDROOT
BRANCH   1  17
ATOM     17  NM  MOL d          -9.233 -29.612 -14.104  0.00  0.00    -0.058 N 
ATOM     18  CN  MOL d         -10.295 -30.724 -14.349  0.00  0.00     0.085 C 
ATOM     19  CO  MOL d          -9.752 -32.131 -14.045  0.00  0.00    -0.042 C 
ATOM     20  H19 MOL d         -11.164 -30.532 -13.701  0.00  0.00     0.076 H 
ATOM     21  H20 MOL d         -10.609 -30.687 -15.404  0.00  0.00     0.076 H 
ATOM     22  CP  MOL d          -8.460 -32.450 -14.796  0.00  0.00    -0.062 C 
ATOM     23  H21 MOL d          -9.557 -32.205 -12.965  0.00  0.00     0.035 H 
ATOM     24  H22 MOL d         -10.515 -32.870 -14.330  0.00  0.00     0.035 H 
ATOM     25  CQ  MOL d          -7.422 -31.355 -14.476  0.00  0.00    -0.042 C 
ATOM     26  H1  MOL d          -8.076 -33.429 -14.475  0.00  0.00     0.033 H 
ATOM     27  H2  MOL d          -8.656 -32.470 -15.879  0.00  0.00     0.033 H 
ATOM     28  CR  MOL d          -7.913 -29.964 -14.809  0.00  0.00     0.085 C 
ATOM     29  H23 MOL d          -6.510 -31.554 -15.059  0.00  0.00     0.035 H 
ATOM     30  H24 MOL d          -7.187 -31.396 -13.402  0.00  0.00     0.035 H 
ATOM     31  H25 MOL d          -7.146 -29.238 -14.501  0.00  0.00     0.076 H 
ATOM     32  H26 MOL d          -8.067 -29.897 -15.896  0.00  0.00     0.076 H 
ATOM     33  H18 MOL d          -9.035 -29.636 -13.116  0.00  0.00     0.281 HD
ENDBRANCH   1  17
BRANCH   1  34
ATOM     34  CA  MOL d          -8.640 -27.040 -14.012  0.00  0.00    -0.022 A 
ATOM     35  CF  MOL d          -8.221 -26.834 -12.633  0.00  0.00    -0.074 A 
ATOM     36  CE  MOL d          -7.237 -25.872 -12.273  0.00  0.00    -0.082 A 
ATOM     37  H7  MOL d          -8.675 -27.435 -11.853  0.00  0.00     0.084 H 
ATOM     38  CD  MOL d          -6.619 -25.086 -13.229  0.00  0.00    -0.083 A 
ATOM     39  H6  MOL d          -6.966 -25.752 -11.231  0.00  0.00     0.083 H 
ATOM     40  CC  MOL d          -7.021 -25.264 -14.614  0.00  0.00    -0.082 A 
ATOM     41  H5  MOL d          -5.861 -24.363 -12.955  0.00  0.00     0.083 H 
ATOM     42  CB  MOL d          -8.017 -26.229 -14.997  0.00  0.00    -0.074 A 
ATOM     43  H4  MOL d          -6.557 -24.652 -15.380  0.00  0.00     0.083 H 
ATOM     44  H3  MOL d          -8.293 -26.337 -16.040  0.00  0.00     0.084 H 
ENDBRANCH   1  34
TORSDOF 2
ENDMDL
MODEL 4
REMARK VINA RESULT:      -8.5      1.122      4.680
REMARK  2 active torsions:
REMARK  status: ('A' for Active; 'I' for Inactive)
REMARK    1  A    between atoms: CG_8  and  CA_2 
REMARK    2  A    between atoms: NM_14  and  CG_8 
ROOT
ATOM      1  CG  MOL d          -9.226 -27.217 -14.563  0.00  0.00     0.154 C 
ATOM      2  CH  MOL d          -9.583 -26.536 -15.970  0.00  0.00    -0.029 C 
ATOM      3  CI  MOL d         -10.682 -27.362 -16.619  0.00  0.00    -0.062 C 
ATOM      4  CJ  MOL d         -12.005 -27.218 -15.835  0.00  0.00    -0.065 C 
ATOM      5  CK  MOL d         -11.793 -27.592 -14.355  0.00  0.00    -0.062 C 
ATOM      6  CL  MOL d         -10.556 -26.895 -13.771  0.00  0.00    -0.029 C 
ATOM      7  H8  MOL d          -8.692 -26.523 -16.616  0.00  0.00     0.037 H 
ATOM      8  H9  MOL d          -9.934 -25.506 -15.809  0.00  0.00     0.037 H 
ATOM      9  H10 MOL d         -10.382 -28.420 -16.629  0.00  0.00     0.033 H 
ATOM     10  H11 MOL d         -10.834 -27.014 -17.652  0.00  0.00     0.033 H 
ATOM     11  H12 MOL d         -12.762 -27.886 -16.274  0.00  0.00     0.033 H 
ATOM     12  H13 MOL d         -12.353 -26.177 -15.900  0.00  0.00     0.033 H 
ATOM     13  H14 MOL d         -11.660 -28.681 -14.278  0.00  0.00     0.033 H 
ATOM     14  H15 MOL d         -12.680 -27.290 -13.779  0.00  0.00     0.033 H 
ATOM     15  H16 MOL d         -10.723 -25.808 -13.795  0.00  0.00     0.037 H 
ATOM     16  H17 MOL d         -10.430 -27.224 -12.728  0.00  0.00     0.037 H 
ENDROOT
BRANCH   1  17
ATOM     17  NM  MOL d          -8.124 -26.355 -13.851  0.00  0.00    -0.058 N 
ATOM     18  CN  MOL d          -7.367 -27.083 -12.702  0.00  0.00     0.085 C 
ATOM     19  CO  MOL d          -6.311 -26.185 -12.034  0.00  0.00    -0.042 C 
ATOM     20  H19 MOL d          -8.097 -27.396 -11.941  0.00  0.00     0.076 H 
ATOM     21  H20 MOL d          -6.865 -27.971 -13.116  0.00  0.00     0.076 H 
ATOM     22  CP  MOL d          -5.320 -25.583 -13.031  0.00  0.00    -0.062 C 
ATOM     23  H21 MOL d          -6.827 -25.365 -11.514  0.00  0.00     0.035 H 
ATOM     24  H22 MOL d          -5.751 -26.787 -11.304  0.00  0.00     0.035 H 
ATOM     25  CQ  MOL d          -6.113 -24.824 -14.115  0.00  0.00    -0.042 C 
ATOM     26  H1  MOL d          -4.646 -24.887 -12.510  0.00  0.00     0.033 H 
ATOM     27  H2  MOL d          -4.730 -26.385 -13.497  0.00  0.00     0.033 H 
ATOM     28  CR  MOL d          -7.128 -25.696 -14.819  0.00  0.00     0.085 C 
ATOM     29  H23 MOL d          -5.404 -24.436 -14.862  0.00  0.00     0.035 H 
ATOM     30  H24 MOL d          -6.642 -23.984 -13.640  0.00  0.00     0.035 H 
ATOM     31  H25 MOL d          -7.689 -25.075 -15.532  0.00  0.00     0.076 H 
ATOM     32  H26 MOL d          -6.593 -26.487 -15.364  0.00  0.00     0.076 H 
ATOM     33  H18 MOL d          -8.626 -25.599 -13.412  0.00  0.00     0.281 HD
ENDBRANCH   1  17
BRANCH   1  34
ATOM     34  CA  MOL d          -8.826 -28.766 -14.671  0.00  0.00    -0.022 A 
ATOM     35  CF  MOL d          -7.487 -29.167 -15.075  0.00  0.00    -0.074 A 
ATOM     36  CE  MOL d          -7.096 -30.533 -15.158  0.00  0.00    -0.082 A 
ATOM     37  H7  MOL d          -6.763 -28.399 -15.320  0.00  0.00     0.084 H 
ATOM     38  CD  MOL d          -7.978 -31.551 -14.846  0.00  0.00    -0.083 A 
ATOM     39  H6  MOL d          -6.089 -30.779 -15.472  0.00  0.00     0.083 H 
ATOM     40  CC  MOL d          -9.325 -31.182 -14.446  0.00  0.00    -0.082 A 
ATOM     41  H5  MOL d          -7.674 -32.590 -14.899  0.00  0.00     0.083 H 
ATOM     42  CB  MOL d          -9.740 -29.807 -14.360  0.00  0.00    -0.074 A 
ATOM     43  H4  MOL d         -10.037 -31.964 -14.206  0.00  0.00     0.083 H 
ATOM     44  H3  MOL d         -10.753 -29.566 -14.056  0.00  0.00     0.084 H 
ENDBRANCH   1  34
TORSDOF 2
ENDMDL
MODEL 5
REMARK VINA RESULT:      -7.8      1.300      4.588
REMARK  2 active torsions:
REMARK  status: ('A' for Active; 'I' for Inactive)
REMARK    1  A    between atoms: CG_8  and  CA_2 
REMARK    2  A    between atoms: NM_14  and  CG_8 
ROOT
ATOM      1  CG  MOL d          -9.038 -27.402 -14.742  0.00  0.00     0.154 C 
ATOM      2  CH  MOL d          -9.697 -26.755 -16.052  0.00  0.00    -0.029 C 
ATOM      3  CI  MOL d         -11.117 -27.289 -16.169  0.00  0.00    -0.062 C 
ATOM      4  CJ  MOL d         -12.004 -26.725 -15.038  0.00  0.00    -0.065 C 
ATOM      5  CK  MOL d         -11.378 -27.033 -13.663  0.00  0.00    -0.062 C 
ATOM      6  CL  MOL d          -9.887 -26.665 -13.630  0.00  0.00    -0.029 C 
ATOM      7  H8  MOL d          -9.116 -27.039 -16.943  0.00  0.00     0.037 H 
ATOM      8  H9  MOL d          -9.716 -25.659 -15.960  0.00  0.00     0.037 H 
ATOM      9  H10 MOL d         -11.097 -28.387 -16.100  0.00  0.00     0.033 H 
ATOM     10  H11 MOL d         -11.537 -26.991 -17.141  0.00  0.00     0.033 H 
ATOM     11  H12 MOL d         -13.001 -27.188 -15.094  0.00  0.00     0.033 H 
ATOM     12  H13 MOL d         -12.097 -25.637 -15.159  0.00  0.00     0.033 H 
ATOM     13  H14 MOL d         -11.486 -28.107 -13.453  0.00  0.00     0.033 H 
ATOM     14  H15 MOL d         -11.906 -26.454 -12.892  0.00  0.00     0.033 H 
ATOM     15  H16 MOL d          -9.791 -25.580 -13.779  0.00  0.00     0.037 H 
ATOM     16  H17 MOL d          -9.483 -26.938 -12.644  0.00  0.00     0.037 H 
ENDROOT
BRANCH   1  17
ATOM     17  NM  MOL d          -7.586 -26.829 -14.574  0.00  0.00    -0.058 N 
ATOM     18  CN  MOL d          -7.508 -25.281 -14.428  0.00  0.00     0.085 C 
ATOM     19  CO  MOL d          -6.061 -24.778 -14.281  0.00  0.00    -0.042 C 
ATOM     20  H19 MOL d          -7.954 -24.819 -15.322  0.00  0.00     0.076 H 
ATOM     21  H20 MOL d          -8.079 -24.980 -13.536  0.00  0.00     0.076 H 
ATOM     22  CP  MOL d          -5.303 -25.462 -13.143  0.00  0.00    -0.062 C 
ATOM     23  H21 MOL d          -5.527 -24.968 -15.223  0.00  0.00     0.035 H 
ATOM     24  H22 MOL d          -6.085 -23.696 -14.085  0.00  0.00     0.035 H 
ATOM     25  CQ  MOL d          -5.358 -26.988 -13.362  0.00  0.00    -0.042 C 
ATOM     26  H1  MOL d          -4.256 -25.126 -13.141  0.00  0.00     0.033 H 
ATOM     27  H2  MOL d          -5.771 -25.209 -12.180  0.00  0.00     0.033 H 
ATOM     28  CR  MOL d          -6.771 -27.515 -13.466  0.00  0.00     0.085 C 
ATOM     29  H23 MOL d          -4.859 -27.483 -12.516  0.00  0.00     0.035 H 
ATOM     30  H24 MOL d          -4.825 -27.228 -14.294  0.00  0.00     0.035 H 
ATOM     31  H25 MOL d          -6.728 -28.594 -13.678  0.00  0.00     0.076 H 
ATOM     32  H26 MOL d          -7.278 -27.351 -12.504  0.00  0.00     0.076 H 
ATOM     33  H18 MOL d          -7.117 -27.047 -15.439  0.00  0.00     0.281 HD
ENDBRANCH   1  17
BRANCH   1  34
ATOM     34  CA  MOL d          -9.079 -29.004 -14.714  0.00  0.00    -0.022 A 
ATOM     35  CF  MOL d         -10.278 -29.715 -14.298  0.00  0.00    -0.074 A 
ATOM     36  CE  MOL d         -10.352 -31.137 -14.285  0.00  0.00    -0.082 A 
ATOM     37  H7  MOL d         -11.144 -29.144 -13.987  0.00  0.00     0.084 H 
ATOM     38  CD  MOL d          -9.279 -31.914 -14.681  0.00  0.00    -0.083 A 
ATOM     39  H6  MOL d         -11.266 -31.619 -13.958  0.00  0.00     0.083 H 
ATOM     40  CC  MOL d          -8.065 -31.233 -15.096  0.00  0.00    -0.082 A 
ATOM     41  H5  MOL d          -9.342 -32.996 -14.681  0.00  0.00     0.083 H 
ATOM     42  CB  MOL d          -7.970 -29.797 -15.112  0.00  0.00    -0.074 A 
ATOM     43  H4  MOL d          -7.208 -31.822 -15.402  0.00  0.00     0.083 H 
ATOM     44  H3  MOL d          -7.049 -29.320 -15.430  0.00  0.00     0.084 H 
ENDBRANCH   1  34
TORSDOF 2
ENDMDL
MODEL 6
REMARK VINA RESULT:      -7.5      1.279      4.518
REMARK  2 active torsions:
REMARK  status: ('A' for Active; 'I' for Inactive)
REMARK    1  A    between atoms: CG_8  and  CA_2 
REMARK    2  A    between atoms: NM_14  and  CG_8 
ROOT
ATOM      1  CG  MOL d          -8.111 -29.072 -14.081  0.00  0.00     0.154 C 
ATOM      2  CH  MOL d          -8.296 -30.345 -13.124  0.00  0.00    -0.029 C 
ATOM      3  CI  MOL d          -8.967 -31.442 -13.937  0.00  0.00    -0.062 C 
ATOM      4  CJ  MOL d          -8.007 -31.979 -15.021  0.00  0.00    -0.065 C 
ATOM      5  CK  MOL d          -7.503 -30.824 -15.908  0.00  0.00    -0.062 C 
ATOM      6  CL  MOL d          -7.009 -29.640 -15.063  0.00  0.00    -0.029 C 
ATOM      7  H8  MOL d          -8.927 -30.077 -12.263  0.00  0.00     0.037 H 
ATOM      8  H9  MOL d          -7.315 -30.690 -12.766  0.00  0.00     0.037 H 
ATOM      9  H10 MOL d          -9.867 -31.035 -14.420  0.00  0.00     0.033 H 
ATOM     10  H11 MOL d          -9.252 -32.266 -13.265  0.00  0.00     0.033 H 
ATOM     11  H12 MOL d          -8.540 -32.711 -15.646  0.00  0.00     0.033 H 
ATOM     12  H13 MOL d          -7.149 -32.466 -14.536  0.00  0.00     0.033 H 
ATOM     13  H14 MOL d          -8.326 -30.484 -16.554  0.00  0.00     0.033 H 
ATOM     14  H15 MOL d          -6.674 -31.188 -16.532  0.00  0.00     0.033 H 
ATOM     15  H16 MOL d          -6.147 -29.972 -14.466  0.00  0.00     0.037 H 
ATOM     16  H17 MOL d          -6.696 -28.833 -15.742  0.00  0.00     0.037 H 
ENDROOT
BRANCH   1  17
ATOM     17  NM  MOL d          -7.377 -27.940 -13.278  0.00  0.00    -0.058 N 
ATOM     18  CN  MOL d          -6.067 -27.416 -13.937  0.00  0.00     0.085 C 
ATOM     19  CO  MOL d          -5.387 -26.320 -13.098  0.00  0.00    -0.042 C 
ATOM     20  H19 MOL d          -5.368 -28.258 -14.052  0.00  0.00     0.076 H 
ATOM     21  H20 MOL d          -6.310 -27.003 -14.928  0.00  0.00     0.076 H 
ATOM     22  CP  MOL d          -6.321 -25.156 -12.764  0.00  0.00    -0.062 C 
ATOM     23  H21 MOL d          -5.033 -26.767 -12.158  0.00  0.00     0.035 H 
ATOM     24  H22 MOL d          -4.529 -25.929 -13.664  0.00  0.00     0.035 H 
ATOM     25  CQ  MOL d          -7.574 -25.718 -12.062  0.00  0.00    -0.042 C 
ATOM     26  H1  MOL d          -5.807 -24.450 -12.095  0.00  0.00     0.033 H 
ATOM     27  H2  MOL d          -6.615 -24.639 -13.689  0.00  0.00     0.033 H 
ATOM     28  CR  MOL d          -8.288 -26.766 -12.885  0.00  0.00     0.085 C 
ATOM     29  H23 MOL d          -8.271 -24.888 -11.869  0.00  0.00     0.035 H 
ATOM     30  H24 MOL d          -7.269 -26.170 -11.106  0.00  0.00     0.035 H 
ATOM     31  H25 MOL d          -9.132 -27.158 -12.298  0.00  0.00     0.076 H 
ATOM     32  H26 MOL d          -8.668 -26.294 -13.802  0.00  0.00     0.076 H 
ATOM     33  H18 MOL d          -7.094 -28.374 -12.413  0.00  0.00     0.281 HD
ENDBRANCH   1  17
BRANCH   1  34
ATOM     34  CA  MOL d          -9.470 -28.566 -14.764  0.00  0.00    -0.022 A 
ATOM     35  CF  MOL d         -10.763 -29.058 -14.312  0.00  0.00    -0.074 A 
ATOM     36  CE  MOL d         -11.987 -28.610 -14.883  0.00  0.00    -0.082 A 
ATOM     37  H7  MOL d         -10.794 -29.790 -13.514  0.00  0.00     0.084 H 
ATOM     38  CD  MOL d         -12.005 -27.670 -15.896  0.00  0.00    -0.083 A 
ATOM     39  H6  MOL d         -12.924 -29.014 -14.516  0.00  0.00     0.083 H 
ATOM     40  CC  MOL d         -10.729 -27.165 -16.374  0.00  0.00    -0.082 A 
ATOM     41  H5  MOL d         -12.939 -27.322 -16.321  0.00  0.00     0.083 H 
ATOM     42  CB  MOL d          -9.480 -27.608 -15.812  0.00  0.00    -0.074 A 
ATOM     43  H4  MOL d         -10.718 -26.434 -17.174  0.00  0.00     0.083 H 
ATOM     44  H3  MOL d          -8.546 -27.209 -16.190  0.00  0.00     0.084 H 
ENDBRANCH   1  34
TORSDOF 2
ENDMDL
