REMARK  17 active torsions:
REMARK  status: ('A' for Active; 'I' for Inactive)
REMARK    1  A    between atoms: CAJ_10  and  OAA_1 
REMARK    2  A    between atoms: CAK_11  and  OAB_2 
REMARK    3  A    between atoms: CAN_14  and  OAC_3 
REMARK    4  A    between atoms: CAO_15  and  OAD_4 
REMARK    5  A    between atoms: CAP_16  and  OAE_5 
REMARK    6  A    between atoms: CAQ_17  and  OAF_6 
REMARK    7  A    between atoms: CAR_18  and  OAG_7 
REMARK    8  A    between atoms: CAS_19  and  OAH_8 
REMARK    9  A    between atoms: CAT_20  and  OAI_9 
REMARK   10  A    between atoms: CAN_14  and  CAJ_10 
REMARK   11  A    between atoms: CAU_21  and  CAK_11 
REMARK   12  A    between atoms: CAL_12  and  CAO_15 
REMARK   13  A    between atoms: SAV_22  and  CAL_12 
REMARK   14  A    between atoms: CAQ_17  and  CAN_14 
REMARK   15  A    between atoms: CAO_15  and  CAR_18 
REMARK   16  A    between atoms: CAS_19  and  CAQ_17 
REMARK   17  A    between atoms: CAR_18  and  CAS_19 
ROOT
ATOM      1  CAO DSK d          -2.544 -19.366 -21.644  0.00  0.00     0.070 C 
ATOM      2  H19 DSK d          -3.596 -19.076 -21.783  0.00  0.00     0.088 H 
ENDROOT
BRANCH   1   3
ATOM      3  OAD DSK d          -1.840 -19.067 -22.841  0.00  0.00    -0.392 OA
ATOM      4  H4  DSK d          -2.198 -19.581 -23.555  0.00  0.00     0.210 HD
ENDBRANCH   1   3
BRANCH   1   5
ATOM      5  CAL DSK d          -1.987 -18.541 -20.442  0.00  0.00    -0.005 C 
ATOM      6  H14 DSK d          -0.903 -18.709 -20.365  0.00  0.00     0.051 H 
ATOM      7  H15 DSK d          -2.477 -18.881 -19.518  0.00  0.00     0.051 H 
BRANCH   5   8
ATOM      8  SAV DSK d          -2.294 -16.769 -20.653  0.00  0.00    -0.206 SA
ATOM      9  CAM DSK d          -0.941 -15.961 -21.602  0.00  0.00    -0.005 C 
ATOM     10  CAP DSK d           0.095 -15.714 -20.486  0.00  0.00     0.069 C 
ATOM     11  H16 DSK d          -0.543 -16.625 -22.383  0.00  0.00     0.051 H 
ATOM     12  H17 DSK d          -1.276 -15.018 -22.059  0.00  0.00     0.051 H 
ATOM     13  CAT DSK d          -0.741 -15.046 -19.360  0.00  0.00     0.074 C 
ATOM     14  H20 DSK d           0.535 -16.664 -20.148  0.00  0.00     0.088 H 
ATOM     15  CAU DSK d          -1.849 -16.081 -19.012  0.00  0.00     0.030 C 
ATOM     16  H24 DSK d          -1.176 -14.088 -19.681  0.00  0.00     0.088 H 
ATOM     17  H25 DSK d          -1.402 -16.882 -18.405  0.00  0.00     0.062 H 
BRANCH  10  18
ATOM     18  OAE DSK d           1.159 -14.804 -20.900  0.00  0.00    -0.392 OA
ATOM     19  H5  DSK d           1.769 -14.684 -20.182  0.00  0.00     0.210 HD
ENDBRANCH  10  18
BRANCH  13  20
ATOM     20  OAI DSK d           0.139 -14.861 -18.244  0.00  0.00    -0.392 OA
ATOM     21  H9  DSK d           0.864 -14.303 -18.503  0.00  0.00     0.210 HD
ENDBRANCH  13  20
BRANCH  15  22
ATOM     22  CAK DSK d          -3.040 -15.524 -18.184  0.00  0.00     0.030 C 
ATOM     23  H12 DSK d          -3.848 -16.271 -18.193  0.00  0.00     0.075 H 
ATOM     24  H13 DSK d          -2.699 -15.365 -17.150  0.00  0.00     0.075 H 
BRANCH  22  25
ATOM     25  OAB DSK d          -3.563 -14.288 -18.681  0.00  0.00    -0.400 OA
ATOM     26  H2  DSK d          -4.285 -14.007 -18.131  0.00  0.00     0.209 HD
ENDBRANCH  22  25
ENDBRANCH  15  22
ENDBRANCH   5   8
ENDBRANCH   1   5
BRANCH   1  27
ATOM     27  CAR DSK d          -2.502 -20.873 -21.405  0.00  0.00     0.088 C 
ATOM     28  H22 DSK d          -1.482 -21.205 -21.159  0.00  0.00     0.091 H 
BRANCH  27  29
ATOM     29  OAG DSK d          -3.423 -21.123 -20.329  0.00  0.00    -0.390 OA
ATOM     30  H7  DSK d          -4.292 -20.838 -20.585  0.00  0.00     0.210 HD
ENDBRANCH  27  29
BRANCH  27  31
ATOM     31  CAS DSK d          -3.052 -21.639 -22.631  0.00  0.00     0.090 C 
ATOM     32  H23 DSK d          -2.364 -21.476 -23.474  0.00  0.00     0.091 H 
BRANCH  31  33
ATOM     33  OAH DSK d          -4.341 -21.141 -22.986  0.00  0.00    -0.390 OA
ATOM     34  H8  DSK d          -4.949 -21.305 -22.275  0.00  0.00     0.210 HD
ENDBRANCH  31  33
BRANCH  31  35
ATOM     35  CAQ DSK d          -3.156 -23.141 -22.376  0.00  0.00     0.089 C 
ATOM     36  H21 DSK d          -3.889 -23.333 -21.579  0.00  0.00     0.091 H 
BRANCH  35  37
ATOM     37  OAF DSK d          -1.862 -23.613 -21.984  0.00  0.00    -0.390 OA
ATOM     38  H6  DSK d          -1.239 -23.441 -22.680  0.00  0.00     0.210 HD
ENDBRANCH  35  37
BRANCH  35  39
ATOM     39  CAN DSK d          -3.577 -23.889 -23.660  0.00  0.00     0.083 C 
ATOM     40  H18 DSK d          -4.495 -23.437 -24.063  0.00  0.00     0.090 H 
BRANCH  39  41
ATOM     41  OAC DSK d          -2.525 -23.778 -24.630  0.00  0.00    -0.391 OA
ATOM     42  H3  DSK d          -1.732 -24.168 -24.282  0.00  0.00     0.210 HD
ENDBRANCH  39  41
BRANCH  39  43
ATOM     43  CAJ DSK d          -3.841 -25.365 -23.336  0.00  0.00     0.043 C 
ATOM     44  H10 DSK d          -2.885 -25.898 -23.224  0.00  0.00     0.078 H 
ATOM     45  H11 DSK d          -4.417 -25.444 -22.402  0.00  0.00     0.078 H 
BRANCH  43  46
ATOM     46  OAA DSK d          -4.582 -25.927 -24.406  0.00  0.00    -0.398 OA
ATOM     47  H1  DSK d          -4.755 -26.843 -24.223  0.00  0.00     0.209 HD
ENDBRANCH  43  46
ENDBRANCH  39  43
ENDBRANCH  35  39
ENDBRANCH  31  35
ENDBRANCH  27  31
ENDBRANCH   1  27
TORSDOF 17
