MODEL 1
REMARK VINA RESULT:      -5.9      0.000      0.000
REMARK  17 active torsions:
REMARK  status: ('A' for Active; 'I' for Inactive)
REMARK    1  A    between atoms: CAJ_10  and  OAA_1 
REMARK    2  A    between atoms: CAK_11  and  OAB_2 
REMARK    3  A    between atoms: CAN_14  and  OAC_3 
REMARK    4  A    between atoms: CAO_15  and  OAD_4 
REMARK    5  A    between atoms: CAP_16  and  OAE_5 
REMARK    6  A    between atoms: CAQ_17  and  OAF_6 
REMARK    7  A    between atoms: CAR_18  and  OAG_7 
REMARK    8  A    between atoms: CAS_19  and  OAH_8 
REMARK    9  A    between atoms: CAT_20  and  OAI_9 
REMARK   10  A    between atoms: CAN_14  and  CAJ_10 
REMARK   11  A    between atoms: CAU_21  and  CAK_11 
REMARK   12  A    between atoms: CAL_12  and  CAO_15 
REMARK   13  A    between atoms: SAV_22  and  CAL_12 
REMARK   14  A    between atoms: CAQ_17  and  CAN_14 
REMARK   15  A    between atoms: CAO_15  and  CAR_18 
REMARK   16  A    between atoms: CAS_19  and  CAQ_17 
REMARK   17  A    between atoms: CAR_18  and  CAS_19 
ROOT
ATOM      1  CAO DSK d          -2.680 -19.882 -21.461  0.00  0.00     0.070 C 
ATOM      2  H19 DSK d          -3.745 -19.762 -21.212  0.00  0.00     0.088 H 
ENDROOT
BRANCH   1   3
ATOM      3  OAD DSK d          -2.491 -19.473 -22.808  0.00  0.00    -0.392 OA
ATOM      4  H4  DSK d          -1.618 -19.714 -23.092  0.00  0.00     0.210 HD
ENDBRANCH   1   3
BRANCH   1   5
ATOM      5  CAL DSK d          -1.865 -18.983 -20.480  0.00  0.00    -0.005 C 
ATOM      6  H14 DSK d          -0.792 -19.131 -20.667  0.00  0.00     0.051 H 
ATOM      7  H15 DSK d          -2.101 -19.277 -19.447  0.00  0.00     0.051 H 
BRANCH   5   8
ATOM      8  SAV DSK d          -2.264 -17.230 -20.698  0.00  0.00    -0.206 SA
ATOM      9  CAM DSK d          -0.918 -16.339 -21.579  0.00  0.00    -0.005 C 
ATOM     10  CAP DSK d           0.049 -16.041 -20.415  0.00  0.00     0.069 C 
ATOM     11  H16 DSK d          -0.446 -16.974 -22.344  0.00  0.00     0.051 H 
ATOM     12  H17 DSK d          -1.285 -15.414 -22.048  0.00  0.00     0.051 H 
ATOM     13  CAT DSK d          -0.875 -15.429 -19.327  0.00  0.00     0.074 C 
ATOM     14  H20 DSK d           0.527 -16.966 -20.061  0.00  0.00     0.088 H 
ATOM     15  CAU DSK d          -1.936 -16.529 -19.035  0.00  0.00     0.030 C 
ATOM     16  H24 DSK d          -1.350 -14.496 -19.664  0.00  0.00     0.088 H 
ATOM     17  H25 DSK d          -1.472 -17.307 -18.411  0.00  0.00     0.062 H 
BRANCH  10  18
ATOM     18  OAE DSK d           1.077 -15.068 -20.776  0.00  0.00    -0.392 OA
ATOM     19  H5  DSK d           1.397 -14.641 -19.990  0.00  0.00     0.210 HD
ENDBRANCH  10  18
BRANCH  13  20
ATOM     20  OAI DSK d          -0.060 -15.201 -18.170  0.00  0.00    -0.392 OA
ATOM     21  H9  DSK d           0.090 -16.027 -17.723  0.00  0.00     0.210 HD
ENDBRANCH  13  20
BRANCH  15  22
ATOM     22  CAK DSK d          -3.195 -16.047 -18.261  0.00  0.00     0.030 C 
ATOM     23  H12 DSK d          -4.074 -16.568 -18.669  0.00  0.00     0.075 H 
ATOM     24  H13 DSK d          -3.072 -16.311 -17.200  0.00  0.00     0.075 H 
BRANCH  22  25
ATOM     25  OAB DSK d          -3.425 -14.637 -18.351  0.00  0.00    -0.400 OA
ATOM     26  H2  DSK d          -3.763 -14.427 -19.214  0.00  0.00     0.209 HD
ENDBRANCH  22  25
ENDBRANCH  15  22
ENDBRANCH   5   8
ENDBRANCH   1   5
BRANCH   1  27
ATOM     27  CAR DSK d          -2.336 -21.365 -21.339  0.00  0.00     0.088 C 
ATOM     28  H22 DSK d          -1.337 -21.502 -20.899  0.00  0.00     0.091 H 
BRANCH  27  29
ATOM     29  OAG DSK d          -3.368 -21.938 -20.518  0.00  0.00    -0.390 OA
ATOM     30  H7  DSK d          -3.056 -22.752 -20.141  0.00  0.00     0.210 HD
ENDBRANCH  27  29
BRANCH  27  31
ATOM     31  CAS DSK d          -2.437 -22.067 -22.713  0.00  0.00     0.090 C 
ATOM     32  H23 DSK d          -1.771 -21.544 -23.415  0.00  0.00     0.091 H 
BRANCH  31  33
ATOM     33  OAH DSK d          -3.773 -21.995 -23.207  0.00  0.00    -0.390 OA
ATOM     34  H8  DSK d          -4.351 -22.473 -22.623  0.00  0.00     0.210 HD
ENDBRANCH  31  33
BRANCH  31  35
ATOM     35  CAQ DSK d          -2.013 -23.533 -22.647  0.00  0.00     0.089 C 
ATOM     36  H21 DSK d          -2.896 -24.168 -22.482  0.00  0.00     0.091 H 
BRANCH  35  37
ATOM     37  OAF DSK d          -1.089 -23.676 -21.562  0.00  0.00    -0.390 OA
ATOM     38  H6  DSK d          -0.695 -24.540 -21.595  0.00  0.00     0.210 HD
ENDBRANCH  35  37
BRANCH  35  39
ATOM     39  CAN DSK d          -1.302 -23.959 -23.950  0.00  0.00     0.083 C 
ATOM     40  H18 DSK d          -0.887 -24.970 -23.826  0.00  0.00     0.090 H 
BRANCH  39  41
ATOM     41  OAC DSK d          -2.257 -23.964 -25.021  0.00  0.00    -0.391 OA
ATOM     42  H3  DSK d          -2.092 -24.707 -25.589  0.00  0.00     0.210 HD
ENDBRANCH  39  41
BRANCH  39  43
ATOM     43  CAJ DSK d          -0.164 -22.980 -24.263  0.00  0.00     0.043 C 
ATOM     44  H10 DSK d           0.110 -23.056 -25.326  0.00  0.00     0.078 H 
ATOM     45  H11 DSK d          -0.485 -21.952 -24.038  0.00  0.00     0.078 H 
BRANCH  43  46
ATOM     46  OAA DSK d           0.949 -23.323 -23.454  0.00  0.00    -0.398 OA
ATOM     47  H1  DSK d           0.674 -23.936 -22.783  0.00  0.00     0.209 HD
ENDBRANCH  43  46
ENDBRANCH  39  43
ENDBRANCH  35  39
ENDBRANCH  31  35
ENDBRANCH  27  31
ENDBRANCH   1  27
TORSDOF 17
ENDMDL
MODEL 2
REMARK VINA RESULT:      -5.8      2.155      7.284
REMARK  17 active torsions:
REMARK  status: ('A' for Active; 'I' for Inactive)
REMARK    1  A    between atoms: CAJ_10  and  OAA_1 
REMARK    2  A    between atoms: CAK_11  and  OAB_2 
REMARK    3  A    between atoms: CAN_14  and  OAC_3 
REMARK    4  A    between atoms: CAO_15  and  OAD_4 
REMARK    5  A    between atoms: CAP_16  and  OAE_5 
REMARK    6  A    between atoms: CAQ_17  and  OAF_6 
REMARK    7  A    between atoms: CAR_18  and  OAG_7 
REMARK    8  A    between atoms: CAS_19  and  OAH_8 
REMARK    9  A    between atoms: CAT_20  and  OAI_9 
REMARK   10  A    between atoms: CAN_14  and  CAJ_10 
REMARK   11  A    between atoms: CAU_21  and  CAK_11 
REMARK   12  A    between atoms: CAL_12  and  CAO_15 
REMARK   13  A    between atoms: SAV_22  and  CAL_12 
REMARK   14  A    between atoms: CAQ_17  and  CAN_14 
REMARK   15  A    between atoms: CAO_15  and  CAR_18 
REMARK   16  A    between atoms: CAS_19  and  CAQ_17 
REMARK   17  A    between atoms: CAR_18  and  CAS_19 
ROOT
ATOM      1  CAO DSK d          -2.562 -20.287 -22.066  0.00  0.00     0.070 C 
ATOM      2  H19 DSK d          -1.604 -20.806 -22.214  0.00  0.00     0.088 H 
ENDROOT
BRANCH   1   3
ATOM      3  OAD DSK d          -2.831 -19.514 -23.227  0.00  0.00    -0.392 OA
ATOM      4  H4  DSK d          -2.867 -20.084 -23.985  0.00  0.00     0.210 HD
ENDBRANCH   1   3
BRANCH   1   5
ATOM      5  CAL DSK d          -3.656 -21.379 -21.851  0.00  0.00    -0.005 C 
ATOM      6  H14 DSK d          -4.422 -21.277 -22.634  0.00  0.00     0.051 H 
ATOM      7  H15 DSK d          -4.119 -21.232 -20.864  0.00  0.00     0.051 H 
BRANCH   5   8
ATOM      8  SAV DSK d          -2.955 -23.047 -21.929  0.00  0.00    -0.206 SA
ATOM      9  CAM DSK d          -2.515 -23.669 -20.254  0.00  0.00    -0.005 C 
ATOM     10  CAP DSK d          -1.128 -23.026 -20.056  0.00  0.00     0.069 C 
ATOM     11  H16 DSK d          -3.232 -23.326 -19.494  0.00  0.00     0.051 H 
ATOM     12  H17 DSK d          -2.458 -24.768 -20.234  0.00  0.00     0.051 H 
ATOM     13  CAT DSK d          -0.379 -23.371 -21.372  0.00  0.00     0.074 C 
ATOM     14  H20 DSK d          -1.220 -21.938 -19.922  0.00  0.00     0.088 H 
ATOM     15  CAU DSK d          -1.241 -22.741 -22.504  0.00  0.00     0.030 C 
ATOM     16  H24 DSK d          -0.268 -24.456 -21.512  0.00  0.00     0.088 H 
ATOM     17  H25 DSK d          -1.063 -21.655 -22.516  0.00  0.00     0.062 H 
BRANCH  10  18
ATOM     18  OAE DSK d          -0.401 -23.596 -18.925  0.00  0.00    -0.392 OA
ATOM     19  H5  DSK d           0.498 -23.763 -19.180  0.00  0.00     0.210 HD
ENDBRANCH  10  18
BRANCH  13  20
ATOM     20  OAI DSK d           0.901 -22.729 -21.302  0.00  0.00    -0.392 OA
ATOM     21  H9  DSK d           1.187 -22.694 -20.396  0.00  0.00     0.210 HD
ENDBRANCH  13  20
BRANCH  15  22
ATOM     22  CAK DSK d          -0.925 -23.247 -23.938  0.00  0.00     0.030 C 
ATOM     23  H12 DSK d          -1.254 -24.295 -24.017  0.00  0.00     0.075 H 
ATOM     24  H13 DSK d          -1.488 -22.631 -24.655  0.00  0.00     0.075 H 
BRANCH  22  25
ATOM     25  OAB DSK d           0.463 -23.184 -24.282  0.00  0.00    -0.400 OA
ATOM     26  H2  DSK d           0.686 -22.296 -24.534  0.00  0.00     0.209 HD
ENDBRANCH  22  25
ENDBRANCH  15  22
ENDBRANCH   5   8
ENDBRANCH   1   5
BRANCH   1  27
ATOM     27  CAR DSK d          -2.408 -19.352 -20.870  0.00  0.00     0.088 C 
ATOM     28  H22 DSK d          -3.216 -19.509 -20.139  0.00  0.00     0.091 H 
BRANCH  27  29
ATOM     29  OAG DSK d          -1.115 -19.643 -20.312  0.00  0.00    -0.390 OA
ATOM     30  H7  DSK d          -1.086 -20.552 -20.039  0.00  0.00     0.210 HD
ENDBRANCH  27  29
BRANCH  27  31
ATOM     31  CAS DSK d          -2.358 -17.876 -21.329  0.00  0.00     0.090 C 
ATOM     32  H23 DSK d          -3.259 -17.672 -21.926  0.00  0.00     0.091 H 
BRANCH  31  33
ATOM     33  OAH DSK d          -1.207 -17.651 -22.142  0.00  0.00    -0.390 OA
ATOM     34  H8  DSK d          -0.641 -18.413 -22.104  0.00  0.00     0.210 HD
ENDBRANCH  31  33
BRANCH  31  35
ATOM     35  CAQ DSK d          -2.329 -16.904 -20.152  0.00  0.00     0.089 C 
ATOM     36  H21 DSK d          -2.566 -17.440 -19.221  0.00  0.00     0.091 H 
BRANCH  35  37
ATOM     37  OAF DSK d          -3.302 -15.883 -20.398  0.00  0.00    -0.390 OA
ATOM     38  H6  DSK d          -4.174 -16.243 -20.280  0.00  0.00     0.210 HD
ENDBRANCH  35  37
BRANCH  35  39
ATOM     39  CAN DSK d          -0.943 -16.233 -20.027  0.00  0.00     0.083 C 
ATOM     40  H18 DSK d          -0.159 -16.963 -20.275  0.00  0.00     0.090 H 
BRANCH  39  41
ATOM     41  OAC DSK d          -0.875 -15.130 -20.942  0.00  0.00    -0.391 OA
ATOM     42  H3  DSK d          -1.011 -14.318 -20.469  0.00  0.00     0.210 HD
ENDBRANCH  39  41
BRANCH  39  43
ATOM     43  CAJ DSK d          -0.736 -15.739 -18.589  0.00  0.00     0.043 C 
ATOM     44  H10 DSK d          -0.215 -16.509 -18.002  0.00  0.00     0.078 H 
ATOM     45  H11 DSK d          -0.137 -14.815 -18.596  0.00  0.00     0.078 H 
BRANCH  43  46
ATOM     46  OAA DSK d          -2.009 -15.481 -18.022  0.00  0.00    -0.398 OA
ATOM     47  H1  DSK d          -1.930 -15.436 -17.077  0.00  0.00     0.209 HD
ENDBRANCH  43  46
ENDBRANCH  39  43
ENDBRANCH  35  39
ENDBRANCH  31  35
ENDBRANCH  27  31
ENDBRANCH   1  27
TORSDOF 17
ENDMDL
MODEL 3
REMARK VINA RESULT:      -5.3      1.667      2.672
REMARK  17 active torsions:
REMARK  status: ('A' for Active; 'I' for Inactive)
REMARK    1  A    between atoms: CAJ_10  and  OAA_1 
REMARK    2  A    between atoms: CAK_11  and  OAB_2 
REMARK    3  A    between atoms: CAN_14  and  OAC_3 
REMARK    4  A    between atoms: CAO_15  and  OAD_4 
REMARK    5  A    between atoms: CAP_16  and  OAE_5 
REMARK    6  A    between atoms: CAQ_17  and  OAF_6 
REMARK    7  A    between atoms: CAR_18  and  OAG_7 
REMARK    8  A    between atoms: CAS_19  and  OAH_8 
REMARK    9  A    between atoms: CAT_20  and  OAI_9 
REMARK   10  A    between atoms: CAN_14  and  CAJ_10 
REMARK   11  A    between atoms: CAU_21  and  CAK_11 
REMARK   12  A    between atoms: CAL_12  and  CAO_15 
REMARK   13  A    between atoms: SAV_22  and  CAL_12 
REMARK   14  A    between atoms: CAQ_17  and  CAN_14 
REMARK   15  A    between atoms: CAO_15  and  CAR_18 
REMARK   16  A    between atoms: CAS_19  and  CAQ_17 
REMARK   17  A    between atoms: CAR_18  and  CAS_19 
ROOT
ATOM      1  CAO DSK d          -1.812 -19.894 -21.061  0.00  0.00     0.070 C 
ATOM      2  H19 DSK d          -1.060 -19.347 -21.649  0.00  0.00     0.088 H 
ENDROOT
BRANCH   1   3
ATOM      3  OAD DSK d          -1.192 -21.047 -20.510  0.00  0.00    -0.392 OA
ATOM      4  H4  DSK d          -0.978 -21.655 -21.208  0.00  0.00     0.210 HD
ENDBRANCH   1   3
BRANCH   1   5
ATOM      5  CAL DSK d          -2.315 -18.934 -19.939  0.00  0.00    -0.005 C 
ATOM      6  H14 DSK d          -1.590 -18.939 -19.112  0.00  0.00     0.051 H 
ATOM      7  H15 DSK d          -3.289 -19.291 -19.573  0.00  0.00     0.051 H 
BRANCH   5   8
ATOM      8  SAV DSK d          -2.502 -17.239 -20.548  0.00  0.00    -0.206 SA
ATOM      9  CAM DSK d          -1.075 -16.741 -21.597  0.00  0.00    -0.005 C 
ATOM     10  CAP DSK d          -0.054 -16.311 -20.523  0.00  0.00     0.069 C 
ATOM     11  H16 DSK d          -0.700 -17.584 -22.196  0.00  0.00     0.051 H 
ATOM     12  H17 DSK d          -1.336 -15.906 -22.264  0.00  0.00     0.051 H 
ATOM     13  CAT DSK d          -0.875 -15.363 -19.607  0.00  0.00     0.074 C 
ATOM     14  H20 DSK d           0.314 -17.186 -19.966  0.00  0.00     0.088 H 
ATOM     15  CAU DSK d          -2.056 -16.229 -19.083  0.00  0.00     0.030 C 
ATOM     16  H24 DSK d          -1.238 -14.477 -20.148  0.00  0.00     0.088 H 
ATOM     17  H25 DSK d          -1.678 -16.899 -18.297  0.00  0.00     0.062 H 
BRANCH  10  18
ATOM     18  OAE DSK d           1.077 -15.579 -21.085  0.00  0.00    -0.392 OA
ATOM     19  H5  DSK d           1.814 -15.632 -20.489  0.00  0.00     0.210 HD
ENDBRANCH  10  18
BRANCH  13  20
ATOM     20  OAI DSK d          -0.014 -14.984 -18.525  0.00  0.00    -0.392 OA
ATOM     21  H9  DSK d           0.127 -14.044 -18.548  0.00  0.00     0.210 HD
ENDBRANCH  13  20
BRANCH  15  22
ATOM     22  CAK DSK d          -3.230 -15.434 -18.446  0.00  0.00     0.030 C 
ATOM     23  H12 DSK d          -3.835 -16.130 -17.847  0.00  0.00     0.075 H 
ATOM     24  H13 DSK d          -2.807 -14.657 -17.791  0.00  0.00     0.075 H 
BRANCH  22  25
ATOM     25  OAB DSK d          -4.086 -14.800 -19.402  0.00  0.00    -0.400 OA
ATOM     26  H2  DSK d          -3.638 -14.051 -19.779  0.00  0.00     0.209 HD
ENDBRANCH  22  25
ENDBRANCH  15  22
ENDBRANCH   5   8
ENDBRANCH   1   5
BRANCH   1  27
ATOM     27  CAR DSK d          -2.921 -20.333 -22.014  0.00  0.00     0.088 C 
ATOM     28  H22 DSK d          -3.912 -20.071 -21.613  0.00  0.00     0.091 H 
BRANCH  27  29
ATOM     29  OAG DSK d          -2.652 -19.665 -23.259  0.00  0.00    -0.390 OA
ATOM     30  H7  DSK d          -1.791 -19.915 -23.571  0.00  0.00     0.210 HD
ENDBRANCH  27  29
BRANCH  27  31
ATOM     31  CAS DSK d          -2.826 -21.848 -22.307  0.00  0.00     0.090 C 
ATOM     32  H23 DSK d          -2.535 -22.359 -21.377  0.00  0.00     0.091 H 
BRANCH  31  33
ATOM     33  OAH DSK d          -1.831 -22.097 -23.299  0.00  0.00    -0.390 OA
ATOM     34  H8  DSK d          -1.695 -21.310 -23.813  0.00  0.00     0.210 HD
ENDBRANCH  31  33
BRANCH  31  35
ATOM     35  CAQ DSK d          -4.155 -22.430 -22.783  0.00  0.00     0.089 C 
ATOM     36  H21 DSK d          -4.012 -22.947 -23.743  0.00  0.00     0.091 H 
BRANCH  35  37
ATOM     37  OAF DSK d          -5.082 -21.349 -22.934  0.00  0.00    -0.390 OA
ATOM     38  H6  DSK d          -5.895 -21.679 -23.297  0.00  0.00     0.210 HD
ENDBRANCH  35  37
BRANCH  35  39
ATOM     39  CAN DSK d          -4.727 -23.418 -21.742  0.00  0.00     0.083 C 
ATOM     40  H18 DSK d          -5.422 -22.886 -21.076  0.00  0.00     0.090 H 
BRANCH  39  41
ATOM     41  OAC DSK d          -5.430 -24.463 -22.429  0.00  0.00    -0.391 OA
ATOM     42  H3  DSK d          -6.301 -24.553 -22.061  0.00  0.00     0.210 HD
ENDBRANCH  39  41
BRANCH  39  43
ATOM     43  CAJ DSK d          -3.584 -24.011 -20.909  0.00  0.00     0.043 C 
ATOM     44  H10 DSK d          -2.671 -24.073 -21.520  0.00  0.00     0.078 H 
ATOM     45  H11 DSK d          -3.394 -23.376 -20.030  0.00  0.00     0.078 H 
BRANCH  43  46
ATOM     46  OAA DSK d          -3.970 -25.309 -20.489  0.00  0.00    -0.398 OA
ATOM     47  H1  DSK d          -3.288 -25.680 -19.942  0.00  0.00     0.209 HD
ENDBRANCH  43  46
ENDBRANCH  39  43
ENDBRANCH  35  39
ENDBRANCH  31  35
ENDBRANCH  27  31
ENDBRANCH   1  27
TORSDOF 17
ENDMDL
MODEL 4
REMARK VINA RESULT:      -5.3      1.473      1.808
REMARK  17 active torsions:
REMARK  status: ('A' for Active; 'I' for Inactive)
REMARK    1  A    between atoms: CAJ_10  and  OAA_1 
REMARK    2  A    between atoms: CAK_11  and  OAB_2 
REMARK    3  A    between atoms: CAN_14  and  OAC_3 
REMARK    4  A    between atoms: CAO_15  and  OAD_4 
REMARK    5  A    between atoms: CAP_16  and  OAE_5 
REMARK    6  A    between atoms: CAQ_17  and  OAF_6 
REMARK    7  A    between atoms: CAR_18  and  OAG_7 
REMARK    8  A    between atoms: CAS_19  and  OAH_8 
REMARK    9  A    between atoms: CAT_20  and  OAI_9 
REMARK   10  A    between atoms: CAN_14  and  CAJ_10 
REMARK   11  A    between atoms: CAU_21  and  CAK_11 
REMARK   12  A    between atoms: CAL_12  and  CAO_15 
REMARK   13  A    between atoms: SAV_22  and  CAL_12 
REMARK   14  A    between atoms: CAQ_17  and  CAN_14 
REMARK   15  A    between atoms: CAO_15  and  CAR_18 
REMARK   16  A    between atoms: CAS_19  and  CAQ_17 
REMARK   17  A    between atoms: CAR_18  and  CAS_19 
ROOT
ATOM      1  CAO DSK d          -2.306 -20.377 -20.058  0.00  0.00     0.070 C 
ATOM      2  H19 DSK d          -3.388 -20.327 -19.868  0.00  0.00     0.088 H 
ENDROOT
BRANCH   1   3
ATOM      3  OAD DSK d          -2.101 -20.383 -21.463  0.00  0.00    -0.392 OA
ATOM      4  H4  DSK d          -2.418 -19.567 -21.832  0.00  0.00     0.210 HD
ENDBRANCH   1   3
BRANCH   1   5
ATOM      5  CAL DSK d          -1.658 -19.119 -19.400  0.00  0.00    -0.005 C 
ATOM      6  H14 DSK d          -0.572 -19.145 -19.571  0.00  0.00     0.051 H 
ATOM      7  H15 DSK d          -1.859 -19.137 -18.319  0.00  0.00     0.051 H 
BRANCH   5   8
ATOM      8  SAV DSK d          -2.326 -17.587 -20.096  0.00  0.00    -0.206 SA
ATOM      9  CAM DSK d          -1.272 -16.955 -21.465  0.00  0.00    -0.005 C 
ATOM     10  CAP DSK d          -0.185 -16.197 -20.675  0.00  0.00     0.069 C 
ATOM     11  H16 DSK d          -0.843 -17.777 -22.057  0.00  0.00     0.051 H 
ATOM     12  H17 DSK d          -1.833 -16.281 -22.129  0.00  0.00     0.051 H 
ATOM     13  CAT DSK d          -1.003 -15.320 -19.688  0.00  0.00     0.074 C 
ATOM     14  H20 DSK d           0.467 -16.903 -20.138  0.00  0.00     0.088 H 
ATOM     15  CAU DSK d          -1.842 -16.329 -18.852  0.00  0.00     0.030 C 
ATOM     16  H24 DSK d          -1.650 -14.601 -20.212  0.00  0.00     0.088 H 
ATOM     17  H25 DSK d          -1.182 -16.804 -18.111  0.00  0.00     0.062 H 
BRANCH  10  18
ATOM     18  OAE DSK d           0.628 -15.334 -21.526  0.00  0.00    -0.392 OA
ATOM     19  H5  DSK d           1.039 -14.662 -20.995  0.00  0.00     0.210 HD
ENDBRANCH  10  18
BRANCH  13  20
ATOM     20  OAI DSK d          -0.056 -14.643 -18.852  0.00  0.00    -0.392 OA
ATOM     21  H9  DSK d          -0.287 -14.780 -17.939  0.00  0.00     0.210 HD
ENDBRANCH  13  20
BRANCH  15  22
ATOM     22  CAK DSK d          -3.018 -15.708 -18.048  0.00  0.00     0.030 C 
ATOM     23  H12 DSK d          -3.755 -16.499 -17.844  0.00  0.00     0.075 H 
ATOM     24  H13 DSK d          -2.622 -15.322 -17.097  0.00  0.00     0.075 H 
BRANCH  22  25
ATOM     25  OAB DSK d          -3.682 -14.637 -18.728  0.00  0.00    -0.400 OA
ATOM     26  H2  DSK d          -4.601 -14.633 -18.487  0.00  0.00     0.209 HD
ENDBRANCH  22  25
ENDBRANCH  15  22
ENDBRANCH   5   8
ENDBRANCH   1   5
BRANCH   1  27
ATOM     27  CAR DSK d          -1.789 -21.689 -19.474  0.00  0.00     0.088 C 
ATOM     28  H22 DSK d          -0.737 -21.595 -19.162  0.00  0.00     0.091 H 
BRANCH  27  29
ATOM     29  OAG DSK d          -2.653 -21.990 -18.365  0.00  0.00    -0.390 OA
ATOM     30  H7  DSK d          -2.550 -21.325 -17.695  0.00  0.00     0.210 HD
ENDBRANCH  27  29
BRANCH  27  31
ATOM     31  CAS DSK d          -1.964 -22.847 -20.485  0.00  0.00     0.090 C 
ATOM     32  H23 DSK d          -2.499 -22.457 -21.363  0.00  0.00     0.091 H 
BRANCH  31  33
ATOM     33  OAH DSK d          -2.736 -23.896 -19.904  0.00  0.00    -0.390 OA
ATOM     34  H8  DSK d          -3.633 -23.834 -20.210  0.00  0.00     0.210 HD
ENDBRANCH  31  33
BRANCH  31  35
ATOM     35  CAQ DSK d          -0.626 -23.417 -20.949  0.00  0.00     0.089 C 
ATOM     36  H21 DSK d          -0.251 -24.137 -20.207  0.00  0.00     0.091 H 
BRANCH  35  37
ATOM     37  OAF DSK d           0.293 -22.328 -21.092  0.00  0.00    -0.390 OA
ATOM     38  H6  DSK d          -0.174 -21.507 -20.996  0.00  0.00     0.210 HD
ENDBRANCH  35  37
BRANCH  35  39
ATOM     39  CAN DSK d          -0.771 -24.113 -22.321  0.00  0.00     0.083 C 
ATOM     40  H18 DSK d           0.218 -24.198 -22.794  0.00  0.00     0.090 H 
BRANCH  39  41
ATOM     41  OAC DSK d          -1.320 -25.424 -22.122  0.00  0.00    -0.391 OA
ATOM     42  H3  DSK d          -1.498 -25.823 -22.966  0.00  0.00     0.210 HD
ENDBRANCH  39  41
BRANCH  39  43
ATOM     43  CAJ DSK d          -1.694 -23.286 -23.225  0.00  0.00     0.043 C 
ATOM     44  H10 DSK d          -2.032 -23.901 -24.073  0.00  0.00     0.078 H 
ATOM     45  H11 DSK d          -2.567 -22.942 -22.651  0.00  0.00     0.078 H 
BRANCH  43  46
ATOM     46  OAA DSK d          -0.962 -22.170 -23.702  0.00  0.00    -0.398 OA
ATOM     47  H1  DSK d          -1.532 -21.619 -24.225  0.00  0.00     0.209 HD
ENDBRANCH  43  46
ENDBRANCH  39  43
ENDBRANCH  35  39
ENDBRANCH  31  35
ENDBRANCH  27  31
ENDBRANCH   1  27
TORSDOF 17
ENDMDL
MODEL 5
REMARK VINA RESULT:      -5.3      2.038      7.724
REMARK  17 active torsions:
REMARK  status: ('A' for Active; 'I' for Inactive)
REMARK    1  A    between atoms: CAJ_10  and  OAA_1 
REMARK    2  A    between atoms: CAK_11  and  OAB_2 
REMARK    3  A    between atoms: CAN_14  and  OAC_3 
REMARK    4  A    between atoms: CAO_15  and  OAD_4 
REMARK    5  A    between atoms: CAP_16  and  OAE_5 
REMARK    6  A    between atoms: CAQ_17  and  OAF_6 
REMARK    7  A    between atoms: CAR_18  and  OAG_7 
REMARK    8  A    between atoms: CAS_19  and  OAH_8 
REMARK    9  A    between atoms: CAT_20  and  OAI_9 
REMARK   10  A    between atoms: CAN_14  and  CAJ_10 
REMARK   11  A    between atoms: CAU_21  and  CAK_11 
REMARK   12  A    between atoms: CAL_12  and  CAO_15 
REMARK   13  A    between atoms: SAV_22  and  CAL_12 
REMARK   14  A    between atoms: CAQ_17  and  CAN_14 
REMARK   15  A    between atoms: CAO_15  and  CAR_18 
REMARK   16  A    between atoms: CAS_19  and  CAQ_17 
REMARK   17  A    between atoms: CAR_18  and  CAS_19 
ROOT
ATOM      1  CAO DSK d          -3.377 -20.375 -21.315  0.00  0.00     0.070 C 
ATOM      2  H19 DSK d          -4.136 -19.768 -21.832  0.00  0.00     0.088 H 
ENDROOT
BRANCH   1   3
ATOM      3  OAD DSK d          -4.047 -21.262 -20.431  0.00  0.00    -0.392 OA
ATOM      4  H4  DSK d          -4.938 -21.396 -20.733  0.00  0.00     0.210 HD
ENDBRANCH   1   3
BRANCH   1   5
ATOM      5  CAL DSK d          -2.584 -21.159 -22.406  0.00  0.00    -0.005 C 
ATOM      6  H14 DSK d          -1.532 -20.840 -22.382  0.00  0.00     0.051 H 
ATOM      7  H15 DSK d          -3.014 -20.932 -23.393  0.00  0.00     0.051 H 
BRANCH   5   8
ATOM      8  SAV DSK d          -2.663 -22.947 -22.128  0.00  0.00    -0.206 SA
ATOM      9  CAM DSK d          -1.137 -23.568 -21.309  0.00  0.00    -0.005 C 
ATOM     10  CAP DSK d          -0.198 -23.732 -22.522  0.00  0.00     0.069 C 
ATOM     11  H16 DSK d          -0.741 -22.839 -20.588  0.00  0.00     0.051 H 
ATOM     12  H17 DSK d          -1.314 -24.527 -20.801  0.00  0.00     0.051 H 
ATOM     13  CAT DSK d          -1.061 -24.526 -23.541  0.00  0.00     0.074 C 
ATOM     14  H20 DSK d           0.094 -22.750 -22.923  0.00  0.00     0.088 H 
ATOM     15  CAU DSK d          -2.310 -23.633 -23.793  0.00  0.00     0.030 C 
ATOM     16  H24 DSK d          -1.349 -25.515 -23.157  0.00  0.00     0.088 H 
ATOM     17  H25 DSK d          -2.022 -22.807 -24.459  0.00  0.00     0.062 H 
BRANCH  10  18
ATOM     18  OAE DSK d           1.000 -24.504 -22.203  0.00  0.00    -0.392 OA
ATOM     19  H5  DSK d           1.477 -24.691 -23.002  0.00  0.00     0.210 HD
ENDBRANCH  10  18
BRANCH  13  20
ATOM     20  OAI DSK d          -0.284 -24.646 -24.739  0.00  0.00    -0.392 OA
ATOM     21  H9  DSK d           0.354 -25.343 -24.632  0.00  0.00     0.210 HD
ENDBRANCH  13  20
BRANCH  15  22
ATOM     22  CAK DSK d          -3.507 -24.346 -24.481  0.00  0.00     0.030 C 
ATOM     23  H12 DSK d          -3.142 -24.827 -25.400  0.00  0.00     0.075 H 
ATOM     24  H13 DSK d          -3.895 -25.114 -23.794  0.00  0.00     0.075 H 
BRANCH  22  25
ATOM     25  OAB DSK d          -4.583 -23.468 -24.828  0.00  0.00    -0.400 OA
ATOM     26  H2  DSK d          -5.096 -23.858 -25.526  0.00  0.00     0.209 HD
ENDBRANCH  22  25
ENDBRANCH  15  22
ENDBRANCH   5   8
ENDBRANCH   1   5
BRANCH   1  27
ATOM     27  CAR DSK d          -2.498 -19.430 -20.500  0.00  0.00     0.088 C 
ATOM     28  H22 DSK d          -2.855 -19.356 -19.462  0.00  0.00     0.091 H 
BRANCH  27  29
ATOM     29  OAG DSK d          -1.168 -19.974 -20.574  0.00  0.00    -0.390 OA
ATOM     30  H7  DSK d          -0.853 -19.916 -21.468  0.00  0.00     0.210 HD
ENDBRANCH  27  29
BRANCH  27  31
ATOM     31  CAS DSK d          -2.431 -18.034 -21.163  0.00  0.00     0.090 C 
ATOM     32  H23 DSK d          -3.401 -17.835 -21.641  0.00  0.00     0.091 H 
BRANCH  31  33
ATOM     33  OAH DSK d          -1.412 -18.010 -22.161  0.00  0.00    -0.390 OA
ATOM     34  H8  DSK d          -1.526 -17.244 -22.710  0.00  0.00     0.210 HD
ENDBRANCH  31  33
BRANCH  31  35
ATOM     35  CAQ DSK d          -2.155 -16.925 -20.149  0.00  0.00     0.089 C 
ATOM     36  H21 DSK d          -2.244 -17.324 -19.128  0.00  0.00     0.091 H 
BRANCH  35  37
ATOM     37  OAF DSK d          -3.117 -15.885 -20.360  0.00  0.00    -0.390 OA
ATOM     38  H6  DSK d          -2.810 -15.084 -19.954  0.00  0.00     0.210 HD
ENDBRANCH  35  37
BRANCH  35  39
ATOM     39  CAN DSK d          -0.745 -16.331 -20.354  0.00  0.00     0.083 C 
ATOM     40  H18 DSK d          -0.017 -17.147 -20.472  0.00  0.00     0.090 H 
BRANCH  39  41
ATOM     41  OAC DSK d          -0.748 -15.519 -21.538  0.00  0.00    -0.391 OA
ATOM     42  H3  DSK d          -0.876 -16.072 -22.300  0.00  0.00     0.210 HD
ENDBRANCH  39  41
BRANCH  39  43
ATOM     43  CAJ DSK d          -0.359 -15.482 -19.136  0.00  0.00     0.043 C 
ATOM     44  H10 DSK d          -0.533 -16.056 -18.213  0.00  0.00     0.078 H 
ATOM     45  H11 DSK d           0.703 -15.202 -19.198  0.00  0.00     0.078 H 
BRANCH  43  46
ATOM     46  OAA DSK d          -1.164 -14.316 -19.136  0.00  0.00    -0.398 OA
ATOM     47  H1  DSK d          -1.974 -14.491 -18.671  0.00  0.00     0.209 HD
ENDBRANCH  43  46
ENDBRANCH  39  43
ENDBRANCH  35  39
ENDBRANCH  31  35
ENDBRANCH  27  31
ENDBRANCH   1  27
TORSDOF 17
ENDMDL
MODEL 6
REMARK VINA RESULT:      -4.9      2.468      4.326
REMARK  17 active torsions:
REMARK  status: ('A' for Active; 'I' for Inactive)
REMARK    1  A    between atoms: CAJ_10  and  OAA_1 
REMARK    2  A    between atoms: CAK_11  and  OAB_2 
REMARK    3  A    between atoms: CAN_14  and  OAC_3 
REMARK    4  A    between atoms: CAO_15  and  OAD_4 
REMARK    5  A    between atoms: CAP_16  and  OAE_5 
REMARK    6  A    between atoms: CAQ_17  and  OAF_6 
REMARK    7  A    between atoms: CAR_18  and  OAG_7 
REMARK    8  A    between atoms: CAS_19  and  OAH_8 
REMARK    9  A    between atoms: CAT_20  and  OAI_9 
REMARK   10  A    between atoms: CAN_14  and  CAJ_10 
REMARK   11  A    between atoms: CAU_21  and  CAK_11 
REMARK   12  A    between atoms: CAL_12  and  CAO_15 
REMARK   13  A    between atoms: SAV_22  and  CAL_12 
REMARK   14  A    between atoms: CAQ_17  and  CAN_14 
REMARK   15  A    between atoms: CAO_15  and  CAR_18 
REMARK   16  A    between atoms: CAS_19  and  CAQ_17 
REMARK   17  A    between atoms: CAR_18  and  CAS_19 
ROOT
ATOM      1  CAO DSK d          -0.819 -22.579 -20.713  0.00  0.00     0.070 C 
ATOM      2  H19 DSK d          -1.455 -22.170 -21.512  0.00  0.00     0.088 H 
ENDROOT
BRANCH   1   3
ATOM      3  OAD DSK d           0.536 -22.309 -21.043  0.00  0.00    -0.392 OA
ATOM      4  H4  DSK d           0.837 -22.942 -21.684  0.00  0.00     0.210 HD
ENDBRANCH   1   3
BRANCH   1   5
ATOM      5  CAL DSK d          -1.227 -21.870 -19.383  0.00  0.00    -0.005 C 
ATOM      6  H14 DSK d          -0.368 -21.297 -19.006  0.00  0.00     0.051 H 
ATOM      7  H15 DSK d          -1.510 -22.634 -18.644  0.00  0.00     0.051 H 
BRANCH   5   8
ATOM      8  SAV DSK d          -2.623 -20.745 -19.631  0.00  0.00    -0.206 SA
ATOM      9  CAM DSK d          -3.994 -21.565 -20.543  0.00  0.00    -0.005 C 
ATOM     10  CAP DSK d          -3.519 -21.400 -22.001  0.00  0.00     0.069 C 
ATOM     11  H16 DSK d          -4.086 -22.625 -20.266  0.00  0.00     0.051 H 
ATOM     12  H17 DSK d          -4.954 -21.057 -20.370  0.00  0.00     0.051 H 
ATOM     13  CAT DSK d          -3.150 -19.894 -22.091  0.00  0.00     0.074 C 
ATOM     14  H20 DSK d          -2.645 -22.039 -22.199  0.00  0.00     0.088 H 
ATOM     15  CAU DSK d          -2.049 -19.683 -21.012  0.00  0.00     0.030 C 
ATOM     16  H24 DSK d          -4.018 -19.243 -21.908  0.00  0.00     0.088 H 
ATOM     17  H25 DSK d          -1.101 -20.088 -21.396  0.00  0.00     0.062 H 
BRANCH  10  18
ATOM     18  OAE DSK d          -4.570 -21.697 -22.970  0.00  0.00    -0.392 OA
ATOM     19  H5  DSK d          -5.095 -22.422 -22.654  0.00  0.00     0.210 HD
ENDBRANCH  10  18
BRANCH  13  20
ATOM     20  OAI DSK d          -2.614 -19.675 -23.402  0.00  0.00    -0.392 OA
ATOM     21  H9  DSK d          -1.770 -20.108 -23.474  0.00  0.00     0.210 HD
ENDBRANCH  13  20
BRANCH  15  22
ATOM     22  CAK DSK d          -1.766 -18.203 -20.634  0.00  0.00     0.030 C 
ATOM     23  H12 DSK d          -2.711 -17.740 -20.314  0.00  0.00     0.075 H 
ATOM     24  H13 DSK d          -1.049 -18.189 -19.800  0.00  0.00     0.075 H 
BRANCH  22  25
ATOM     25  OAB DSK d          -1.224 -17.425 -21.706  0.00  0.00    -0.400 OA
ATOM     26  H2  DSK d          -0.509 -16.891 -21.379  0.00  0.00     0.209 HD
ENDBRANCH  22  25
ENDBRANCH  15  22
ENDBRANCH   5   8
ENDBRANCH   1   5
BRANCH   1  27
ATOM     27  CAR DSK d          -1.031 -24.090 -20.674  0.00  0.00     0.088 C 
ATOM     28  H22 DSK d          -0.068 -24.622 -20.628  0.00  0.00     0.091 H 
BRANCH  27  29
ATOM     29  OAG DSK d          -1.840 -24.341 -19.512  0.00  0.00    -0.390 OA
ATOM     30  H7  DSK d          -2.338 -23.560 -19.300  0.00  0.00     0.210 HD
ENDBRANCH  27  29
BRANCH  27  31
ATOM     31  CAS DSK d          -1.863 -24.560 -21.890  0.00  0.00     0.090 C 
ATOM     32  H23 DSK d          -2.427 -23.696 -22.273  0.00  0.00     0.091 H 
BRANCH  31  33
ATOM     33  OAH DSK d          -2.787 -25.572 -21.493  0.00  0.00    -0.390 OA
ATOM     34  H8  DSK d          -3.568 -25.515 -22.031  0.00  0.00     0.210 HD
ENDBRANCH  31  33
BRANCH  31  35
ATOM     35  CAQ DSK d          -0.988 -25.104 -23.016  0.00  0.00     0.089 C 
ATOM     36  H21 DSK d          -1.237 -26.158 -23.205  0.00  0.00     0.091 H 
BRANCH  35  37
ATOM     37  OAF DSK d           0.380 -24.983 -22.609  0.00  0.00    -0.390 OA
ATOM     38  H6  DSK d           0.535 -25.539 -21.854  0.00  0.00     0.210 HD
ENDBRANCH  35  37
BRANCH  35  39
ATOM     39  CAN DSK d          -1.183 -24.283 -24.310  0.00  0.00     0.083 C 
ATOM     40  H18 DSK d          -1.048 -24.939 -25.183  0.00  0.00     0.090 H 
BRANCH  39  41
ATOM     41  OAC DSK d          -2.512 -23.741 -24.321  0.00  0.00    -0.391 OA
ATOM     42  H3  DSK d          -2.501 -22.887 -24.738  0.00  0.00     0.210 HD
ENDBRANCH  39  41
BRANCH  39  43
ATOM     43  CAJ DSK d          -0.151 -23.150 -24.365  0.00  0.00     0.043 C 
ATOM     44  H10 DSK d           0.664 -23.354 -23.654  0.00  0.00     0.078 H 
ATOM     45  H11 DSK d           0.261 -23.070 -25.382  0.00  0.00     0.078 H 
BRANCH  43  46
ATOM     46  OAA DSK d          -0.803 -21.941 -24.014  0.00  0.00    -0.398 OA
ATOM     47  H1  DSK d          -0.599 -21.723 -23.112  0.00  0.00     0.209 HD
ENDBRANCH  43  46
ENDBRANCH  39  43
ENDBRANCH  35  39
ENDBRANCH  31  35
ENDBRANCH  27  31
ENDBRANCH   1  27
TORSDOF 17
ENDMDL
MODEL 7
REMARK VINA RESULT:      -4.9      2.221      7.683
REMARK  17 active torsions:
REMARK  status: ('A' for Active; 'I' for Inactive)
REMARK    1  A    between atoms: CAJ_10  and  OAA_1 
REMARK    2  A    between atoms: CAK_11  and  OAB_2 
REMARK    3  A    between atoms: CAN_14  and  OAC_3 
REMARK    4  A    between atoms: CAO_15  and  OAD_4 
REMARK    5  A    between atoms: CAP_16  and  OAE_5 
REMARK    6  A    between atoms: CAQ_17  and  OAF_6 
REMARK    7  A    between atoms: CAR_18  and  OAG_7 
REMARK    8  A    between atoms: CAS_19  and  OAH_8 
REMARK    9  A    between atoms: CAT_20  and  OAI_9 
REMARK   10  A    between atoms: CAN_14  and  CAJ_10 
REMARK   11  A    between atoms: CAU_21  and  CAK_11 
REMARK   12  A    between atoms: CAL_12  and  CAO_15 
REMARK   13  A    between atoms: SAV_22  and  CAL_12 
REMARK   14  A    between atoms: CAQ_17  and  CAN_14 
REMARK   15  A    between atoms: CAO_15  and  CAR_18 
REMARK   16  A    between atoms: CAS_19  and  CAQ_17 
REMARK   17  A    between atoms: CAR_18  and  CAS_19 
ROOT
ATOM      1  CAO DSK d          -2.516 -20.554 -19.869  0.00  0.00     0.070 C 
ATOM      2  H19 DSK d          -3.239 -20.120 -19.163  0.00  0.00     0.088 H 
ENDROOT
BRANCH   1   3
ATOM      3  OAD DSK d          -1.397 -21.019 -19.127  0.00  0.00    -0.392 OA
ATOM      4  H4  DSK d          -0.695 -20.383 -19.183  0.00  0.00     0.210 HD
ENDBRANCH   1   3
BRANCH   1   5
ATOM      5  CAL DSK d          -3.231 -21.730 -20.605  0.00  0.00    -0.005 C 
ATOM      6  H14 DSK d          -4.261 -21.428 -20.844  0.00  0.00     0.051 H 
ATOM      7  H15 DSK d          -3.251 -22.607 -19.943  0.00  0.00     0.051 H 
BRANCH   5   8
ATOM      8  SAV DSK d          -2.376 -22.170 -22.140  0.00  0.00    -0.206 SA
ATOM      9  CAM DSK d          -3.459 -23.157 -23.253  0.00  0.00    -0.005 C 
ATOM     10  CAP DSK d          -3.273 -24.572 -22.667  0.00  0.00     0.069 C 
ATOM     11  H16 DSK d          -4.507 -22.829 -23.191  0.00  0.00     0.051 H 
ATOM     12  H17 DSK d          -3.119 -23.103 -24.298  0.00  0.00     0.051 H 
ATOM     13  CAT DSK d          -1.730 -24.713 -22.551  0.00  0.00     0.074 C 
ATOM     14  H20 DSK d          -3.757 -24.651 -21.683  0.00  0.00     0.088 H 
ATOM     15  CAU DSK d          -1.287 -23.550 -21.617  0.00  0.00     0.030 C 
ATOM     16  H24 DSK d          -1.234 -24.649 -23.531  0.00  0.00     0.088 H 
ATOM     17  H25 DSK d          -1.536 -23.820 -20.580  0.00  0.00     0.062 H 
BRANCH  10  18
ATOM     18  OAE DSK d          -3.787 -25.616 -23.549  0.00  0.00    -0.392 OA
ATOM     19  H5  DSK d          -4.713 -25.473 -23.700  0.00  0.00     0.210 HD
ENDBRANCH  10  18
BRANCH  13  20
ATOM     20  OAI DSK d          -1.475 -25.979 -21.930  0.00  0.00    -0.392 OA
ATOM     21  H9  DSK d          -0.711 -25.906 -21.368  0.00  0.00     0.210 HD
ENDBRANCH  13  20
BRANCH  15  22
ATOM     22  CAK DSK d           0.234 -23.233 -21.628  0.00  0.00     0.030 C 
ATOM     23  H12 DSK d           0.777 -24.129 -21.292  0.00  0.00     0.075 H 
ATOM     24  H13 DSK d           0.529 -22.990 -22.660  0.00  0.00     0.075 H 
BRANCH  22  25
ATOM     25  OAB DSK d           0.603 -22.138 -20.784  0.00  0.00    -0.400 OA
ATOM     26  H2  DSK d           0.775 -21.371 -21.319  0.00  0.00     0.209 HD
ENDBRANCH  22  25
ENDBRANCH  15  22
ENDBRANCH   5   8
ENDBRANCH   1   5
BRANCH   1  27
ATOM     27  CAR DSK d          -2.061 -19.445 -20.813  0.00  0.00     0.088 C 
ATOM     28  H22 DSK d          -1.372 -19.836 -21.577  0.00  0.00     0.091 H 
BRANCH  27  29
ATOM     29  OAG DSK d          -3.263 -18.911 -21.396  0.00  0.00    -0.390 OA
ATOM     30  H7  DSK d          -3.841 -19.625 -21.635  0.00  0.00     0.210 HD
ENDBRANCH  27  29
BRANCH  27  31
ATOM     31  CAS DSK d          -1.410 -18.285 -20.025  0.00  0.00     0.090 C 
ATOM     32  H23 DSK d          -0.374 -18.569 -19.789  0.00  0.00     0.091 H 
BRANCH  31  33
ATOM     33  OAH DSK d          -2.116 -18.061 -18.805  0.00  0.00    -0.390 OA
ATOM     34  H8  DSK d          -2.474 -17.182 -18.804  0.00  0.00     0.210 HD
ENDBRANCH  31  33
BRANCH  31  35
ATOM     35  CAQ DSK d          -1.384 -16.984 -20.825  0.00  0.00     0.089 C 
ATOM     36  H21 DSK d          -2.367 -16.494 -20.769  0.00  0.00     0.091 H 
BRANCH  35  37
ATOM     37  OAF DSK d          -1.068 -17.308 -22.184  0.00  0.00    -0.390 OA
ATOM     38  H6  DSK d          -0.414 -17.997 -22.200  0.00  0.00     0.210 HD
ENDBRANCH  35  37
BRANCH  35  39
ATOM     39  CAN DSK d          -0.296 -16.030 -20.288  0.00  0.00     0.083 C 
ATOM     40  H18 DSK d           0.296 -16.545 -19.517  0.00  0.00     0.090 H 
BRANCH  39  41
ATOM     41  OAC DSK d           0.564 -15.646 -21.371  0.00  0.00    -0.391 OA
ATOM     42  H3  DSK d           0.157 -15.882 -22.196  0.00  0.00     0.210 HD
ENDBRANCH  39  41
BRANCH  39  43
ATOM     43  CAJ DSK d          -0.954 -14.788 -19.673  0.00  0.00     0.043 C 
ATOM     44  H10 DSK d          -0.191 -14.019 -19.481  0.00  0.00     0.078 H 
ATOM     45  H11 DSK d          -1.712 -14.388 -20.363  0.00  0.00     0.078 H 
BRANCH  43  46
ATOM     46  OAA DSK d          -1.568 -15.170 -18.454  0.00  0.00    -0.398 OA
ATOM     47  H1  DSK d          -0.900 -15.309 -17.794  0.00  0.00     0.209 HD
ENDBRANCH  43  46
ENDBRANCH  39  43
ENDBRANCH  35  39
ENDBRANCH  31  35
ENDBRANCH  27  31
ENDBRANCH   1  27
TORSDOF 17
ENDMDL
MODEL 8
REMARK VINA RESULT:      -4.7      2.045      7.886
REMARK  17 active torsions:
REMARK  status: ('A' for Active; 'I' for Inactive)
REMARK    1  A    between atoms: CAJ_10  and  OAA_1 
REMARK    2  A    between atoms: CAK_11  and  OAB_2 
REMARK    3  A    between atoms: CAN_14  and  OAC_3 
REMARK    4  A    between atoms: CAO_15  and  OAD_4 
REMARK    5  A    between atoms: CAP_16  and  OAE_5 
REMARK    6  A    between atoms: CAQ_17  and  OAF_6 
REMARK    7  A    between atoms: CAR_18  and  OAG_7 
REMARK    8  A    between atoms: CAS_19  and  OAH_8 
REMARK    9  A    between atoms: CAT_20  and  OAI_9 
REMARK   10  A    between atoms: CAN_14  and  CAJ_10 
REMARK   11  A    between atoms: CAU_21  and  CAK_11 
REMARK   12  A    between atoms: CAL_12  and  CAO_15 
REMARK   13  A    between atoms: SAV_22  and  CAL_12 
REMARK   14  A    between atoms: CAQ_17  and  CAN_14 
REMARK   15  A    between atoms: CAO_15  and  CAR_18 
REMARK   16  A    between atoms: CAS_19  and  CAQ_17 
REMARK   17  A    between atoms: CAR_18  and  CAS_19 
ROOT
ATOM      1  CAO DSK d          -2.605 -20.004 -20.400  0.00  0.00     0.070 C 
ATOM      2  H19 DSK d          -3.411 -19.442 -19.907  0.00  0.00     0.088 H 
ENDROOT
BRANCH   1   3
ATOM      3  OAD DSK d          -2.035 -20.890 -19.448  0.00  0.00    -0.392 OA
ATOM      4  H4  DSK d          -2.490 -21.723 -19.479  0.00  0.00     0.210 HD
ENDBRANCH   1   3
BRANCH   1   5
ATOM      5  CAL DSK d          -3.242 -20.788 -21.589  0.00  0.00    -0.005 C 
ATOM      6  H14 DSK d          -2.788 -20.444 -22.529  0.00  0.00     0.051 H 
ATOM      7  H15 DSK d          -4.323 -20.588 -21.610  0.00  0.00     0.051 H 
BRANCH   5   8
ATOM      8  SAV DSK d          -2.977 -22.572 -21.426  0.00  0.00    -0.206 SA
ATOM      9  CAM DSK d          -1.204 -23.011 -21.646  0.00  0.00    -0.005 C 
ATOM     10  CAP DSK d          -1.103 -23.071 -23.184  0.00  0.00     0.069 C 
ATOM     11  H16 DSK d          -0.542 -22.238 -21.227  0.00  0.00     0.051 H 
ATOM     12  H17 DSK d          -0.968 -23.982 -21.186  0.00  0.00     0.051 H 
ATOM     13  CAT DSK d          -2.310 -23.962 -23.589  0.00  0.00     0.074 C 
ATOM     14  H20 DSK d          -1.186 -22.063 -23.618  0.00  0.00     0.088 H 
ATOM     15  CAU DSK d          -3.562 -23.219 -23.040  0.00  0.00     0.030 C 
ATOM     16  H24 DSK d          -2.232 -24.977 -23.172  0.00  0.00     0.088 H 
ATOM     17  H25 DSK d          -3.782 -22.368 -23.701  0.00  0.00     0.062 H 
BRANCH  10  18
ATOM     18  OAE DSK d           0.133 -23.698 -23.641  0.00  0.00    -0.392 OA
ATOM     19  H5  DSK d          -0.023 -24.141 -24.466  0.00  0.00     0.210 HD
ENDBRANCH  10  18
BRANCH  13  20
ATOM     20  OAI DSK d          -2.337 -23.997 -25.022  0.00  0.00    -0.392 OA
ATOM     21  H9  DSK d          -1.456 -24.137 -25.351  0.00  0.00     0.210 HD
ENDBRANCH  13  20
BRANCH  15  22
ATOM     22  CAK DSK d          -4.862 -24.067 -22.980  0.00  0.00     0.030 C 
ATOM     23  H12 DSK d          -5.706 -23.393 -22.772  0.00  0.00     0.075 H 
ATOM     24  H13 DSK d          -5.008 -24.547 -23.959  0.00  0.00     0.075 H 
BRANCH  22  25
ATOM     25  OAB DSK d          -4.842 -25.088 -21.977  0.00  0.00    -0.400 OA
ATOM     26  H2  DSK d          -4.946 -24.690 -21.120  0.00  0.00     0.209 HD
ENDBRANCH  22  25
ENDBRANCH  15  22
ENDBRANCH   5   8
ENDBRANCH   1   5
BRANCH   1  27
ATOM     27  CAR DSK d          -1.542 -19.003 -20.847  0.00  0.00     0.088 C 
ATOM     28  H22 DSK d          -0.615 -19.517 -21.143  0.00  0.00     0.091 H 
BRANCH  27  29
ATOM     29  OAG DSK d          -2.127 -18.275 -21.941  0.00  0.00    -0.390 OA
ATOM     30  H7  DSK d          -2.302 -17.382 -21.668  0.00  0.00     0.210 HD
ENDBRANCH  27  29
BRANCH  27  31
ATOM     31  CAS DSK d          -1.265 -17.963 -19.735  0.00  0.00     0.090 C 
ATOM     32  H23 DSK d          -0.284 -18.188 -19.292  0.00  0.00     0.091 H 
BRANCH  31  33
ATOM     33  OAH DSK d          -2.261 -18.053 -18.717  0.00  0.00    -0.390 OA
ATOM     34  H8  DSK d          -1.851 -18.298 -17.896  0.00  0.00     0.210 HD
ENDBRANCH  31  33
BRANCH  31  35
ATOM     35  CAQ DSK d          -1.237 -16.534 -20.273  0.00  0.00     0.089 C 
ATOM     36  H21 DSK d          -2.095 -16.372 -20.942  0.00  0.00     0.091 H 
BRANCH  35  37
ATOM     37  OAF DSK d          -0.009 -16.356 -20.988  0.00  0.00    -0.390 OA
ATOM     38  H6  DSK d          -0.197 -16.037 -21.863  0.00  0.00     0.210 HD
ENDBRANCH  35  37
BRANCH  35  39
ATOM     39  CAN DSK d          -1.279 -15.511 -19.117  0.00  0.00     0.083 C 
ATOM     40  H18 DSK d          -1.130 -16.032 -18.161  0.00  0.00     0.090 H 
BRANCH  39  41
ATOM     41  OAC DSK d          -0.229 -14.551 -19.307  0.00  0.00    -0.391 OA
ATOM     42  H3  DSK d          -0.105 -14.056 -18.506  0.00  0.00     0.210 HD
ENDBRANCH  39  41
BRANCH  39  43
ATOM     43  CAJ DSK d          -2.641 -14.805 -19.100  0.00  0.00     0.043 C 
ATOM     44  H10 DSK d          -2.496 -13.720 -18.990  0.00  0.00     0.078 H 
ATOM     45  H11 DSK d          -3.178 -15.010 -20.038  0.00  0.00     0.078 H 
BRANCH  43  46
ATOM     46  OAA DSK d          -3.384 -15.304 -18.002  0.00  0.00    -0.398 OA
ATOM     47  H1  DSK d          -2.792 -15.515 -17.290  0.00  0.00     0.209 HD
ENDBRANCH  43  46
ENDBRANCH  39  43
ENDBRANCH  35  39
ENDBRANCH  31  35
ENDBRANCH  27  31
ENDBRANCH   1  27
TORSDOF 17
ENDMDL
MODEL 9
REMARK VINA RESULT:      -4.7      1.824      2.622
REMARK  17 active torsions:
REMARK  status: ('A' for Active; 'I' for Inactive)
REMARK    1  A    between atoms: CAJ_10  and  OAA_1 
REMARK    2  A    between atoms: CAK_11  and  OAB_2 
REMARK    3  A    between atoms: CAN_14  and  OAC_3 
REMARK    4  A    between atoms: CAO_15  and  OAD_4 
REMARK    5  A    between atoms: CAP_16  and  OAE_5 
REMARK    6  A    between atoms: CAQ_17  and  OAF_6 
REMARK    7  A    between atoms: CAR_18  and  OAG_7 
REMARK    8  A    between atoms: CAS_19  and  OAH_8 
REMARK    9  A    between atoms: CAT_20  and  OAI_9 
REMARK   10  A    between atoms: CAN_14  and  CAJ_10 
REMARK   11  A    between atoms: CAU_21  and  CAK_11 
REMARK   12  A    between atoms: CAL_12  and  CAO_15 
REMARK   13  A    between atoms: SAV_22  and  CAL_12 
REMARK   14  A    between atoms: CAQ_17  and  CAN_14 
REMARK   15  A    between atoms: CAO_15  and  CAR_18 
REMARK   16  A    between atoms: CAS_19  and  CAQ_17 
REMARK   17  A    between atoms: CAR_18  and  CAS_19 
ROOT
ATOM      1  CAO DSK d          -3.131 -19.493 -21.814  0.00  0.00     0.070 C 
ATOM      2  H19 DSK d          -3.990 -18.825 -21.971  0.00  0.00     0.088 H 
ENDROOT
BRANCH   1   3
ATOM      3  OAD DSK d          -2.557 -19.782 -23.080  0.00  0.00    -0.392 OA
ATOM      4  H4  DSK d          -2.853 -20.636 -23.374  0.00  0.00     0.210 HD
ENDBRANCH   1   3
BRANCH   1   5
ATOM      5  CAL DSK d          -2.117 -18.741 -20.895  0.00  0.00    -0.005 C 
ATOM      6  H14 DSK d          -1.096 -18.949 -21.244  0.00  0.00     0.051 H 
ATOM      7  H15 DSK d          -2.233 -19.105 -19.863  0.00  0.00     0.051 H 
BRANCH   5   8
ATOM      8  SAV DSK d          -2.396 -16.952 -20.921  0.00  0.00    -0.206 SA
ATOM      9  CAM DSK d          -0.964 -16.060 -21.654  0.00  0.00    -0.005 C 
ATOM     10  CAP DSK d          -0.024 -15.960 -20.434  0.00  0.00     0.069 C 
ATOM     11  H16 DSK d          -0.505 -16.634 -22.471  0.00  0.00     0.051 H 
ATOM     12  H17 DSK d          -1.254 -15.065 -22.023  0.00  0.00     0.051 H 
ATOM     13  CAT DSK d          -0.949 -15.415 -19.311  0.00  0.00     0.074 C 
ATOM     14  H20 DSK d           0.381 -16.949 -20.174  0.00  0.00     0.088 H 
ATOM     15  CAU DSK d          -2.087 -16.467 -19.180  0.00  0.00     0.030 C 
ATOM     16  H24 DSK d          -1.350 -14.420 -19.552  0.00  0.00     0.088 H 
ATOM     17  H25 DSK d          -1.697 -17.339 -18.636  0.00  0.00     0.062 H 
BRANCH  10  18
ATOM     18  OAE DSK d           1.076 -15.024 -20.649  0.00  0.00    -0.392 OA
ATOM     19  H5  DSK d           1.745 -15.440 -21.180  0.00  0.00     0.210 HD
ENDBRANCH  10  18
BRANCH  13  20
ATOM     20  OAI DSK d          -0.165 -15.374 -18.112  0.00  0.00    -0.392 OA
ATOM     21  H9  DSK d          -0.737 -15.462 -17.358  0.00  0.00     0.210 HD
ENDBRANCH  13  20
BRANCH  15  22
ATOM     22  CAK DSK d          -3.341 -15.992 -18.394  0.00  0.00     0.030 C 
ATOM     23  H12 DSK d          -4.016 -16.851 -18.267  0.00  0.00     0.075 H 
ATOM     24  H13 DSK d          -3.015 -15.632 -17.407  0.00  0.00     0.075 H 
BRANCH  22  25
ATOM     25  OAB DSK d          -4.066 -14.941 -19.040  0.00  0.00    -0.400 OA
ATOM     26  H2  DSK d          -3.884 -14.117 -18.603  0.00  0.00     0.209 HD
ENDBRANCH  22  25
ENDBRANCH  15  22
ENDBRANCH   5   8
ENDBRANCH   1   5
BRANCH   1  27
ATOM     27  CAR DSK d          -3.651 -20.787 -21.195  0.00  0.00     0.088 C 
ATOM     28  H22 DSK d          -3.939 -20.635 -20.144  0.00  0.00     0.091 H 
BRANCH  27  29
ATOM     29  OAG DSK d          -4.770 -21.185 -22.007  0.00  0.00    -0.390 OA
ATOM     30  H7  DSK d          -4.623 -22.062 -22.339  0.00  0.00     0.210 HD
ENDBRANCH  27  29
BRANCH  27  31
ATOM     31  CAS DSK d          -2.603 -21.917 -21.323  0.00  0.00     0.090 C 
ATOM     32  H23 DSK d          -1.705 -21.499 -21.801  0.00  0.00     0.091 H 
BRANCH  31  33
ATOM     33  OAH DSK d          -3.110 -22.971 -22.139  0.00  0.00    -0.390 OA
ATOM     34  H8  DSK d          -2.456 -23.656 -22.213  0.00  0.00     0.210 HD
ENDBRANCH  31  33
BRANCH  31  35
ATOM     35  CAQ DSK d          -2.204 -22.492 -19.965  0.00  0.00     0.089 C 
ATOM     36  H21 DSK d          -2.959 -23.220 -19.633  0.00  0.00     0.091 H 
BRANCH  35  37
ATOM     37  OAF DSK d          -2.117 -21.408 -19.034  0.00  0.00    -0.390 OA
ATOM     38  H6  DSK d          -2.980 -21.033 -18.905  0.00  0.00     0.210 HD
ENDBRANCH  35  37
BRANCH  35  39
ATOM     39  CAN DSK d          -0.822 -23.177 -20.043  0.00  0.00     0.083 C 
ATOM     40  H18 DSK d          -0.733 -23.716 -20.997  0.00  0.00     0.090 H 
BRANCH  39  41
ATOM     41  OAC DSK d           0.200 -22.173 -19.965  0.00  0.00    -0.391 OA
ATOM     42  H3  DSK d          -0.105 -21.378 -20.385  0.00  0.00     0.210 HD
ENDBRANCH  39  41
BRANCH  39  43
ATOM     43  CAJ DSK d          -0.672 -24.173 -18.885  0.00  0.00     0.043 C 
ATOM     44  H10 DSK d          -1.588 -24.775 -18.791  0.00  0.00     0.078 H 
ATOM     45  H11 DSK d           0.185 -24.836 -19.073  0.00  0.00     0.078 H 
BRANCH  43  46
ATOM     46  OAA DSK d          -0.457 -23.436 -17.693  0.00  0.00    -0.398 OA
ATOM     47  H1  DSK d           0.029 -23.969 -17.076  0.00  0.00     0.209 HD
ENDBRANCH  43  46
ENDBRANCH  39  43
ENDBRANCH  35  39
ENDBRANCH  31  35
ENDBRANCH  27  31
ENDBRANCH   1  27
TORSDOF 17
ENDMDL
MODEL 10
REMARK VINA RESULT:      -4.5      2.850      4.860
REMARK  17 active torsions:
REMARK  status: ('A' for Active; 'I' for Inactive)
REMARK    1  A    between atoms: CAJ_10  and  OAA_1 
REMARK    2  A    between atoms: CAK_11  and  OAB_2 
REMARK    3  A    between atoms: CAN_14  and  OAC_3 
REMARK    4  A    between atoms: CAO_15  and  OAD_4 
REMARK    5  A    between atoms: CAP_16  and  OAE_5 
REMARK    6  A    between atoms: CAQ_17  and  OAF_6 
REMARK    7  A    between atoms: CAR_18  and  OAG_7 
REMARK    8  A    between atoms: CAS_19  and  OAH_8 
REMARK    9  A    between atoms: CAT_20  and  OAI_9 
REMARK   10  A    between atoms: CAN_14  and  CAJ_10 
REMARK   11  A    between atoms: CAU_21  and  CAK_11 
REMARK   12  A    between atoms: CAL_12  and  CAO_15 
REMARK   13  A    between atoms: SAV_22  and  CAL_12 
REMARK   14  A    between atoms: CAQ_17  and  CAN_14 
REMARK   15  A    between atoms: CAO_15  and  CAR_18 
REMARK   16  A    between atoms: CAS_19  and  CAQ_17 
REMARK   17  A    between atoms: CAR_18  and  CAS_19 
ROOT
ATOM      1  CAO DSK d          -0.631 -22.685 -20.539  0.00  0.00     0.070 C 
ATOM      2  H19 DSK d          -0.853 -21.850 -21.219  0.00  0.00     0.088 H 
ENDROOT
BRANCH   1   3
ATOM      3  OAD DSK d           0.274 -22.221 -19.548  0.00  0.00    -0.392 OA
ATOM      4  H4  DSK d           0.025 -22.574 -18.702  0.00  0.00     0.210 HD
ENDBRANCH   1   3
BRANCH   1   5
ATOM      5  CAL DSK d          -1.981 -23.139 -19.901  0.00  0.00    -0.005 C 
ATOM      6  H14 DSK d          -1.784 -23.541 -18.897  0.00  0.00     0.051 H 
ATOM      7  H15 DSK d          -2.427 -23.924 -20.529  0.00  0.00     0.051 H 
BRANCH   5   8
ATOM      8  SAV DSK d          -3.148 -21.761 -19.764  0.00  0.00    -0.206 SA
ATOM      9  CAM DSK d          -4.658 -22.056 -20.773  0.00  0.00    -0.005 C 
ATOM     10  CAP DSK d          -4.177 -21.595 -22.164  0.00  0.00     0.069 C 
ATOM     11  H16 DSK d          -4.941 -23.119 -20.775  0.00  0.00     0.051 H 
ATOM     12  H17 DSK d          -5.505 -21.452 -20.417  0.00  0.00     0.051 H 
ATOM     13  CAT DSK d          -3.537 -20.208 -21.882  0.00  0.00     0.074 C 
ATOM     14  H20 DSK d          -3.439 -22.301 -22.573  0.00  0.00     0.088 H 
ATOM     15  CAU DSK d          -2.404 -20.488 -20.854  0.00  0.00     0.030 C 
ATOM     16  H24 DSK d          -4.268 -19.488 -21.485  0.00  0.00     0.088 H 
ATOM     17  H25 DSK d          -1.551 -20.936 -21.386  0.00  0.00     0.062 H 
BRANCH  10  18
ATOM     18  OAE DSK d          -5.276 -21.434 -23.112  0.00  0.00    -0.392 OA
ATOM     19  H5  DSK d          -5.319 -20.529 -23.395  0.00  0.00     0.210 HD
ENDBRANCH  10  18
BRANCH  13  20
ATOM     20  OAI DSK d          -2.985 -19.746 -23.122  0.00  0.00    -0.392 OA
ATOM     21  H9  DSK d          -3.399 -20.207 -23.843  0.00  0.00     0.210 HD
ENDBRANCH  13  20
BRANCH  15  22
ATOM     22  CAK DSK d          -1.847 -19.235 -20.123  0.00  0.00     0.030 C 
ATOM     23  H12 DSK d          -2.691 -18.699 -19.662  0.00  0.00     0.075 H 
ATOM     24  H13 DSK d          -1.154 -19.571 -19.338  0.00  0.00     0.075 H 
BRANCH  22  25
ATOM     25  OAB DSK d          -1.150 -18.326 -20.980  0.00  0.00    -0.400 OA
ATOM     26  H2  DSK d          -1.763 -17.939 -21.595  0.00  0.00     0.209 HD
ENDBRANCH  22  25
ENDBRANCH  15  22
ENDBRANCH   5   8
ENDBRANCH   1   5
BRANCH   1  27
ATOM     27  CAR DSK d           0.044 -23.785 -21.354  0.00  0.00     0.088 C 
ATOM     28  H22 DSK d           1.121 -23.837 -21.130  0.00  0.00     0.091 H 
BRANCH  27  29
ATOM     29  OAG DSK d          -0.637 -25.003 -21.005  0.00  0.00    -0.390 OA
ATOM     30  H7  DSK d          -1.005 -25.394 -21.788  0.00  0.00     0.210 HD
ENDBRANCH  27  29
BRANCH  27  31
ATOM     31  CAS DSK d          -0.197 -23.574 -22.867  0.00  0.00     0.090 C 
ATOM     32  H23 DSK d           0.782 -23.532 -23.367  0.00  0.00     0.091 H 
BRANCH  31  33
ATOM     33  OAH DSK d          -0.882 -22.343 -23.090  0.00  0.00    -0.390 OA
ATOM     34  H8  DSK d          -1.569 -22.242 -22.442  0.00  0.00     0.210 HD
ENDBRANCH  31  33
BRANCH  31  35
ATOM     35  CAQ DSK d          -1.007 -24.710 -23.488  0.00  0.00     0.089 C 
ATOM     36  H21 DSK d          -0.950 -25.601 -22.847  0.00  0.00     0.091 H 
BRANCH  35  37
ATOM     37  OAF DSK d          -0.456 -24.991 -24.779  0.00  0.00    -0.390 OA
ATOM     38  H6  DSK d          -1.017 -25.608 -25.234  0.00  0.00     0.210 HD
ENDBRANCH  35  37
BRANCH  35  39
ATOM     39  CAN DSK d          -2.484 -24.296 -23.670  0.00  0.00     0.083 C 
ATOM     40  H18 DSK d          -2.722 -23.474 -22.979  0.00  0.00     0.090 H 
BRANCH  39  41
ATOM     41  OAC DSK d          -2.681 -23.855 -25.021  0.00  0.00    -0.391 OA
ATOM     42  H3  DSK d          -1.910 -24.060 -25.536  0.00  0.00     0.210 HD
ENDBRANCH  39  41
BRANCH  39  43
ATOM     43  CAJ DSK d          -3.397 -25.491 -23.367  0.00  0.00     0.043 C 
ATOM     44  H10 DSK d          -4.449 -25.202 -23.515  0.00  0.00     0.078 H 
ATOM     45  H11 DSK d          -3.149 -26.328 -24.036  0.00  0.00     0.078 H 
BRANCH  43  46
ATOM     46  OAA DSK d          -3.190 -25.876 -22.019  0.00  0.00    -0.398 OA
ATOM     47  H1  DSK d          -2.368 -26.347 -21.948  0.00  0.00     0.209 HD
ENDBRANCH  43  46
ENDBRANCH  39  43
ENDBRANCH  35  39
ENDBRANCH  31  35
ENDBRANCH  27  31
ENDBRANCH   1  27
TORSDOF 17
ENDMDL
