MODEL 1
REMARK VINA RESULT:      -7.6      0.000      0.000
REMARK  16 active torsions:
REMARK  status: ('A' for Active; 'I' for Inactive)
REMARK    1  A    between atoms: CA_4  and  C_1 
REMARK    2  A    between atoms: N_2  and  CA_4 
REMARK    3  A    between atoms: CBI_33  and  N_2 
REMARK    4  A    between atoms: CA_4  and  CB_5 
REMARK    5  A    between atoms: CB_5  and  CAT_23 
REMARK    6  A    between atoms: CAQ_20  and  NAA_6 
REMARK    7  A    between atoms: CAR_21  and  CAQ_20 
REMARK    8  A    between atoms: CAS_22  and  CAR_21 
REMARK    9  A    between atoms: CAU_24  and  CAS_22 
REMARK   10  A    between atoms: CAT_23  and  CBD_29 
REMARK   11  A    between atoms: CBI_33  and  CAU_24 
REMARK   12  A    between atoms: CBE_30  and  CAW_25 
REMARK   13  A    between atoms: CAW_25  and  CBJ_34 
REMARK       I    between atoms: NAX_26  and  CBC_28 
REMARK   14  A    between atoms: CBJ_34  and  NAX_26 
REMARK   15  A    between atoms: CBJ_34  and  CBB_27 
REMARK   16  A    between atoms: CBC_28  and  CBI_33 
ROOT
ATOM      1  CBI LSW d          41.896  10.765 110.191  0.00  0.00     0.179 C 
ATOM      2  H32 LSW d          40.911  10.726 110.678  0.00  0.00     0.099 H 
ENDROOT
BRANCH   1   3
ATOM      3  N   LSW d          42.626   9.544 110.526  0.00  0.00    -0.048 N 
ATOM      4  H1  LSW d          43.288   9.334 109.795  0.00  0.00     0.279 HD
ATOM      5  H2  LSW d          43.117   9.672 111.397  0.00  0.00     0.279 HD
BRANCH   3   6
ATOM      6  CA  LSW d          41.672   8.434 110.658  0.00  0.00     0.185 C 
ATOM      7  H3  LSW d          41.446   8.034 109.658  0.00  0.00     0.101 H 
BRANCH   6   8
ATOM      8  C   LSW d          40.377   8.937 111.304  0.00  0.00     0.204 C 
ATOM      9  O   LSW d          39.338   8.993 110.610  0.00  0.00    -0.646 OA
ATOM     10  OXT LSW d          40.387   9.269 112.509  0.00  0.00    -0.646 OA
ENDBRANCH   6   8
BRANCH   6  11
ATOM     11  CB  LSW d          42.271   7.319 111.521  0.00  0.00    -0.025 C 
ATOM     12  H4  LSW d          42.700   6.546 110.865  0.00  0.00     0.037 H 
ATOM     13  H5  LSW d          41.477   6.875 112.140  0.00  0.00     0.037 H 
BRANCH  11  14
ATOM     14  CAT LSW d          43.369   7.872 112.432  0.00  0.00    -0.039 C 
ATOM     15  H25 LSW d          43.233   8.960 112.527  0.00  0.00     0.040 H 
ATOM     16  H26 LSW d          44.347   7.663 111.972  0.00  0.00     0.040 H 
BRANCH  14  17
ATOM     17  CBD LSW d          43.344   7.251 113.832  0.00  0.00    -0.058 A 
ATOM     18  CAL LSW d          44.477   7.318 114.636  0.00  0.00    -0.077 A 
ATOM     19  CAH LSW d          44.449   6.810 115.930  0.00  0.00    -0.082 A 
ATOM     20  H14 LSW d          45.385   7.768 114.253  0.00  0.00     0.084 H 
ATOM     21  CAG LSW d          43.285   6.230 116.423  0.00  0.00    -0.083 A 
ATOM     22  H10 LSW d          45.333   6.866 116.554  0.00  0.00     0.083 H 
ATOM     23  CAI LSW d          42.153   6.159 115.619  0.00  0.00    -0.082 A 
ATOM     24  H9  LSW d          43.261   5.834 117.432  0.00  0.00     0.083 H 
ATOM     25  CAM LSW d          42.182   6.669 114.326  0.00  0.00    -0.077 A 
ATOM     26  H11 LSW d          41.245   5.705 116.002  0.00  0.00     0.083 H 
ATOM     27  H15 LSW d          41.298   6.612 113.701  0.00  0.00     0.084 H 
ENDBRANCH  14  17
ENDBRANCH  11  14
ENDBRANCH   6  11
ENDBRANCH   3   6
ENDBRANCH   1   3
BRANCH   1  28
ATOM     28  CAU LSW d          42.653  12.002 110.712  0.00  0.00    -0.030 C 
ATOM     29  H27 LSW d          42.579  12.002 111.810  0.00  0.00     0.036 H 
ATOM     30  H28 LSW d          43.707  11.899 110.416  0.00  0.00     0.036 H 
BRANCH  28  31
ATOM     31  CAS LSW d          42.153  13.373 110.207  0.00  0.00    -0.061 C 
ATOM     32  H23 LSW d          42.923  13.829 109.566  0.00  0.00     0.033 H 
ATOM     33  H24 LSW d          41.229  13.235 109.628  0.00  0.00     0.033 H 
BRANCH  31  34
ATOM     34  CAR LSW d          41.873  14.299 111.412  0.00  0.00    -0.043 C 
ATOM     35  H21 LSW d          42.835  14.617 111.840  0.00  0.00     0.035 H 
ATOM     36  H22 LSW d          41.322  15.181 111.054  0.00  0.00     0.035 H 
BRANCH  34  37
ATOM     37  CAQ LSW d          41.046  13.620 112.518  0.00  0.00     0.080 C 
ATOM     38  H19 LSW d          40.837  12.582 112.221  0.00  0.00     0.075 H 
ATOM     39  H20 LSW d          41.628  13.625 113.452  0.00  0.00     0.075 H 
BRANCH  37  40
ATOM     40  NAA LSW d          39.747  14.331 112.752  0.00  0.00    -0.079 N 
ATOM     41  H6  LSW d          39.350  14.025 113.626  0.00  0.00     0.274 HD
ATOM     42  H7  LSW d          39.109  14.120 112.000  0.00  0.00     0.274 HD
ATOM     43  H8  LSW d          39.910  15.325 112.785  0.00  0.00     0.274 HD
ENDBRANCH  37  40
ENDBRANCH  34  37
ENDBRANCH  31  34
ENDBRANCH  28  31
ENDBRANCH   1  28
BRANCH   1  44
ATOM     44  CBC LSW d          41.689  10.874 108.678  0.00  0.00     0.249 C 
ATOM     45  OAD LSW d          42.665  10.922 107.929  0.00  0.00    -0.271 OA
ATOM     46  NAX LSW d          40.434  10.896 108.218  0.00  0.00    -0.344 N 
ATOM     47  H31 LSW d          39.667  10.819 108.853  0.00  0.00     0.163 HD
BRANCH  46  48
ATOM     48  CBJ LSW d          40.183  11.034 106.776  0.00  0.00     0.100 C 
ATOM     49  H33 LSW d          41.132  10.870 106.244  0.00  0.00     0.090 H 
BRANCH  48  50
ATOM     50  CAW LSW d          39.150  10.018 106.263  0.00  0.00    -0.011 C 
ATOM     51  H29 LSW d          38.154  10.475 106.356  0.00  0.00     0.044 H 
ATOM     52  H30 LSW d          39.367   9.824 105.202  0.00  0.00     0.044 H 
BRANCH  50  53
ATOM     53  CBE LSW d          39.121   8.716 106.967  0.00  0.00    -0.028 A 
ATOM     54  CAP LSW d          38.059   8.163 107.639  0.00  0.00    -0.015 A 
ATOM     55  NXZ LSW d          38.443   6.943 108.197  0.00  0.00    -0.365 N 
ATOM     56  H18 LSW d          37.069   8.609 107.724  0.00  0.00     0.112 H 
ATOM     57  CBF LSW d          39.757   6.709 107.880  0.00  0.00     0.042 A 
ATOM     58  H34 LSW d          37.840   6.321 108.754  0.00  0.00     0.165 HD
ATOM     59  CAN LSW d          40.580   5.630 108.211  0.00  0.00    -0.056 A 
ATOM     60  CBG LSW d          40.215   7.801 107.103  0.00  0.00    -0.002 A 
ATOM     61  CAJ LSW d          41.876   5.655 107.755  0.00  0.00    -0.081 A 
ATOM     62  H16 LSW d          40.210   4.803 108.806  0.00  0.00     0.086 H 
ATOM     63  CAK LSW d          42.363   6.726 106.977  0.00  0.00    -0.082 A 
ATOM     64  H12 LSW d          42.538   4.833 107.999  0.00  0.00     0.083 H 
ATOM     65  CAO LSW d          41.540   7.801 106.645  0.00  0.00    -0.070 A 
ATOM     66  H13 LSW d          43.391   6.712 106.632  0.00  0.00     0.083 H 
ATOM     67  H17 LSW d          41.918   8.621 106.045  0.00  0.00     0.084 H 
ENDBRANCH  50  53
ENDBRANCH  48  50
BRANCH  48  68
ATOM     68  CBB LSW d          39.668  12.444 106.461  0.00  0.00     0.197 C 
ATOM     69  OAC LSW d          40.071  13.408 107.159  0.00  0.00    -0.646 OA
ATOM     70  OAF LSW d          38.881  12.574 105.498  0.00  0.00    -0.646 OA
ENDBRANCH  48  68
ENDBRANCH  46  48
ENDBRANCH   1  44
TORSDOF 16
ENDMDL
MODEL 2
REMARK VINA RESULT:      -7.5      2.444      7.046
REMARK  16 active torsions:
REMARK  status: ('A' for Active; 'I' for Inactive)
REMARK    1  A    between atoms: CA_4  and  C_1 
REMARK    2  A    between atoms: N_2  and  CA_4 
REMARK    3  A    between atoms: CBI_33  and  N_2 
REMARK    4  A    between atoms: CA_4  and  CB_5 
REMARK    5  A    between atoms: CB_5  and  CAT_23 
REMARK    6  A    between atoms: CAQ_20  and  NAA_6 
REMARK    7  A    between atoms: CAR_21  and  CAQ_20 
REMARK    8  A    between atoms: CAS_22  and  CAR_21 
REMARK    9  A    between atoms: CAU_24  and  CAS_22 
REMARK   10  A    between atoms: CAT_23  and  CBD_29 
REMARK   11  A    between atoms: CBI_33  and  CAU_24 
REMARK   12  A    between atoms: CBE_30  and  CAW_25 
REMARK   13  A    between atoms: CAW_25  and  CBJ_34 
REMARK       I    between atoms: NAX_26  and  CBC_28 
REMARK   14  A    between atoms: CBJ_34  and  NAX_26 
REMARK   15  A    between atoms: CBJ_34  and  CBB_27 
REMARK   16  A    between atoms: CBC_28  and  CBI_33 
ROOT
ATOM      1  CBI LSW d          41.609   9.542 111.799  0.00  0.00     0.179 C 
ATOM      2  H32 LSW d          40.594   9.266 112.122  0.00  0.00     0.099 H 
ENDROOT
BRANCH   1   3
ATOM      3  N   LSW d          41.614   9.666 110.343  0.00  0.00    -0.048 N 
ATOM      4  H1  LSW d          40.673   9.819 110.014  0.00  0.00     0.279 HD
ATOM      5  H2  LSW d          42.195  10.444 110.072  0.00  0.00     0.279 HD
BRANCH   3   6
ATOM      6  CA  LSW d          42.145   8.427 109.757  0.00  0.00     0.185 C 
ATOM      7  H3  LSW d          42.670   7.857 110.538  0.00  0.00     0.101 H 
BRANCH   6   8
ATOM      8  C   LSW d          43.128   8.765 108.632  0.00  0.00     0.204 C 
ATOM      9  O   LSW d          43.893   9.744 108.771  0.00  0.00    -0.646 OA
ATOM     10  OXT LSW d          43.149   8.049 107.606  0.00  0.00    -0.646 OA
ENDBRANCH   6   8
BRANCH   6  11
ATOM     11  CB  LSW d          41.004   7.573 109.196  0.00  0.00    -0.025 C 
ATOM     12  H4  LSW d          40.942   6.633 109.764  0.00  0.00     0.037 H 
ATOM     13  H5  LSW d          41.206   7.349 108.138  0.00  0.00     0.037 H 
BRANCH  11  14
ATOM     14  CAT LSW d          39.669   8.316 109.306  0.00  0.00    -0.039 C 
ATOM     15  H25 LSW d          39.841   9.273 109.820  0.00  0.00     0.040 H 
ATOM     16  H26 LSW d          38.972   7.702 109.895  0.00  0.00     0.040 H 
BRANCH  14  17
ATOM     17  CBD LSW d          39.037   8.600 107.939  0.00  0.00    -0.058 A 
ATOM     18  CAL LSW d          38.630   7.541 107.135  0.00  0.00    -0.077 A 
ATOM     19  CAH LSW d          38.002   7.786 105.919  0.00  0.00    -0.082 A 
ATOM     20  H14 LSW d          38.803   6.521 107.458  0.00  0.00     0.084 H 
ATOM     21  CAG LSW d          37.781   9.094 105.503  0.00  0.00    -0.083 A 
ATOM     22  H10 LSW d          37.684   6.958 105.296  0.00  0.00     0.083 H 
ATOM     23  CAI LSW d          38.191  10.154 106.304  0.00  0.00    -0.082 A 
ATOM     24  H9  LSW d          37.291   9.287 104.555  0.00  0.00     0.083 H 
ATOM     25  CAM LSW d          38.818   9.908 107.521  0.00  0.00    -0.077 A 
ATOM     26  H11 LSW d          38.021  11.175 105.980  0.00  0.00     0.083 H 
ATOM     27  H15 LSW d          39.137  10.736 108.144  0.00  0.00     0.084 H 
ENDBRANCH  14  17
ENDBRANCH  11  14
ENDBRANCH   6  11
ENDBRANCH   3   6
ENDBRANCH   1   3
BRANCH   1  28
ATOM     28  CAU LSW d          42.584   8.436 112.246  0.00  0.00    -0.030 C 
ATOM     29  H27 LSW d          42.817   7.819 111.366  0.00  0.00     0.036 H 
ATOM     30  H28 LSW d          43.501   8.923 112.606  0.00  0.00     0.036 H 
BRANCH  28  31
ATOM     31  CAS LSW d          42.083   7.492 113.362  0.00  0.00    -0.061 C 
ATOM     32  H23 LSW d          41.236   7.960 113.884  0.00  0.00     0.033 H 
ATOM     33  H24 LSW d          41.759   6.539 112.918  0.00  0.00     0.033 H 
BRANCH  31  34
ATOM     34  CAR LSW d          43.225   7.228 114.369  0.00  0.00    -0.043 C 
ATOM     35  H21 LSW d          44.130   6.954 113.807  0.00  0.00     0.035 H 
ATOM     36  H22 LSW d          43.412   8.151 114.936  0.00  0.00     0.035 H 
BRANCH  34  37
ATOM     37  CAQ LSW d          42.907   6.098 115.363  0.00  0.00     0.080 C 
ATOM     38  H19 LSW d          42.652   5.188 114.800  0.00  0.00     0.075 H 
ATOM     39  H20 LSW d          43.795   5.909 115.984  0.00  0.00     0.075 H 
BRANCH  37  40
ATOM     40  NAA LSW d          41.757   6.455 116.256  0.00  0.00    -0.079 N 
ATOM     41  H6  LSW d          42.108   6.840 117.119  0.00  0.00     0.274 HD
ATOM     42  H7  LSW d          41.215   5.629 116.453  0.00  0.00     0.274 HD
ATOM     43  H8  LSW d          41.175   7.137 115.796  0.00  0.00     0.274 HD
ENDBRANCH  37  40
ENDBRANCH  34  37
ENDBRANCH  31  34
ENDBRANCH  28  31
ENDBRANCH   1  28
BRANCH   1  44
ATOM     44  CBC LSW d          41.985  10.872 112.457  0.00  0.00     0.249 C 
ATOM     45  OAD LSW d          42.142  10.928 113.677  0.00  0.00    -0.271 OA
ATOM     46  NAX LSW d          42.149  11.938 111.667  0.00  0.00    -0.344 N 
ATOM     47  H31 LSW d          42.049  11.846 110.677  0.00  0.00     0.163 HD
BRANCH  46  48
ATOM     48  CBJ LSW d          42.478  13.244 112.254  0.00  0.00     0.100 C 
ATOM     49  H33 LSW d          43.220  13.086 113.051  0.00  0.00     0.090 H 
BRANCH  48  50
ATOM     50  CAW LSW d          43.065  14.219 111.222  0.00  0.00    -0.011 C 
ATOM     51  H29 LSW d          42.356  15.051 111.103  0.00  0.00     0.044 H 
ATOM     52  H30 LSW d          44.016  14.601 111.621  0.00  0.00     0.044 H 
BRANCH  50  53
ATOM     53  CBE LSW d          43.331  13.654 109.879  0.00  0.00    -0.028 A 
ATOM     54  CAP LSW d          44.547  13.276 109.368  0.00  0.00    -0.015 A 
ATOM     55  NXZ LSW d          44.384  12.827 108.056  0.00  0.00    -0.365 N 
ATOM     56  H18 LSW d          45.494  13.319 109.903  0.00  0.00     0.112 H 
ATOM     57  CBF LSW d          43.056  12.916 107.724  0.00  0.00     0.042 A 
ATOM     58  H34 LSW d          45.135  12.486 107.440  0.00  0.00     0.165 HD
ATOM     59  CAN LSW d          42.408  12.589 106.530  0.00  0.00    -0.056 A 
ATOM     60  CBG LSW d          42.363  13.428 108.848  0.00  0.00    -0.002 A 
ATOM     61  CAJ LSW d          41.049  12.782 106.472  0.00  0.00    -0.081 A 
ATOM     62  H16 LSW d          42.957  12.197 105.682  0.00  0.00     0.086 H 
ATOM     63  CAK LSW d          40.327  13.287 107.574  0.00  0.00    -0.082 A 
ATOM     64  H12 LSW d          40.519  12.540 105.558  0.00  0.00     0.083 H 
ATOM     65  CAO LSW d          40.975  13.611 108.765  0.00  0.00    -0.070 A 
ATOM     66  H13 LSW d          39.254  13.425 107.494  0.00  0.00     0.083 H 
ATOM     67  H17 LSW d          40.417  13.997 109.610  0.00  0.00     0.084 H 
ENDBRANCH  50  53
ENDBRANCH  48  50
BRANCH  48  68
ATOM     68  CBB LSW d          41.221  13.883 112.858  0.00  0.00     0.197 C 
ATOM     69  OAC LSW d          41.273  14.336 114.030  0.00  0.00    -0.646 OA
ATOM     70  OAF LSW d          40.199  13.949 112.141  0.00  0.00    -0.646 OA
ENDBRANCH  48  68
ENDBRANCH  46  48
ENDBRANCH   1  44
TORSDOF 16
ENDMDL
MODEL 3
REMARK VINA RESULT:      -7.0      2.646      4.585
REMARK  16 active torsions:
REMARK  status: ('A' for Active; 'I' for Inactive)
REMARK    1  A    between atoms: CA_4  and  C_1 
REMARK    2  A    between atoms: N_2  and  CA_4 
REMARK    3  A    between atoms: CBI_33  and  N_2 
REMARK    4  A    between atoms: CA_4  and  CB_5 
REMARK    5  A    between atoms: CB_5  and  CAT_23 
REMARK    6  A    between atoms: CAQ_20  and  NAA_6 
REMARK    7  A    between atoms: CAR_21  and  CAQ_20 
REMARK    8  A    between atoms: CAS_22  and  CAR_21 
REMARK    9  A    between atoms: CAU_24  and  CAS_22 
REMARK   10  A    between atoms: CAT_23  and  CBD_29 
REMARK   11  A    between atoms: CBI_33  and  CAU_24 
REMARK   12  A    between atoms: CBE_30  and  CAW_25 
REMARK   13  A    between atoms: CAW_25  and  CBJ_34 
REMARK       I    between atoms: NAX_26  and  CBC_28 
REMARK   14  A    between atoms: CBJ_34  and  NAX_26 
REMARK   15  A    between atoms: CBJ_34  and  CBB_27 
REMARK   16  A    between atoms: CBC_28  and  CBI_33 
ROOT
ATOM      1  CBI LSW d          42.270   7.927 112.806  0.00  0.00     0.179 C 
ATOM      2  H32 LSW d          41.470   7.268 113.177  0.00  0.00     0.099 H 
ENDROOT
BRANCH   1   3
ATOM      3  N   LSW d          43.533   7.507 113.409  0.00  0.00    -0.048 N 
ATOM      4  H1  LSW d          43.775   6.586 113.079  0.00  0.00     0.279 HD
ATOM      5  H2  LSW d          44.261   8.157 113.155  0.00  0.00     0.279 HD
BRANCH   3   6
ATOM      6  CA  LSW d          43.384   7.483 114.871  0.00  0.00     0.185 C 
ATOM      7  H3  LSW d          43.009   8.461 115.210  0.00  0.00     0.101 H 
BRANCH   6   8
ATOM      8  C   LSW d          44.741   7.208 115.528  0.00  0.00     0.204 C 
ATOM      9  O   LSW d          45.695   6.836 114.810  0.00  0.00    -0.646 OA
ATOM     10  OXT LSW d          44.864   7.370 116.761  0.00  0.00    -0.646 OA
ENDBRANCH   6   8
BRANCH   6  11
ATOM     11  CB  LSW d          42.389   6.395 115.285  0.00  0.00    -0.025 C 
ATOM     12  H4  LSW d          41.498   6.457 114.642  0.00  0.00     0.037 H 
ATOM     13  H5  LSW d          42.096   6.553 116.334  0.00  0.00     0.037 H 
BRANCH  11  14
ATOM     14  CAT LSW d          43.017   5.006 115.142  0.00  0.00    -0.039 C 
ATOM     15  H25 LSW d          44.029   5.119 114.726  0.00  0.00     0.040 H 
ATOM     16  H26 LSW d          42.400   4.410 114.454  0.00  0.00     0.040 H 
BRANCH  14  17
ATOM     17  CBD LSW d          43.117   4.263 116.478  0.00  0.00    -0.058 A 
ATOM     18  CAL LSW d          44.150   3.355 116.686  0.00  0.00    -0.077 A 
ATOM     19  CAH LSW d          44.287   2.718 117.914  0.00  0.00    -0.082 A 
ATOM     20  H14 LSW d          44.852   3.144 115.888  0.00  0.00     0.084 H 
ATOM     21  CAG LSW d          43.386   2.986 118.939  0.00  0.00    -0.083 A 
ATOM     22  H10 LSW d          45.094   2.013 118.073  0.00  0.00     0.083 H 
ATOM     23  CAI LSW d          42.350   3.891 118.732  0.00  0.00    -0.082 A 
ATOM     24  H9  LSW d          43.491   2.491 119.898  0.00  0.00     0.083 H 
ATOM     25  CAM LSW d          42.216   4.528 117.504  0.00  0.00    -0.077 A 
ATOM     26  H11 LSW d          41.646   4.100 119.530  0.00  0.00     0.083 H 
ATOM     27  H15 LSW d          41.408   5.233 117.344  0.00  0.00     0.084 H 
ENDBRANCH  14  17
ENDBRANCH  11  14
ENDBRANCH   6  11
ENDBRANCH   3   6
ENDBRANCH   1   3
BRANCH   1  28
ATOM     28  CAU LSW d          41.939   9.377 113.212  0.00  0.00    -0.030 C 
ATOM     29  H27 LSW d          41.827   9.401 114.306  0.00  0.00     0.036 H 
ATOM     30  H28 LSW d          42.788  10.010 112.915  0.00  0.00     0.036 H 
BRANCH  28  31
ATOM     31  CAS LSW d          40.660   9.985 112.594  0.00  0.00    -0.061 C 
ATOM     32  H23 LSW d          40.157   9.228 111.975  0.00  0.00     0.033 H 
ATOM     33  H24 LSW d          39.983  10.309 113.399  0.00  0.00     0.033 H 
BRANCH  31  34
ATOM     34  CAR LSW d          41.035  11.200 111.717  0.00  0.00    -0.043 C 
ATOM     35  H21 LSW d          41.202  10.851 110.687  0.00  0.00     0.035 H 
ATOM     36  H22 LSW d          40.197  11.913 111.730  0.00  0.00     0.035 H 
BRANCH  34  37
ATOM     37  CAQ LSW d          42.304  11.926 112.198  0.00  0.00     0.080 C 
ATOM     38  H19 LSW d          42.883  11.246 112.840  0.00  0.00     0.075 H 
ATOM     39  H20 LSW d          42.907  12.208 111.322  0.00  0.00     0.075 H 
BRANCH  37  40
ATOM     40  NAA LSW d          41.970  13.163 112.976  0.00  0.00    -0.079 N 
ATOM     41  H6  LSW d          42.677  13.319 113.678  0.00  0.00     0.274 HD
ATOM     42  H7  LSW d          41.074  13.048 113.422  0.00  0.00     0.274 HD
ATOM     43  H8  LSW d          41.937  13.954 112.352  0.00  0.00     0.274 HD
ENDBRANCH  37  40
ENDBRANCH  34  37
ENDBRANCH  31  34
ENDBRANCH  28  31
ENDBRANCH   1  28
BRANCH   1  44
ATOM     44  CBC LSW d          42.331   7.809 111.281  0.00  0.00     0.249 C 
ATOM     45  OAD LSW d          41.750   6.881 110.716  0.00  0.00    -0.271 OA
ATOM     46  NAX LSW d          43.010   8.742 110.607  0.00  0.00    -0.344 N 
ATOM     47  H31 LSW d          43.439   9.501 111.097  0.00  0.00     0.163 HD
BRANCH  46  48
ATOM     48  CBJ LSW d          43.126   8.653 109.145  0.00  0.00     0.100 C 
ATOM     49  H33 LSW d          42.401   7.907 108.787  0.00  0.00     0.090 H 
BRANCH  48  50
ATOM     50  CAW LSW d          42.835   9.993 108.452  0.00  0.00    -0.011 C 
ATOM     51  H29 LSW d          43.065  10.799 109.166  0.00  0.00     0.044 H 
ATOM     52  H30 LSW d          43.501  10.074 107.580  0.00  0.00     0.044 H 
BRANCH  50  53
ATOM     53  CBE LSW d          41.445  10.188 107.981  0.00  0.00    -0.028 A 
ATOM     54  CAP LSW d          40.798  11.382 107.783  0.00  0.00    -0.015 A 
ATOM     55  NXZ LSW d          39.487  11.142 107.371  0.00  0.00    -0.365 N 
ATOM     56  H18 LSW d          41.241  12.367 107.926  0.00  0.00     0.112 H 
ATOM     57  CBF LSW d          39.290   9.786 107.301  0.00  0.00     0.042 A 
ATOM     58  H34 LSW d          38.783  11.863 107.154  0.00  0.00     0.165 HD
ATOM     59  CAN LSW d          38.149   9.064 106.942  0.00  0.00    -0.056 A 
ATOM     60  CBG LSW d          40.501   9.155 107.674  0.00  0.00    -0.002 A 
ATOM     61  CAJ LSW d          38.233   7.693 106.961  0.00  0.00    -0.081 A 
ATOM     62  H16 LSW d          37.232   9.567 106.659  0.00  0.00     0.086 H 
ATOM     63  CAK LSW d          39.424   7.031 107.324  0.00  0.00    -0.082 A 
ATOM     64  H12 LSW d          37.363   7.106 106.690  0.00  0.00     0.083 H 
ATOM     65  CAO LSW d          40.563   7.753 107.681  0.00  0.00    -0.070 A 
ATOM     66  H13 LSW d          39.456   5.947 107.327  0.00  0.00     0.083 H 
ATOM     67  H17 LSW d          41.477   7.241 107.958  0.00  0.00     0.084 H 
ENDBRANCH  50  53
ENDBRANCH  48  50
BRANCH  48  68
ATOM     68  CBB LSW d          44.540   8.207 108.752  0.00  0.00     0.197 C 
ATOM     69  OAC LSW d          45.474   9.048 108.785  0.00  0.00    -0.646 OA
ATOM     70  OAF LSW d          44.707   7.008 108.438  0.00  0.00    -0.646 OA
ENDBRANCH  48  68
ENDBRANCH  46  48
ENDBRANCH   1  44
TORSDOF 16
ENDMDL
MODEL 4
REMARK VINA RESULT:      -6.6      2.000      5.523
REMARK  16 active torsions:
REMARK  status: ('A' for Active; 'I' for Inactive)
REMARK    1  A    between atoms: CA_4  and  C_1 
REMARK    2  A    between atoms: N_2  and  CA_4 
REMARK    3  A    between atoms: CBI_33  and  N_2 
REMARK    4  A    between atoms: CA_4  and  CB_5 
REMARK    5  A    between atoms: CB_5  and  CAT_23 
REMARK    6  A    between atoms: CAQ_20  and  NAA_6 
REMARK    7  A    between atoms: CAR_21  and  CAQ_20 
REMARK    8  A    between atoms: CAS_22  and  CAR_21 
REMARK    9  A    between atoms: CAU_24  and  CAS_22 
REMARK   10  A    between atoms: CAT_23  and  CBD_29 
REMARK   11  A    between atoms: CBI_33  and  CAU_24 
REMARK   12  A    between atoms: CBE_30  and  CAW_25 
REMARK   13  A    between atoms: CAW_25  and  CBJ_34 
REMARK       I    between atoms: NAX_26  and  CBC_28 
REMARK   14  A    between atoms: CBJ_34  and  NAX_26 
REMARK   15  A    between atoms: CBJ_34  and  CBB_27 
REMARK   16  A    between atoms: CBC_28  and  CBI_33 
ROOT
ATOM      1  CBI LSW d          42.465   8.922 108.071  0.00  0.00     0.179 C 
ATOM      2  H32 LSW d          43.551   8.852 107.906  0.00  0.00     0.099 H 
ENDROOT
BRANCH   1   3
ATOM      3  N   LSW d          42.187   8.597 109.469  0.00  0.00    -0.048 N 
ATOM      4  H1  LSW d          41.513   9.248 109.839  0.00  0.00     0.279 HD
ATOM      5  H2  LSW d          41.819   7.660 109.531  0.00  0.00     0.279 HD
BRANCH   3   6
ATOM      6  CA  LSW d          43.435   8.687 110.241  0.00  0.00     0.185 C 
ATOM      7  H3  LSW d          43.523   9.700 110.661  0.00  0.00     0.101 H 
BRANCH   6   8
ATOM      8  C   LSW d          44.633   8.415 109.326  0.00  0.00     0.204 C 
ATOM      9  O   LSW d          44.931   7.231 109.057  0.00  0.00    -0.646 OA
ATOM     10  OXT LSW d          45.277   9.381 108.863  0.00  0.00    -0.646 OA
ENDBRANCH   6   8
BRANCH   6  11
ATOM     11  CB  LSW d          43.426   7.669 111.385  0.00  0.00    -0.025 C 
ATOM     12  H4  LSW d          44.463   7.409 111.645  0.00  0.00     0.037 H 
ATOM     13  H5  LSW d          42.892   6.764 111.059  0.00  0.00     0.037 H 
BRANCH  11  14
ATOM     14  CAT LSW d          42.728   8.248 112.618  0.00  0.00    -0.039 C 
ATOM     15  H25 LSW d          41.643   8.257 112.437  0.00  0.00     0.040 H 
ATOM     16  H26 LSW d          43.083   9.278 112.772  0.00  0.00     0.040 H 
BRANCH  14  17
ATOM     17  CBD LSW d          43.006   7.439 113.889  0.00  0.00    -0.058 A 
ATOM     18  CAL LSW d          44.275   7.467 114.459  0.00  0.00    -0.077 A 
ATOM     19  CAH LSW d          44.525   6.785 115.644  0.00  0.00    -0.082 A 
ATOM     20  H14 LSW d          45.071   8.023 113.978  0.00  0.00     0.084 H 
ATOM     21  CAG LSW d          43.505   6.069 116.262  0.00  0.00    -0.083 A 
ATOM     22  H10 LSW d          45.514   6.811 116.087  0.00  0.00     0.083 H 
ATOM     23  CAI LSW d          42.237   6.037 115.691  0.00  0.00    -0.082 A 
ATOM     24  H9  LSW d          43.698   5.537 117.186  0.00  0.00     0.083 H 
ATOM     25  CAM LSW d          41.988   6.721 114.506  0.00  0.00    -0.077 A 
ATOM     26  H11 LSW d          41.442   5.478 116.171  0.00  0.00     0.083 H 
ATOM     27  H15 LSW d          40.999   6.695 114.063  0.00  0.00     0.084 H 
ENDBRANCH  14  17
ENDBRANCH  11  14
ENDBRANCH   6  11
ENDBRANCH   3   6
ENDBRANCH   1   3
BRANCH   1  28
ATOM     28  CAU LSW d          41.761   7.918 107.137  0.00  0.00    -0.030 C 
ATOM     29  H27 LSW d          42.538   7.302 106.661  0.00  0.00     0.036 H 
ATOM     30  H28 LSW d          41.116   7.279 107.758  0.00  0.00     0.036 H 
BRANCH  28  31
ATOM     31  CAS LSW d          40.887   8.523 106.016  0.00  0.00    -0.061 C 
ATOM     32  H23 LSW d          40.932   9.621 106.070  0.00  0.00     0.033 H 
ATOM     33  H24 LSW d          41.263   8.188 105.038  0.00  0.00     0.033 H 
BRANCH  31  34
ATOM     34  CAR LSW d          39.424   8.059 106.192  0.00  0.00    -0.043 C 
ATOM     35  H21 LSW d          38.791   8.623 105.491  0.00  0.00     0.035 H 
ATOM     36  H22 LSW d          39.367   6.987 105.954  0.00  0.00     0.035 H 
BRANCH  34  37
ATOM     37  CAQ LSW d          38.887   8.274 107.617  0.00  0.00     0.080 C 
ATOM     38  H19 LSW d          39.670   8.750 108.226  0.00  0.00     0.075 H 
ATOM     39  H20 LSW d          38.007   8.933 107.571  0.00  0.00     0.075 H 
BRANCH  37  40
ATOM     40  NAA LSW d          38.491   6.979 108.260  0.00  0.00    -0.079 N 
ATOM     41  H6  LSW d          39.135   6.763 109.005  0.00  0.00     0.274 HD
ATOM     42  H7  LSW d          38.514   6.242 107.573  0.00  0.00     0.274 HD
ATOM     43  H8  LSW d          37.559   7.061 108.634  0.00  0.00     0.274 HD
ENDBRANCH  37  40
ENDBRANCH  34  37
ENDBRANCH  31  34
ENDBRANCH  28  31
ENDBRANCH   1  28
BRANCH   1  44
ATOM     44  CBC LSW d          42.014  10.348 107.746  0.00  0.00     0.249 C 
ATOM     45  OAD LSW d          42.528  10.952 106.804  0.00  0.00    -0.271 OA
ATOM     46  NAX LSW d          41.051  10.888 108.500  0.00  0.00    -0.344 N 
ATOM     47  H31 LSW d          40.632  10.354 109.234  0.00  0.00     0.163 HD
BRANCH  46  48
ATOM     48  CBJ LSW d          40.607  12.265 108.248  0.00  0.00     0.100 C 
ATOM     49  H33 LSW d          39.896  12.548 109.039  0.00  0.00     0.090 H 
BRANCH  48  50
ATOM     50  CAW LSW d          41.774  13.266 108.255  0.00  0.00    -0.011 C 
ATOM     51  H29 LSW d          42.506  12.935 107.503  0.00  0.00     0.044 H 
ATOM     52  H30 LSW d          41.375  14.251 107.970  0.00  0.00     0.044 H 
BRANCH  50  53
ATOM     53  CBE LSW d          42.484  13.420 109.545  0.00  0.00    -0.028 A 
ATOM     54  CAP LSW d          43.826  13.241 109.776  0.00  0.00    -0.015 A 
ATOM     55  NXZ LSW d          44.098  13.444 111.130  0.00  0.00    -0.365 N 
ATOM     56  H18 LSW d          44.564  12.981 109.019  0.00  0.00     0.112 H 
ATOM     57  CBF LSW d          42.927  13.756 111.771  0.00  0.00     0.042 A 
ATOM     58  H34 LSW d          45.025  13.371 111.574  0.00  0.00     0.165 HD
ATOM     59  CAN LSW d          42.691  14.039 113.119  0.00  0.00    -0.056 A 
ATOM     60  CBG LSW d          41.892  13.754 110.805  0.00  0.00    -0.002 A 
ATOM     61  CAJ LSW d          41.400  14.323 113.493  0.00  0.00    -0.081 A 
ATOM     62  H16 LSW d          43.498  14.036 113.843  0.00  0.00     0.086 H 
ATOM     63  CAK LSW d          40.346  14.333 112.556  0.00  0.00    -0.082 A 
ATOM     64  H12 LSW d          41.186  14.543 114.532  0.00  0.00     0.083 H 
ATOM     65  CAO LSW d          40.582  14.052 111.211  0.00  0.00    -0.070 A 
ATOM     66  H13 LSW d          39.338  14.562 112.885  0.00  0.00     0.083 H 
ATOM     67  H17 LSW d          39.770  14.062 110.493  0.00  0.00     0.084 H 
ENDBRANCH  50  53
ENDBRANCH  48  50
BRANCH  48  68
ATOM     68  CBB LSW d          39.906  12.356 106.887  0.00  0.00     0.197 C 
ATOM     69  OAC LSW d          40.444  13.024 105.969  0.00  0.00    -0.646 OA
ATOM     70  OAF LSW d          38.831  11.733 106.743  0.00  0.00    -0.646 OA
ENDBRANCH  48  68
ENDBRANCH  46  48
ENDBRANCH   1  44
TORSDOF 16
ENDMDL
MODEL 5
REMARK VINA RESULT:      -6.5      2.825      9.113
REMARK  16 active torsions:
REMARK  status: ('A' for Active; 'I' for Inactive)
REMARK    1  A    between atoms: CA_4  and  C_1 
REMARK    2  A    between atoms: N_2  and  CA_4 
REMARK    3  A    between atoms: CBI_33  and  N_2 
REMARK    4  A    between atoms: CA_4  and  CB_5 
REMARK    5  A    between atoms: CB_5  and  CAT_23 
REMARK    6  A    between atoms: CAQ_20  and  NAA_6 
REMARK    7  A    between atoms: CAR_21  and  CAQ_20 
REMARK    8  A    between atoms: CAS_22  and  CAR_21 
REMARK    9  A    between atoms: CAU_24  and  CAS_22 
REMARK   10  A    between atoms: CAT_23  and  CBD_29 
REMARK   11  A    between atoms: CBI_33  and  CAU_24 
REMARK   12  A    between atoms: CBE_30  and  CAW_25 
REMARK   13  A    between atoms: CAW_25  and  CBJ_34 
REMARK       I    between atoms: NAX_26  and  CBC_28 
REMARK   14  A    between atoms: CBJ_34  and  NAX_26 
REMARK   15  A    between atoms: CBJ_34  and  CBB_27 
REMARK   16  A    between atoms: CBC_28  and  CBI_33 
ROOT
ATOM      1  CBI LSW d          42.023   9.445 112.031  0.00  0.00     0.179 C 
ATOM      2  H32 LSW d          41.337   9.756 112.833  0.00  0.00     0.099 H 
ENDROOT
BRANCH   1   3
ATOM      3  N   LSW d          42.966  10.533 111.778  0.00  0.00    -0.048 N 
ATOM      4  H1  LSW d          42.748  11.314 112.377  0.00  0.00     0.279 HD
ATOM      5  H2  LSW d          43.904  10.217 111.966  0.00  0.00     0.279 HD
BRANCH   3   6
ATOM      6  CA  LSW d          42.858  10.946 110.372  0.00  0.00     0.185 C 
ATOM      7  H3  LSW d          41.994  10.440 109.915  0.00  0.00     0.101 H 
BRANCH   6   8
ATOM      8  C   LSW d          44.131  10.551 109.616  0.00  0.00     0.204 C 
ATOM      9  O   LSW d          45.140  11.283 109.709  0.00  0.00    -0.646 OA
ATOM     10  OXT LSW d          44.133   9.504 108.933  0.00  0.00    -0.646 OA
ENDBRANCH   6   8
BRANCH   6  11
ATOM     11  CB  LSW d          42.659  12.461 110.277  0.00  0.00    -0.025 C 
ATOM     12  H4  LSW d          43.475  12.896 109.680  0.00  0.00     0.037 H 
ATOM     13  H5  LSW d          42.675  12.892 111.289  0.00  0.00     0.037 H 
BRANCH  11  14
ATOM     14  CAT LSW d          41.320  12.789 109.612  0.00  0.00    -0.039 C 
ATOM     15  H25 LSW d          41.200  13.883 109.582  0.00  0.00     0.040 H 
ATOM     16  H26 LSW d          40.511  12.348 110.213  0.00  0.00     0.040 H 
BRANCH  14  17
ATOM     17  CBD LSW d          41.221  12.246 108.183  0.00  0.00    -0.058 A 
ATOM     18  CAL LSW d          40.171  11.402 107.838  0.00  0.00    -0.077 A 
ATOM     19  CAH LSW d          40.036  10.950 106.530  0.00  0.00    -0.082 A 
ATOM     20  H14 LSW d          39.454  11.097 108.591  0.00  0.00     0.084 H 
ATOM     21  CAG LSW d          40.957  11.339 105.563  0.00  0.00    -0.083 A 
ATOM     22  H10 LSW d          39.216  10.294 106.265  0.00  0.00     0.083 H 
ATOM     23  CAI LSW d          42.009  12.180 105.907  0.00  0.00    -0.082 A 
ATOM     24  H9  LSW d          40.853  10.988 104.542  0.00  0.00     0.083 H 
ATOM     25  CAM LSW d          42.141  12.633 107.215  0.00  0.00    -0.077 A 
ATOM     26  H11 LSW d          42.728  12.483 105.154  0.00  0.00     0.083 H 
ATOM     27  H15 LSW d          42.963  13.289 107.481  0.00  0.00     0.084 H 
ENDBRANCH  14  17
ENDBRANCH  11  14
ENDBRANCH   6  11
ENDBRANCH   3   6
ENDBRANCH   1   3
BRANCH   1  28
ATOM     28  CAU LSW d          41.195   9.148 110.765  0.00  0.00    -0.030 C 
ATOM     29  H27 LSW d          41.405   9.943 110.034  0.00  0.00     0.036 H 
ATOM     30  H28 LSW d          41.532   8.182 110.364  0.00  0.00     0.036 H 
BRANCH  28  31
ATOM     31  CAS LSW d          39.663   9.073 110.951  0.00  0.00    -0.061 C 
ATOM     32  H23 LSW d          39.422   8.289 111.684  0.00  0.00     0.033 H 
ATOM     33  H24 LSW d          39.291  10.042 111.315  0.00  0.00     0.033 H 
BRANCH  31  34
ATOM     34  CAR LSW d          38.993   8.738 109.600  0.00  0.00    -0.043 C 
ATOM     35  H21 LSW d          37.977   8.365 109.797  0.00  0.00     0.035 H 
ATOM     36  H22 LSW d          38.935   9.659 109.001  0.00  0.00     0.035 H 
BRANCH  34  37
ATOM     37  CAQ LSW d          39.756   7.675 108.791  0.00  0.00     0.080 C 
ATOM     38  H19 LSW d          40.389   8.180 108.046  0.00  0.00     0.075 H 
ATOM     39  H20 LSW d          40.389   7.092 109.477  0.00  0.00     0.075 H 
BRANCH  37  40
ATOM     40  NAA LSW d          38.820   6.743 108.083  0.00  0.00    -0.079 N 
ATOM     41  H6  LSW d          38.367   7.232 107.327  0.00  0.00     0.274 HD
ATOM     42  H7  LSW d          38.125   6.408 108.731  0.00  0.00     0.274 HD
ATOM     43  H8  LSW d          39.340   5.962 107.714  0.00  0.00     0.274 HD
ENDBRANCH  37  40
ENDBRANCH  34  37
ENDBRANCH  31  34
ENDBRANCH  28  31
ENDBRANCH   1  28
BRANCH   1  44
ATOM     44  CBC LSW d          42.761   8.183 112.484  0.00  0.00     0.249 C 
ATOM     45  OAD LSW d          43.230   7.414 111.644  0.00  0.00    -0.271 OA
ATOM     46  NAX LSW d          42.887   7.968 113.798  0.00  0.00    -0.344 N 
ATOM     47  H31 LSW d          42.524   8.633 114.450  0.00  0.00     0.163 HD
BRANCH  46  48
ATOM     48  CBJ LSW d          43.558   6.754 114.282  0.00  0.00     0.100 C 
ATOM     49  H33 LSW d          43.645   6.049 113.441  0.00  0.00     0.090 H 
BRANCH  48  50
ATOM     50  CAW LSW d          44.964   7.042 114.830  0.00  0.00    -0.011 C 
ATOM     51  H29 LSW d          45.668   6.360 114.329  0.00  0.00     0.044 H 
ATOM     52  H30 LSW d          45.218   8.082 114.577  0.00  0.00     0.044 H 
BRANCH  50  53
ATOM     53  CBE LSW d          45.134   6.876 116.291  0.00  0.00    -0.028 A 
ATOM     54  CAP LSW d          45.093   7.863 117.245  0.00  0.00    -0.015 A 
ATOM     55  NXZ LSW d          45.334   7.307 118.503  0.00  0.00    -0.365 N 
ATOM     56  H18 LSW d          44.901   8.917 117.051  0.00  0.00     0.112 H 
ATOM     57  CBF LSW d          45.530   5.958 118.357  0.00  0.00     0.042 A 
ATOM     58  H34 LSW d          45.362   7.825 119.393  0.00  0.00     0.165 HD
ATOM     59  CAN LSW d          45.805   4.983 119.319  0.00  0.00    -0.056 A 
ATOM     60  CBG LSW d          45.407   5.651 116.980  0.00  0.00    -0.002 A 
ATOM     61  CAJ LSW d          45.956   3.688 118.887  0.00  0.00    -0.081 A 
ATOM     62  H16 LSW d          45.894   5.239 120.368  0.00  0.00     0.086 H 
ATOM     63  CAK LSW d          45.837   3.346 117.523  0.00  0.00    -0.082 A 
ATOM     64  H12 LSW d          46.173   2.910 119.610  0.00  0.00     0.083 H 
ATOM     65  CAO LSW d          45.561   4.320 116.564  0.00  0.00    -0.070 A 
ATOM     66  H13 LSW d          45.961   2.313 117.217  0.00  0.00     0.083 H 
ATOM     67  H17 LSW d          45.469   4.053 115.517  0.00  0.00     0.084 H 
ENDBRANCH  50  53
ENDBRANCH  48  50
BRANCH  48  68
ATOM     68  CBB LSW d          42.732   6.102 115.398  0.00  0.00     0.197 C 
ATOM     69  OAC LSW d          42.170   6.839 116.248  0.00  0.00    -0.646 OA
ATOM     70  OAF LSW d          42.633   4.855 115.398  0.00  0.00    -0.646 OA
ENDBRANCH  48  68
ENDBRANCH  46  48
ENDBRANCH   1  44
TORSDOF 16
ENDMDL
MODEL 6
REMARK VINA RESULT:      -6.4      2.524      7.208
REMARK  16 active torsions:
REMARK  status: ('A' for Active; 'I' for Inactive)
REMARK    1  A    between atoms: CA_4  and  C_1 
REMARK    2  A    between atoms: N_2  and  CA_4 
REMARK    3  A    between atoms: CBI_33  and  N_2 
REMARK    4  A    between atoms: CA_4  and  CB_5 
REMARK    5  A    between atoms: CB_5  and  CAT_23 
REMARK    6  A    between atoms: CAQ_20  and  NAA_6 
REMARK    7  A    between atoms: CAR_21  and  CAQ_20 
REMARK    8  A    between atoms: CAS_22  and  CAR_21 
REMARK    9  A    between atoms: CAU_24  and  CAS_22 
REMARK   10  A    between atoms: CAT_23  and  CBD_29 
REMARK   11  A    between atoms: CBI_33  and  CAU_24 
REMARK   12  A    between atoms: CBE_30  and  CAW_25 
REMARK   13  A    between atoms: CAW_25  and  CBJ_34 
REMARK       I    between atoms: NAX_26  and  CBC_28 
REMARK   14  A    between atoms: CBJ_34  and  NAX_26 
REMARK   15  A    between atoms: CBJ_34  and  CBB_27 
REMARK   16  A    between atoms: CBC_28  and  CBI_33 
ROOT
ATOM      1  CBI LSW d          43.729   7.875 109.430  0.00  0.00     0.179 C 
ATOM      2  H32 LSW d          44.767   7.528 109.545  0.00  0.00     0.099 H 
ENDROOT
BRANCH   1   3
ATOM      3  N   LSW d          43.038   6.970 108.513  0.00  0.00    -0.048 N 
ATOM      4  H1  LSW d          43.666   6.690 107.777  0.00  0.00     0.279 HD
ATOM      5  H2  LSW d          42.724   6.154 109.016  0.00  0.00     0.279 HD
BRANCH   3   6
ATOM      6  CA  LSW d          41.880   7.666 107.934  0.00  0.00     0.185 C 
ATOM      7  H3  LSW d          41.785   8.657 108.403  0.00  0.00     0.101 H 
BRANCH   6   8
ATOM      8  C   LSW d          40.604   6.860 108.198  0.00  0.00     0.204 C 
ATOM      9  O   LSW d          40.611   5.629 107.981  0.00  0.00    -0.646 OA
ATOM     10  OXT LSW d          39.590   7.450 108.632  0.00  0.00    -0.646 OA
ENDBRANCH   6   8
BRANCH   6  11
ATOM     11  CB  LSW d          42.067   7.842 106.424  0.00  0.00    -0.025 C 
ATOM     12  H4  LSW d          42.212   6.855 105.961  0.00  0.00     0.037 H 
ATOM     13  H5  LSW d          42.953   8.467 106.240  0.00  0.00     0.037 H 
BRANCH  11  14
ATOM     14  CAT LSW d          40.840   8.514 105.803  0.00  0.00    -0.039 C 
ATOM     15  H25 LSW d          39.934   8.039 106.210  0.00  0.00     0.040 H 
ATOM     16  H26 LSW d          40.873   8.369 104.713  0.00  0.00     0.040 H 
BRANCH  14  17
ATOM     17  CBD LSW d          40.779  10.017 106.095  0.00  0.00    -0.058 A 
ATOM     18  CAL LSW d          39.583  10.589 106.516  0.00  0.00    -0.077 A 
ATOM     19  CAH LSW d          39.528  11.940 106.841  0.00  0.00    -0.082 A 
ATOM     20  H14 LSW d          38.689   9.979 106.591  0.00  0.00     0.084 H 
ATOM     21  CAG LSW d          40.672  12.724 106.743  0.00  0.00    -0.083 A 
ATOM     22  H10 LSW d          38.594  12.381 107.170  0.00  0.00     0.083 H 
ATOM     23  CAI LSW d          41.868  12.154 106.320  0.00  0.00    -0.082 A 
ATOM     24  H9  LSW d          40.631  13.777 106.997  0.00  0.00     0.083 H 
ATOM     25  CAM LSW d          41.921  10.803 105.996  0.00  0.00    -0.077 A 
ATOM     26  H11 LSW d          42.760  12.766 106.241  0.00  0.00     0.083 H 
ATOM     27  H15 LSW d          42.855  10.361 105.666  0.00  0.00     0.084 H 
ENDBRANCH  14  17
ENDBRANCH  11  14
ENDBRANCH   6  11
ENDBRANCH   3   6
ENDBRANCH   1   3
BRANCH   1  28
ATOM     28  CAU LSW d          43.749   9.305 108.859  0.00  0.00    -0.030 C 
ATOM     29  H27 LSW d          44.103   9.246 107.819  0.00  0.00     0.036 H 
ATOM     30  H28 LSW d          42.718   9.686 108.874  0.00  0.00     0.036 H 
BRANCH  28  31
ATOM     31  CAS LSW d          44.639  10.327 109.601  0.00  0.00    -0.061 C 
ATOM     32  H23 LSW d          44.674  10.072 110.671  0.00  0.00     0.033 H 
ATOM     33  H24 LSW d          45.657  10.297 109.184  0.00  0.00     0.033 H 
BRANCH  31  34
ATOM     34  CAR LSW d          44.054  11.746 109.429  0.00  0.00    -0.043 C 
ATOM     35  H21 LSW d          43.448  11.766 108.511  0.00  0.00     0.035 H 
ATOM     36  H22 LSW d          43.413  11.967 110.295  0.00  0.00     0.035 H 
BRANCH  34  37
ATOM     37  CAQ LSW d          45.133  12.838 109.327  0.00  0.00     0.080 C 
ATOM     38  H19 LSW d          46.098  12.366 109.090  0.00  0.00     0.075 H 
ATOM     39  H20 LSW d          44.858  13.537 108.523  0.00  0.00     0.075 H 
BRANCH  37  40
ATOM     40  NAA LSW d          45.268  13.603 110.609  0.00  0.00    -0.079 N 
ATOM     41  H6  LSW d          44.371  13.654 111.066  0.00  0.00     0.274 HD
ATOM     42  H7  LSW d          45.598  14.534 110.412  0.00  0.00     0.274 HD
ATOM     43  H8  LSW d          45.926  13.134 111.212  0.00  0.00     0.274 HD
ENDBRANCH  37  40
ENDBRANCH  34  37
ENDBRANCH  31  34
ENDBRANCH  28  31
ENDBRANCH   1  28
BRANCH   1  44
ATOM     44  CBC LSW d          43.059   7.867 110.807  0.00  0.00     0.249 C 
ATOM     45  OAD LSW d          42.112   7.109 111.022  0.00  0.00    -0.271 OA
ATOM     46  NAX LSW d          43.545   8.686 111.745  0.00  0.00    -0.344 N 
ATOM     47  H31 LSW d          44.338   9.261 111.545  0.00  0.00     0.163 HD
BRANCH  46  48
ATOM     48  CBJ LSW d          42.915   8.739 113.071  0.00  0.00     0.100 C 
ATOM     49  H33 LSW d          43.478   9.451 113.692  0.00  0.00     0.090 H 
BRANCH  48  50
ATOM     50  CAW LSW d          41.449   9.196 113.004  0.00  0.00    -0.011 C 
ATOM     51  H29 LSW d          40.830   8.313 112.785  0.00  0.00     0.044 H 
ATOM     52  H30 LSW d          41.176   9.600 113.991  0.00  0.00     0.044 H 
BRANCH  50  53
ATOM     53  CBE LSW d          41.141  10.230 111.990  0.00  0.00    -0.028 A 
ATOM     54  CAP LSW d          40.499  10.046 110.791  0.00  0.00    -0.015 A 
ATOM     55  NXZ LSW d          40.435  11.259 110.104  0.00  0.00    -0.365 N 
ATOM     56  H18 LSW d          40.099   9.099 110.431  0.00  0.00     0.112 H 
ATOM     57  CBF LSW d          41.038  12.227 110.865  0.00  0.00     0.042 A 
ATOM     58  H34 LSW d          40.006  11.404 109.178  0.00  0.00     0.165 HD
ATOM     59  CAN LSW d          41.223  13.587 110.603  0.00  0.00    -0.056 A 
ATOM     60  CBG LSW d          41.490  11.617 112.060  0.00  0.00    -0.002 A 
ATOM     61  CAJ LSW d          41.871  14.335 111.555  0.00  0.00    -0.081 A 
ATOM     62  H16 LSW d          40.868  14.035 109.682  0.00  0.00     0.086 H 
ATOM     63  CAK LSW d          42.332  13.760 112.758  0.00  0.00    -0.082 A 
ATOM     64  H12 LSW d          42.032  15.392 111.379  0.00  0.00     0.083 H 
ATOM     65  CAO LSW d          42.145  12.404 113.019  0.00  0.00    -0.070 A 
ATOM     66  H13 LSW d          42.839  14.381 113.489  0.00  0.00     0.083 H 
ATOM     67  H17 LSW d          42.499  11.965 113.946  0.00  0.00     0.084 H 
ENDBRANCH  50  53
ENDBRANCH  48  50
BRANCH  48  68
ATOM     68  CBB LSW d          42.956   7.355 113.733  0.00  0.00     0.197 C 
ATOM     69  OAC LSW d          44.060   6.905 114.131  0.00  0.00    -0.646 OA
ATOM     70  OAF LSW d          41.875   6.743 113.870  0.00  0.00    -0.646 OA
ENDBRANCH  48  68
ENDBRANCH  46  48
ENDBRANCH   1  44
TORSDOF 16
ENDMDL
MODEL 7
REMARK VINA RESULT:      -6.3      2.077      6.857
REMARK  16 active torsions:
REMARK  status: ('A' for Active; 'I' for Inactive)
REMARK    1  A    between atoms: CA_4  and  C_1 
REMARK    2  A    between atoms: N_2  and  CA_4 
REMARK    3  A    between atoms: CBI_33  and  N_2 
REMARK    4  A    between atoms: CA_4  and  CB_5 
REMARK    5  A    between atoms: CB_5  and  CAT_23 
REMARK    6  A    between atoms: CAQ_20  and  NAA_6 
REMARK    7  A    between atoms: CAR_21  and  CAQ_20 
REMARK    8  A    between atoms: CAS_22  and  CAR_21 
REMARK    9  A    between atoms: CAU_24  and  CAS_22 
REMARK   10  A    between atoms: CAT_23  and  CBD_29 
REMARK   11  A    between atoms: CBI_33  and  CAU_24 
REMARK   12  A    between atoms: CBE_30  and  CAW_25 
REMARK   13  A    between atoms: CAW_25  and  CBJ_34 
REMARK       I    between atoms: NAX_26  and  CBC_28 
REMARK   14  A    between atoms: CBJ_34  and  NAX_26 
REMARK   15  A    between atoms: CBJ_34  and  CBB_27 
REMARK   16  A    between atoms: CBC_28  and  CBI_33 
ROOT
ATOM      1  CBI LSW d          40.429  11.006 109.367  0.00  0.00     0.179 C 
ATOM      2  H32 LSW d          39.665  11.335 110.087  0.00  0.00     0.099 H 
ENDROOT
BRANCH   1   3
ATOM      3  N   LSW d          40.450  11.950 108.251  0.00  0.00    -0.048 N 
ATOM      4  H1  LSW d          39.579  11.897 107.747  0.00  0.00     0.279 HD
ATOM      5  H2  LSW d          40.579  12.886 108.603  0.00  0.00     0.279 HD
BRANCH   3   6
ATOM      6  CA  LSW d          41.560  11.606 107.351  0.00  0.00     0.185 C 
ATOM      7  H3  LSW d          42.213  10.874 107.850  0.00  0.00     0.101 H 
BRANCH   6   8
ATOM      8  C   LSW d          42.372  12.864 107.024  0.00  0.00     0.204 C 
ATOM      9  O   LSW d          43.346  12.769 106.246  0.00  0.00    -0.646 OA
ATOM     10  OXT LSW d          42.037  13.954 107.534  0.00  0.00    -0.646 OA
ENDBRANCH   6   8
BRANCH   6  11
ATOM     11  CB  LSW d          41.023  10.996 106.054  0.00  0.00    -0.025 C 
ATOM     12  H4  LSW d          40.827  11.801 105.330  0.00  0.00     0.037 H 
ATOM     13  H5  LSW d          40.086  10.459 106.268  0.00  0.00     0.037 H 
BRANCH  11  14
ATOM     14  CAT LSW d          42.038  10.017 105.456  0.00  0.00    -0.039 C 
ATOM     15  H25 LSW d          43.030  10.492 105.463  0.00  0.00     0.040 H 
ATOM     16  H26 LSW d          41.744   9.794 104.420  0.00  0.00     0.040 H 
BRANCH  14  17
ATOM     17  CBD LSW d          42.118   8.701 106.236  0.00  0.00    -0.058 A 
ATOM     18  CAL LSW d          43.254   8.413 106.986  0.00  0.00    -0.077 A 
ATOM     19  CAH LSW d          43.316   7.250 107.745  0.00  0.00    -0.082 A 
ATOM     20  H14 LSW d          44.094   9.098 106.979  0.00  0.00     0.084 H 
ATOM     21  CAG LSW d          42.241   6.368 107.753  0.00  0.00    -0.083 A 
ATOM     22  H10 LSW d          44.202   7.030 108.330  0.00  0.00     0.083 H 
ATOM     23  CAI LSW d          41.106   6.653 107.002  0.00  0.00    -0.082 A 
ATOM     24  H9  LSW d          42.287   5.461 108.345  0.00  0.00     0.083 H 
ATOM     25  CAM LSW d          41.045   7.817 106.244  0.00  0.00    -0.077 A 
ATOM     26  H11 LSW d          40.267   5.965 107.006  0.00  0.00     0.083 H 
ATOM     27  H15 LSW d          40.159   8.037 105.659  0.00  0.00     0.084 H 
ENDBRANCH  14  17
ENDBRANCH  11  14
ENDBRANCH   6  11
ENDBRANCH   3   6
ENDBRANCH   1   3
BRANCH   1  28
ATOM     28  CAU LSW d          40.060   9.595 108.869  0.00  0.00    -0.030 C 
ATOM     29  H27 LSW d          39.696   9.690 107.835  0.00  0.00     0.036 H 
ATOM     30  H28 LSW d          40.974   8.985 108.882  0.00  0.00     0.036 H 
BRANCH  28  31
ATOM     31  CAS LSW d          38.981   8.844 109.680  0.00  0.00    -0.061 C 
ATOM     32  H23 LSW d          39.349   7.839 109.934  0.00  0.00     0.033 H 
ATOM     33  H24 LSW d          38.764   9.400 110.603  0.00  0.00     0.033 H 
BRANCH  31  34
ATOM     34  CAR LSW d          37.691   8.721 108.838  0.00  0.00    -0.043 C 
ATOM     35  H21 LSW d          37.134   7.836 109.178  0.00  0.00     0.035 H 
ATOM     36  H22 LSW d          37.081   9.622 109.000  0.00  0.00     0.035 H 
BRANCH  34  37
ATOM     37  CAQ LSW d          37.962   8.578 107.330  0.00  0.00     0.080 C 
ATOM     38  H19 LSW d          37.327   9.291 106.784  0.00  0.00     0.075 H 
ATOM     39  H20 LSW d          39.021   8.804 107.135  0.00  0.00     0.075 H 
BRANCH  37  40
ATOM     40  NAA LSW d          37.664   7.191 106.845  0.00  0.00    -0.079 N 
ATOM     41  H6  LSW d          36.958   7.231 106.126  0.00  0.00     0.274 HD
ATOM     42  H7  LSW d          37.330   6.631 107.613  0.00  0.00     0.274 HD
ATOM     43  H8  LSW d          38.503   6.779 106.469  0.00  0.00     0.274 HD
ENDBRANCH  37  40
ENDBRANCH  34  37
ENDBRANCH  31  34
ENDBRANCH  28  31
ENDBRANCH   1  28
BRANCH   1  44
ATOM     44  CBC LSW d          41.785  10.975 110.076  0.00  0.00     0.249 C 
ATOM     45  OAD LSW d          42.190  11.978 110.665  0.00  0.00    -0.271 OA
ATOM     46  NAX LSW d          42.484   9.836 110.043  0.00  0.00    -0.344 N 
ATOM     47  H31 LSW d          42.107   9.031 109.586  0.00  0.00     0.163 HD
BRANCH  46  48
ATOM     48  CBJ LSW d          43.806   9.766 110.681  0.00  0.00     0.100 C 
ATOM     49  H33 LSW d          43.818  10.470 111.526  0.00  0.00     0.090 H 
BRANCH  48  50
ATOM     50  CAW LSW d          44.128   8.359 111.207  0.00  0.00    -0.011 C 
ATOM     51  H29 LSW d          44.067   7.660 110.360  0.00  0.00     0.044 H 
ATOM     52  H30 LSW d          45.156   8.373 111.598  0.00  0.00     0.044 H 
BRANCH  50  53
ATOM     53  CBE LSW d          43.242   7.852 112.279  0.00  0.00    -0.028 A 
ATOM     54  CAP LSW d          41.873   7.751 112.241  0.00  0.00    -0.015 A 
ATOM     55  NXZ LSW d          41.407   7.260 113.462  0.00  0.00    -0.365 N 
ATOM     56  H18 LSW d          41.247   8.012 111.389  0.00  0.00     0.112 H 
ATOM     57  CBF LSW d          42.480   7.045 114.287  0.00  0.00     0.042 A 
ATOM     58  H34 LSW d          40.420   7.090 113.703  0.00  0.00     0.165 HD
ATOM     59  CAN LSW d          42.519   6.566 115.599  0.00  0.00    -0.056 A 
ATOM     60  CBG LSW d          43.651   7.401 113.575  0.00  0.00    -0.002 A 
ATOM     61  CAJ LSW d          43.750   6.447 116.196  0.00  0.00    -0.081 A 
ATOM     62  H16 LSW d          41.611   6.297 116.126  0.00  0.00     0.086 H 
ATOM     63  CAK LSW d          44.937   6.791 115.515  0.00  0.00    -0.082 A 
ATOM     64  H12 LSW d          43.812   6.081 117.215  0.00  0.00     0.083 H 
ATOM     65  CAO LSW d          44.897   7.267 114.205  0.00  0.00    -0.070 A 
ATOM     66  H13 LSW d          45.893   6.683 116.016  0.00  0.00     0.083 H 
ATOM     67  H17 LSW d          45.811   7.528 113.684  0.00  0.00     0.084 H 
ENDBRANCH  50  53
ENDBRANCH  48  50
BRANCH  48  68
ATOM     68  CBB LSW d          44.897  10.166 109.679  0.00  0.00     0.197 C 
ATOM     69  OAC LSW d          45.069  11.384 109.422  0.00  0.00    -0.646 OA
ATOM     70  OAF LSW d          45.590   9.253 109.179  0.00  0.00    -0.646 OA
ENDBRANCH  48  68
ENDBRANCH  46  48
ENDBRANCH   1  44
TORSDOF 16
ENDMDL
MODEL 8
REMARK VINA RESULT:      -6.2      2.797      5.370
REMARK  16 active torsions:
REMARK  status: ('A' for Active; 'I' for Inactive)
REMARK    1  A    between atoms: CA_4  and  C_1 
REMARK    2  A    between atoms: N_2  and  CA_4 
REMARK    3  A    between atoms: CBI_33  and  N_2 
REMARK    4  A    between atoms: CA_4  and  CB_5 
REMARK    5  A    between atoms: CB_5  and  CAT_23 
REMARK    6  A    between atoms: CAQ_20  and  NAA_6 
REMARK    7  A    between atoms: CAR_21  and  CAQ_20 
REMARK    8  A    between atoms: CAS_22  and  CAR_21 
REMARK    9  A    between atoms: CAU_24  and  CAS_22 
REMARK   10  A    between atoms: CAT_23  and  CBD_29 
REMARK   11  A    between atoms: CBI_33  and  CAU_24 
REMARK   12  A    between atoms: CBE_30  and  CAW_25 
REMARK   13  A    between atoms: CAW_25  and  CBJ_34 
REMARK       I    between atoms: NAX_26  and  CBC_28 
REMARK   14  A    between atoms: CBJ_34  and  NAX_26 
REMARK   15  A    between atoms: CBJ_34  and  CBB_27 
REMARK   16  A    between atoms: CBC_28  and  CBI_33 
ROOT
ATOM      1  CBI LSW d          42.544   7.609 112.740  0.00  0.00     0.179 C 
ATOM      2  H32 LSW d          41.927   6.716 112.918  0.00  0.00     0.099 H 
ENDROOT
BRANCH   1   3
ATOM      3  N   LSW d          43.836   7.418 113.397  0.00  0.00    -0.048 N 
ATOM      4  H1  LSW d          44.290   6.602 113.018  0.00  0.00     0.279 HD
ATOM      5  H2  LSW d          44.416   8.228 113.242  0.00  0.00     0.279 HD
BRANCH   3   6
ATOM      6  CA  LSW d          43.619   7.237 114.839  0.00  0.00     0.185 C 
ATOM      7  H3  LSW d          43.037   8.087 115.224  0.00  0.00     0.101 H 
BRANCH   6   8
ATOM      8  C   LSW d          44.968   7.180 115.564  0.00  0.00     0.204 C 
ATOM      9  O   LSW d          45.849   6.400 115.142  0.00  0.00    -0.646 OA
ATOM     10  OXT LSW d          45.159   7.921 116.553  0.00  0.00    -0.646 OA
ENDBRANCH   6   8
BRANCH   6  11
ATOM     11  CB  LSW d          42.847   5.941 115.101  0.00  0.00    -0.025 C 
ATOM     12  H4  LSW d          43.559   5.107 115.189  0.00  0.00     0.037 H 
ATOM     13  H5  LSW d          42.162   5.751 114.261  0.00  0.00     0.037 H 
BRANCH  11  14
ATOM     14  CAT LSW d          42.036   6.048 116.396  0.00  0.00    -0.039 C 
ATOM     15  H25 LSW d          40.978   5.851 116.165  0.00  0.00     0.040 H 
ATOM     16  H26 LSW d          42.141   7.068 116.794  0.00  0.00     0.040 H 
BRANCH  14  17
ATOM     17  CBD LSW d          42.497   5.054 117.466  0.00  0.00    -0.058 A 
ATOM     18  CAL LSW d          41.669   3.997 117.828  0.00  0.00    -0.077 A 
ATOM     19  CAH LSW d          42.100   3.054 118.754  0.00  0.00    -0.082 A 
ATOM     20  H14 LSW d          40.684   3.907 117.385  0.00  0.00     0.084 H 
ATOM     21  CAG LSW d          43.363   3.169 119.325  0.00  0.00    -0.083 A 
ATOM     22  H10 LSW d          41.452   2.231 119.032  0.00  0.00     0.083 H 
ATOM     23  CAI LSW d          44.191   4.227 118.967  0.00  0.00    -0.082 A 
ATOM     24  H9  LSW d          43.701   2.435 120.048  0.00  0.00     0.083 H 
ATOM     25  CAM LSW d          43.759   5.168 118.039  0.00  0.00    -0.077 A 
ATOM     26  H11 LSW d          45.175   4.319 119.413  0.00  0.00     0.083 H 
ATOM     27  H15 LSW d          44.406   5.993 117.762  0.00  0.00     0.084 H 
ENDBRANCH  14  17
ENDBRANCH  11  14
ENDBRANCH   6  11
ENDBRANCH   3   6
ENDBRANCH   1   3
BRANCH   1  28
ATOM     28  CAU LSW d          41.818   8.833 113.330  0.00  0.00    -0.030 C 
ATOM     29  H27 LSW d          40.888   8.479 113.798  0.00  0.00     0.036 H 
ATOM     30  H28 LSW d          42.471   9.271 114.099  0.00  0.00     0.036 H 
BRANCH  28  31
ATOM     31  CAS LSW d          41.447   9.955 112.335  0.00  0.00    -0.061 C 
ATOM     32  H23 LSW d          41.776   9.670 111.324  0.00  0.00     0.033 H 
ATOM     33  H24 LSW d          40.356  10.100 112.337  0.00  0.00     0.033 H 
BRANCH  31  34
ATOM     34  CAR LSW d          42.142  11.270 112.751  0.00  0.00    -0.043 C 
ATOM     35  H21 LSW d          42.282  11.261 113.842  0.00  0.00     0.035 H 
ATOM     36  H22 LSW d          43.123  11.318 112.257  0.00  0.00     0.035 H 
BRANCH  34  37
ATOM     37  CAQ LSW d          41.339  12.526 112.372  0.00  0.00     0.080 C 
ATOM     38  H19 LSW d          41.133  12.505 111.291  0.00  0.00     0.075 H 
ATOM     39  H20 LSW d          40.390  12.525 112.927  0.00  0.00     0.075 H 
BRANCH  37  40
ATOM     40  NAA LSW d          42.092  13.781 112.698  0.00  0.00    -0.079 N 
ATOM     41  H6  LSW d          42.226  13.843 113.695  0.00  0.00     0.274 HD
ATOM     42  H7  LSW d          41.566  14.580 112.379  0.00  0.00     0.274 HD
ATOM     43  H8  LSW d          42.989  13.764 112.238  0.00  0.00     0.274 HD
ENDBRANCH  37  40
ENDBRANCH  34  37
ENDBRANCH  31  34
ENDBRANCH  28  31
ENDBRANCH   1  28
BRANCH   1  44
ATOM     44  CBC LSW d          42.725   7.782 111.230  0.00  0.00     0.249 C 
ATOM     45  OAD LSW d          43.848   7.686 110.733  0.00  0.00    -0.271 OA
ATOM     46  NAX LSW d          41.636   8.019 110.491  0.00  0.00    -0.344 N 
ATOM     47  H31 LSW d          40.736   8.055 110.925  0.00  0.00     0.163 HD
BRANCH  46  48
ATOM     48  CBJ LSW d          41.762   8.225 109.042  0.00  0.00     0.100 C 
ATOM     49  H33 LSW d          40.910   8.833 108.705  0.00  0.00     0.090 H 
BRANCH  48  50
ATOM     50  CAW LSW d          43.063   8.951 108.666  0.00  0.00    -0.011 C 
ATOM     51  H29 LSW d          43.881   8.502 109.250  0.00  0.00     0.044 H 
ATOM     52  H30 LSW d          43.244   8.785 107.593  0.00  0.00     0.044 H 
BRANCH  50  53
ATOM     53  CBE LSW d          43.081  10.411 108.909  0.00  0.00    -0.028 A 
ATOM     54  CAP LSW d          44.020  11.121 109.616  0.00  0.00    -0.015 A 
ATOM     55  NXZ LSW d          43.661  12.469 109.647  0.00  0.00    -0.365 N 
ATOM     56  H18 LSW d          44.909  10.696 110.080  0.00  0.00     0.112 H 
ATOM     57  CBF LSW d          42.487  12.628 108.957  0.00  0.00     0.042 A 
ATOM     58  H34 LSW d          44.190  13.221 110.113  0.00  0.00     0.165 HD
ATOM     59  CAN LSW d          41.738  13.782 108.716  0.00  0.00    -0.056 A 
ATOM     60  CBG LSW d          42.095  11.355 108.474  0.00  0.00    -0.002 A 
ATOM     61  CAJ LSW d          40.584  13.649 107.983  0.00  0.00    -0.081 A 
ATOM     62  H16 LSW d          42.056  14.747 109.093  0.00  0.00     0.086 H 
ATOM     63  CAK LSW d          40.165  12.398 107.485  0.00  0.00    -0.082 A 
ATOM     64  H12 LSW d          39.980  14.527 107.783  0.00  0.00     0.083 H 
ATOM     65  CAO LSW d          40.915  11.247 107.724  0.00  0.00    -0.070 A 
ATOM     66  H13 LSW d          39.249  12.330 106.908  0.00  0.00     0.083 H 
ATOM     67  H17 LSW d          40.591  10.287 107.338  0.00  0.00     0.084 H 
ENDBRANCH  50  53
ENDBRANCH  48  50
BRANCH  48  68
ATOM     68  CBB LSW d          41.737   6.877 108.311  0.00  0.00     0.197 C 
ATOM     69  OAC LSW d          42.754   6.514 107.669  0.00  0.00    -0.646 OA
ATOM     70  OAF LSW d          40.702   6.181 108.409  0.00  0.00    -0.646 OA
ENDBRANCH  48  68
ENDBRANCH  46  48
ENDBRANCH   1  44
TORSDOF 16
ENDMDL
MODEL 9
REMARK VINA RESULT:      -6.1      2.175      6.754
REMARK  16 active torsions:
REMARK  status: ('A' for Active; 'I' for Inactive)
REMARK    1  A    between atoms: CA_4  and  C_1 
REMARK    2  A    between atoms: N_2  and  CA_4 
REMARK    3  A    between atoms: CBI_33  and  N_2 
REMARK    4  A    between atoms: CA_4  and  CB_5 
REMARK    5  A    between atoms: CB_5  and  CAT_23 
REMARK    6  A    between atoms: CAQ_20  and  NAA_6 
REMARK    7  A    between atoms: CAR_21  and  CAQ_20 
REMARK    8  A    between atoms: CAS_22  and  CAR_21 
REMARK    9  A    between atoms: CAU_24  and  CAS_22 
REMARK   10  A    between atoms: CAT_23  and  CBD_29 
REMARK   11  A    between atoms: CBI_33  and  CAU_24 
REMARK   12  A    between atoms: CBE_30  and  CAW_25 
REMARK   13  A    between atoms: CAW_25  and  CBJ_34 
REMARK       I    between atoms: NAX_26  and  CBC_28 
REMARK   14  A    between atoms: CBJ_34  and  NAX_26 
REMARK   15  A    between atoms: CBJ_34  and  CBB_27 
REMARK   16  A    between atoms: CBC_28  and  CBI_33 
ROOT
ATOM      1  CBI LSW d          40.610   9.761 110.538  0.00  0.00     0.179 C 
ATOM      2  H32 LSW d          40.007   8.995 111.050  0.00  0.00     0.099 H 
ENDROOT
BRANCH   1   3
ATOM      3  N   LSW d          39.728  10.542 109.673  0.00  0.00    -0.048 N 
ATOM      4  H1  LSW d          38.822  10.630 110.105  0.00  0.00     0.279 HD
ATOM      5  H2  LSW d          40.122  11.459 109.529  0.00  0.00     0.279 HD
BRANCH   3   6
ATOM      6  CA  LSW d          39.592   9.857 108.380  0.00  0.00     0.185 C 
ATOM      7  H3  LSW d          40.457   9.193 108.234  0.00  0.00     0.101 H 
BRANCH   6   8
ATOM      8  C   LSW d          39.552  10.888 107.247  0.00  0.00     0.204 C 
ATOM      9  O   LSW d          40.514  10.951 106.452  0.00  0.00    -0.646 OA
ATOM     10  OXT LSW d          38.555  11.635 107.140  0.00  0.00    -0.646 OA
ENDBRANCH   6   8
BRANCH   6  11
ATOM     11  CB  LSW d          38.309   9.022 108.354  0.00  0.00    -0.025 C 
ATOM     12  H4  LSW d          37.454   9.680 108.138  0.00  0.00     0.037 H 
ATOM     13  H5  LSW d          38.167   8.546 109.335  0.00  0.00     0.037 H 
BRANCH  11  14
ATOM     14  CAT LSW d          38.393   7.937 107.276  0.00  0.00    -0.039 C 
ATOM     15  H25 LSW d          38.254   8.408 106.291  0.00  0.00     0.040 H 
ATOM     16  H26 LSW d          37.590   7.205 107.450  0.00  0.00     0.040 H 
BRANCH  14  17
ATOM     17  CBD LSW d          39.736   7.201 107.283  0.00  0.00    -0.058 A 
ATOM     18  CAL LSW d          40.796   7.695 106.529  0.00  0.00    -0.077 A 
ATOM     19  CAH LSW d          42.037   7.071 106.572  0.00  0.00    -0.082 A 
ATOM     20  H14 LSW d          40.654   8.571 105.907  0.00  0.00     0.084 H 
ATOM     21  CAG LSW d          42.221   5.946 107.369  0.00  0.00    -0.083 A 
ATOM     22  H10 LSW d          42.861   7.460 105.985  0.00  0.00     0.083 H 
ATOM     23  CAI LSW d          41.162   5.448 108.120  0.00  0.00    -0.082 A 
ATOM     24  H9  LSW d          43.189   5.458 107.404  0.00  0.00     0.083 H 
ATOM     25  CAM LSW d          39.921   6.075 108.077  0.00  0.00    -0.077 A 
ATOM     26  H11 LSW d          41.304   4.570 108.740  0.00  0.00     0.083 H 
ATOM     27  H15 LSW d          39.097   5.686 108.663  0.00  0.00     0.084 H 
ENDBRANCH  14  17
ENDBRANCH  11  14
ENDBRANCH   6  11
ENDBRANCH   3   6
ENDBRANCH   1   3
BRANCH   1  28
ATOM     28  CAU LSW d          41.693   9.054 109.701  0.00  0.00    -0.030 C 
ATOM     29  H27 LSW d          41.186   8.476 108.915  0.00  0.00     0.036 H 
ATOM     30  H28 LSW d          42.319   9.831 109.239  0.00  0.00     0.036 H 
BRANCH  28  31
ATOM     31  CAS LSW d          42.628   8.090 110.464  0.00  0.00    -0.061 C 
ATOM     32  H23 LSW d          43.128   7.421 109.748  0.00  0.00     0.033 H 
ATOM     33  H24 LSW d          43.385   8.670 111.013  0.00  0.00     0.033 H 
BRANCH  31  34
ATOM     34  CAR LSW d          41.802   7.249 111.463  0.00  0.00    -0.043 C 
ATOM     35  H21 LSW d          40.869   7.788 111.686  0.00  0.00     0.035 H 
ATOM     36  H22 LSW d          41.563   6.284 110.993  0.00  0.00     0.035 H 
BRANCH  34  37
ATOM     37  CAQ LSW d          42.540   6.980 112.786  0.00  0.00     0.080 C 
ATOM     38  H19 LSW d          41.879   7.245 113.624  0.00  0.00     0.075 H 
ATOM     39  H20 LSW d          42.794   5.911 112.842  0.00  0.00     0.075 H 
BRANCH  37  40
ATOM     40  NAA LSW d          43.801   7.785 112.888  0.00  0.00    -0.079 N 
ATOM     41  H6  LSW d          43.910   8.346 112.058  0.00  0.00     0.274 HD
ATOM     42  H7  LSW d          44.589   7.164 112.979  0.00  0.00     0.274 HD
ATOM     43  H8  LSW d          43.751   8.386 113.696  0.00  0.00     0.274 HD
ENDBRANCH  37  40
ENDBRANCH  34  37
ENDBRANCH  31  34
ENDBRANCH  28  31
ENDBRANCH   1  28
BRANCH   1  44
ATOM     44  CBC LSW d          41.262  10.654 111.596  0.00  0.00     0.249 C 
ATOM     45  OAD LSW d          41.224  10.326 112.783  0.00  0.00    -0.271 OA
ATOM     46  NAX LSW d          41.875  11.769 111.184  0.00  0.00    -0.344 N 
ATOM     47  H31 LSW d          41.917  11.985 110.209  0.00  0.00     0.163 HD
BRANCH  46  48
ATOM     48  CBJ LSW d          42.486  12.676 112.165  0.00  0.00     0.100 C 
ATOM     49  H33 LSW d          42.991  12.067 112.930  0.00  0.00     0.090 H 
BRANCH  48  50
ATOM     50  CAW LSW d          43.519  13.618 111.526  0.00  0.00    -0.011 C 
ATOM     51  H29 LSW d          43.135  14.646 111.611  0.00  0.00     0.044 H 
ATOM     52  H30 LSW d          44.456  13.527 112.096  0.00  0.00     0.044 H 
BRANCH  50  53
ATOM     53  CBE LSW d          43.828  13.365 110.101  0.00  0.00    -0.028 A 
ATOM     54  CAP LSW d          44.994  12.854 109.586  0.00  0.00    -0.015 A 
ATOM     55  NXZ LSW d          44.907  12.802 108.193  0.00  0.00    -0.365 N 
ATOM     56  H18 LSW d          45.854  12.537 110.173  0.00  0.00     0.112 H 
ATOM     57  CBF LSW d          43.680  13.281 107.812  0.00  0.00     0.042 A 
ATOM     58  H34 LSW d          45.643  12.462 107.558  0.00  0.00     0.165 HD
ATOM     59  CAN LSW d          43.133  13.428 106.535  0.00  0.00    -0.056 A 
ATOM     60  CBG LSW d          42.973  13.640 108.985  0.00  0.00    -0.002 A 
ATOM     61  CAJ LSW d          41.862  13.942 106.442  0.00  0.00    -0.081 A 
ATOM     62  H16 LSW d          43.691  13.146 105.649  0.00  0.00     0.086 H 
ATOM     63  CAK LSW d          41.129  14.307 107.591  0.00  0.00    -0.082 A 
ATOM     64  H12 LSW d          41.413  14.071 105.465  0.00  0.00     0.083 H 
ATOM     65  CAO LSW d          41.675  14.158 108.865  0.00  0.00    -0.070 A 
ATOM     66  H13 LSW d          40.127  14.709 107.481  0.00  0.00     0.083 H 
ATOM     67  H17 LSW d          41.107  14.438 109.745  0.00  0.00     0.084 H 
ENDBRANCH  50  53
ENDBRANCH  48  50
BRANCH  48  68
ATOM     68  CBB LSW d          41.407  13.533 112.838  0.00  0.00     0.197 C 
ATOM     69  OAC LSW d          40.422  13.915 112.157  0.00  0.00    -0.646 OA
ATOM     70  OAF LSW d          41.545  13.795 114.053  0.00  0.00    -0.646 OA
ENDBRANCH  48  68
ENDBRANCH  46  48
ENDBRANCH   1  44
TORSDOF 16
ENDMDL
MODEL 10
REMARK VINA RESULT:      -6.0      2.169      4.504
REMARK  16 active torsions:
REMARK  status: ('A' for Active; 'I' for Inactive)
REMARK    1  A    between atoms: CA_4  and  C_1 
REMARK    2  A    between atoms: N_2  and  CA_4 
REMARK    3  A    between atoms: CBI_33  and  N_2 
REMARK    4  A    between atoms: CA_4  and  CB_5 
REMARK    5  A    between atoms: CB_5  and  CAT_23 
REMARK    6  A    between atoms: CAQ_20  and  NAA_6 
REMARK    7  A    between atoms: CAR_21  and  CAQ_20 
REMARK    8  A    between atoms: CAS_22  and  CAR_21 
REMARK    9  A    between atoms: CAU_24  and  CAS_22 
REMARK   10  A    between atoms: CAT_23  and  CBD_29 
REMARK   11  A    between atoms: CBI_33  and  CAU_24 
REMARK   12  A    between atoms: CBE_30  and  CAW_25 
REMARK   13  A    between atoms: CAW_25  and  CBJ_34 
REMARK       I    between atoms: NAX_26  and  CBC_28 
REMARK   14  A    between atoms: CBJ_34  and  NAX_26 
REMARK   15  A    between atoms: CBJ_34  and  CBB_27 
REMARK   16  A    between atoms: CBC_28  and  CBI_33 
ROOT
ATOM      1  CBI LSW d          41.779   8.349 110.132  0.00  0.00     0.179 C 
ATOM      2  H32 LSW d          42.481   7.812 110.787  0.00  0.00     0.099 H 
ENDROOT
BRANCH   1   3
ATOM      3  N   LSW d          40.759   8.983 110.965  0.00  0.00    -0.048 N 
ATOM      4  H1  LSW d          40.478   9.857 110.548  0.00  0.00     0.279 HD
ATOM      5  H2  LSW d          39.959   8.374 111.042  0.00  0.00     0.279 HD
BRANCH   3   6
ATOM      6  CA  LSW d          41.318   9.233 112.302  0.00  0.00     0.185 C 
ATOM      7  H3  LSW d          40.573   8.950 113.060  0.00  0.00     0.101 H 
BRANCH   6   8
ATOM      8  C   LSW d          41.653  10.720 112.455  0.00  0.00     0.204 C 
ATOM      9  O   LSW d          42.652  11.179 111.861  0.00  0.00    -0.646 OA
ATOM     10  OXT LSW d          40.915  11.440 113.162  0.00  0.00    -0.646 OA
ENDBRANCH   6   8
BRANCH   6  11
ATOM     11  CB  LSW d          42.587   8.402 112.511  0.00  0.00    -0.025 C 
ATOM     12  H4  LSW d          43.251   8.927 113.213  0.00  0.00     0.037 H 
ATOM     13  H5  LSW d          43.100   8.275 111.545  0.00  0.00     0.037 H 
BRANCH  11  14
ATOM     14  CAT LSW d          42.241   7.023 113.080  0.00  0.00    -0.039 C 
ATOM     15  H25 LSW d          42.596   6.253 112.378  0.00  0.00     0.040 H 
ATOM     16  H26 LSW d          41.148   6.949 113.184  0.00  0.00     0.040 H 
BRANCH  14  17
ATOM     17  CBD LSW d          42.881   6.772 114.449  0.00  0.00    -0.058 A 
ATOM     18  CAL LSW d          44.179   7.210 114.693  0.00  0.00    -0.077 A 
ATOM     19  CAH LSW d          44.751   7.041 115.949  0.00  0.00    -0.082 A 
ATOM     20  H14 LSW d          44.746   7.685 113.901  0.00  0.00     0.084 H 
ATOM     21  CAG LSW d          44.025   6.429 116.966  0.00  0.00    -0.083 A 
ATOM     22  H10 LSW d          45.761   7.385 116.136  0.00  0.00     0.083 H 
ATOM     23  CAI LSW d          42.729   5.988 116.722  0.00  0.00    -0.082 A 
ATOM     24  H9  LSW d          44.469   6.297 117.946  0.00  0.00     0.083 H 
ATOM     25  CAM LSW d          42.158   6.159 115.466  0.00  0.00    -0.077 A 
ATOM     26  H11 LSW d          42.163   5.509 117.514  0.00  0.00     0.083 H 
ATOM     27  H15 LSW d          41.147   5.814 115.278  0.00  0.00     0.084 H 
ENDBRANCH  14  17
ENDBRANCH  11  14
ENDBRANCH   6  11
ENDBRANCH   3   6
ENDBRANCH   1   3
BRANCH   1  28
ATOM     28  CAU LSW d          41.130   7.334 109.171  0.00  0.00    -0.030 C 
ATOM     29  H27 LSW d          40.678   6.538 109.780  0.00  0.00     0.036 H 
ATOM     30  H28 LSW d          40.343   7.859 108.610  0.00  0.00     0.036 H 
BRANCH  28  31
ATOM     31  CAS LSW d          42.071   6.664 108.145  0.00  0.00    -0.061 C 
ATOM     32  H23 LSW d          42.517   7.435 107.500  0.00  0.00     0.033 H 
ATOM     33  H24 LSW d          42.869   6.126 108.678  0.00  0.00     0.033 H 
BRANCH  31  34
ATOM     34  CAR LSW d          41.269   5.668 107.279  0.00  0.00    -0.043 C 
ATOM     35  H21 LSW d          40.707   6.236 106.523  0.00  0.00     0.035 H 
ATOM     36  H22 LSW d          41.977   4.992 106.777  0.00  0.00     0.035 H 
BRANCH  34  37
ATOM     37  CAQ LSW d          40.275   4.821 108.092  0.00  0.00     0.080 C 
ATOM     38  H19 LSW d          40.397   5.055 109.160  0.00  0.00     0.075 H 
ATOM     39  H20 LSW d          39.252   5.070 107.775  0.00  0.00     0.075 H 
BRANCH  37  40
ATOM     40  NAA LSW d          40.504   3.353 107.887  0.00  0.00    -0.079 N 
ATOM     41  H6  LSW d          40.250   2.854 108.725  0.00  0.00     0.274 HD
ATOM     42  H7  LSW d          41.477   3.191 107.681  0.00  0.00     0.274 HD
ATOM     43  H8  LSW d          39.939   3.030 107.118  0.00  0.00     0.274 HD
ENDBRANCH  37  40
ENDBRANCH  34  37
ENDBRANCH  31  34
ENDBRANCH  28  31
ENDBRANCH   1  28
BRANCH   1  44
ATOM     44  CBC LSW d          42.561   9.399 109.338  0.00  0.00     0.249 C 
ATOM     45  OAD LSW d          43.759   9.227 109.110  0.00  0.00    -0.271 OA
ATOM     46  NAX LSW d          41.898  10.474 108.900  0.00  0.00    -0.344 N 
ATOM     47  H31 LSW d          40.918  10.562 109.073  0.00  0.00     0.163 HD
BRANCH  46  48
ATOM     48  CBJ LSW d          42.612  11.526 108.162  0.00  0.00     0.100 C 
ATOM     49  H33 LSW d          43.690  11.398 108.336  0.00  0.00     0.090 H 
BRANCH  48  50
ATOM     50  CAW LSW d          42.346  11.463 106.650  0.00  0.00    -0.011 C 
ATOM     51  H29 LSW d          42.882  12.300 106.178  0.00  0.00     0.044 H 
ATOM     52  H30 LSW d          42.752  10.511 106.276  0.00  0.00     0.044 H 
BRANCH  50  53
ATOM     53  CBE LSW d          40.926  11.543 106.240  0.00  0.00    -0.028 A 
ATOM     54  CAP LSW d          40.202  12.682 105.988  0.00  0.00    -0.015 A 
ATOM     55  NXZ LSW d          38.888  12.338 105.664  0.00  0.00    -0.365 N 
ATOM     56  H18 LSW d          40.592  13.697 106.033  0.00  0.00     0.112 H 
ATOM     57  CBF LSW d          38.768  10.973 105.708  0.00  0.00     0.042 A 
ATOM     58  H34 LSW d          38.134  13.001 105.432  0.00  0.00     0.165 HD
ATOM     59  CAN LSW d          37.656  10.163 105.465  0.00  0.00    -0.056 A 
ATOM     60  CBG LSW d          40.031  10.440 106.062  0.00  0.00    -0.002 A 
ATOM     61  CAJ LSW d          37.820   8.805 105.582  0.00  0.00    -0.081 A 
ATOM     62  H16 LSW d          36.697  10.592 105.193  0.00  0.00     0.086 H 
ATOM     63  CAK LSW d          39.065   8.239 105.930  0.00  0.00    -0.082 A 
ATOM     64  H12 LSW d          36.975   8.151 105.402  0.00  0.00     0.083 H 
ATOM     65  CAO LSW d          40.175   9.048 106.170  0.00  0.00    -0.070 A 
ATOM     66  H13 LSW d          39.160   7.162 106.012  0.00  0.00     0.083 H 
ATOM     67  H17 LSW d          41.131   8.611 106.436  0.00  0.00     0.084 H 
ENDBRANCH  50  53
ENDBRANCH  48  50
BRANCH  48  68
ATOM     68  CBB LSW d          42.183  12.910 108.667  0.00  0.00     0.197 C 
ATOM     69  OAC LSW d          41.214  12.993 109.464  0.00  0.00    -0.646 OA
ATOM     70  OAF LSW d          42.840  13.900 108.278  0.00  0.00    -0.646 OA
ENDBRANCH  48  68
ENDBRANCH  46  48
ENDBRANCH   1  44
TORSDOF 16
ENDMDL
