MODEL 1
REMARK VINA RESULT:      -8.0      0.000      0.000
REMARK  6 active torsions:
REMARK  status: ('A' for Active; 'I' for Inactive)
REMARK    1  A    between atoms: C10_2  and  C11_3 
REMARK    2  A    between atoms: C4_18  and  N9_17 
REMARK    3  A    between atoms: N9_17  and  C8_24 
REMARK    4  A    between atoms: C1_21  and  C18_22 
REMARK    5  A    between atoms: C8_24  and  C23_23 
REMARK    6  A    between atoms: C23_23  and  O24_25 
ROOT
ATOM      1  C2  PFQ d          13.201  -0.133  10.046  0.00  0.00     0.091 A 
ATOM      2  C10 PFQ d          17.342  -1.804   9.699  0.00  0.00     0.100 A 
ATOM      3  N1  PFQ d          14.397   0.126   9.543  0.00  0.00    -0.217 NA
ATOM      4  C6  PFQ d          15.407  -0.742   9.706  0.00  0.00     0.186 A 
ATOM      5  O6  PFQ d          16.699  -0.681   9.288  0.00  0.00    -0.289 OA
ATOM      6  C5  PFQ d          15.216  -1.930  10.409  0.00  0.00     0.077 A 
ATOM      7  C4  PFQ d          13.937  -2.167  10.925  0.00  0.00     0.140 A 
ATOM      8  N3  PFQ d          12.977  -1.248  10.717  0.00  0.00    -0.224 NA
ATOM      9  C1  PFQ d          16.442  -2.608  10.409  0.00  0.00     0.027 A 
ATOM     10  H1  PFQ d          12.396   0.578   9.907  0.00  0.00     0.146 H 
ENDROOT
BRANCH   2  11
ATOM     11  C11 PFQ d          18.685  -1.956   9.367  0.00  0.00    -0.001 A 
ATOM     12  C12 PFQ d          19.575  -2.781  10.052  0.00  0.00    -0.070 A 
ATOM     13  C13 PFQ d          20.899  -2.854   9.616  0.00  0.00    -0.082 A 
ATOM     14  H2  PFQ d          19.244  -3.357  10.909  0.00  0.00     0.084 H 
ATOM     15  C14 PFQ d          21.323  -2.121   8.506  0.00  0.00    -0.083 A 
ATOM     16  H3  PFQ d          21.605  -3.486  10.143  0.00  0.00     0.083 H 
ATOM     17  C15 PFQ d          20.433  -1.291   7.822  0.00  0.00    -0.082 A 
ATOM     18  H4  PFQ d          22.352  -2.196   8.173  0.00  0.00     0.083 H 
ATOM     19  C16 PFQ d          19.118  -1.239   8.254  0.00  0.00    -0.070 A 
ATOM     20  H5  PFQ d          20.764  -0.701   6.975  0.00  0.00     0.083 H 
ATOM     21  H6  PFQ d          18.408  -0.626   7.712  0.00  0.00     0.084 H 
ENDBRANCH   2  11
BRANCH   9  22
ATOM     22  C18 PFQ d          16.640  -3.855  11.025  0.00  0.00    -0.022 A 
ATOM     23  C19 PFQ d          16.875  -3.917  12.403  0.00  0.00    -0.072 A 
ATOM     24  C20 PFQ d          17.109  -5.128  13.060  0.00  0.00    -0.082 A 
ATOM     25  H7  PFQ d          16.875  -2.997  12.979  0.00  0.00     0.084 H 
ATOM     26  C21 PFQ d          17.113  -6.309  12.316  0.00  0.00    -0.083 A 
ATOM     27  H8  PFQ d          17.285  -5.150  14.129  0.00  0.00     0.083 H 
ATOM     28  C22 PFQ d          16.885  -6.251  10.928  0.00  0.00    -0.082 A 
ATOM     29  H9  PFQ d          17.291  -7.262  12.802  0.00  0.00     0.083 H 
ATOM     30  C17 PFQ d          16.653  -5.035  10.278  0.00  0.00    -0.072 A 
ATOM     31  H10 PFQ d          16.889  -7.169  10.351  0.00  0.00     0.083 H 
ATOM     32  H12 PFQ d          16.484  -5.008   9.208  0.00  0.00     0.084 H 
ENDBRANCH   9  22
BRANCH   7  33
ATOM     33  N9  PFQ d          13.637  -3.269  11.621  0.00  0.00    -0.372 N 
ATOM     34  H11 PFQ d          14.362  -3.981  11.788  0.00  0.00     0.161 HD
BRANCH  33  35
ATOM     35  C8  PFQ d          12.274  -3.474  12.151  0.00  0.00     0.013 C 
ATOM     36  H15 PFQ d          12.036  -4.548  12.138  0.00  0.00     0.067 H 
ATOM     37  H16 PFQ d          11.554  -2.931  11.520  0.00  0.00     0.067 H 
BRANCH  35  38
ATOM     38  C23 PFQ d          12.180  -2.951  13.592  0.00  0.00     0.031 C 
ATOM     39  H13 PFQ d          13.177  -2.980  14.056  0.00  0.00     0.076 H 
ATOM     40  H14 PFQ d          11.491  -3.587  14.166  0.00  0.00     0.076 H 
BRANCH  38  41
ATOM     41  O24 PFQ d          11.694  -1.602  13.592  0.00  0.00    -0.399 OA
ATOM     42  H17 PFQ d          12.405  -1.011  13.375  0.00  0.00     0.209 HD
ENDBRANCH  38  41
ENDBRANCH  35  38
ENDBRANCH  33  35
ENDBRANCH   7  33
TORSDOF 6
ENDMDL
MODEL 2
REMARK VINA RESULT:      -7.9      2.844      5.758
REMARK  6 active torsions:
REMARK  status: ('A' for Active; 'I' for Inactive)
REMARK    1  A    between atoms: C10_2  and  C11_3 
REMARK    2  A    between atoms: C4_18  and  N9_17 
REMARK    3  A    between atoms: N9_17  and  C8_24 
REMARK    4  A    between atoms: C1_21  and  C18_22 
REMARK    5  A    between atoms: C8_24  and  C23_23 
REMARK    6  A    between atoms: C23_23  and  O24_25 
ROOT
ATOM      1  C2  PFQ d          20.549  -1.425   7.986  0.00  0.00     0.091 A 
ATOM      2  C10 PFQ d          16.498  -1.964   9.819  0.00  0.00     0.100 A 
ATOM      3  N1  PFQ d          19.340  -0.889   8.034  0.00  0.00    -0.217 NA
ATOM      4  C6  PFQ d          18.376  -1.447   8.781  0.00  0.00     0.186 A 
ATOM      5  O6  PFQ d          17.082  -1.079   8.971  0.00  0.00    -0.289 OA
ATOM      6  C5  PFQ d          18.629  -2.603   9.519  0.00  0.00     0.077 A 
ATOM      7  C4  PFQ d          19.919  -3.138   9.443  0.00  0.00     0.140 A 
ATOM      8  N3  PFQ d          20.831  -2.517   8.672  0.00  0.00    -0.224 NA
ATOM      9  C1  PFQ d          17.439  -2.937  10.178  0.00  0.00     0.027 A 
ATOM     10  H1  PFQ d          21.316  -0.962   7.377  0.00  0.00     0.146 H 
ENDROOT
BRANCH   2  11
ATOM     11  C11 PFQ d          15.163  -1.769  10.163  0.00  0.00    -0.001 A 
ATOM     12  C12 PFQ d          14.373  -2.715  10.814  0.00  0.00    -0.070 A 
ATOM     13  C13 PFQ d          13.047  -2.396  11.112  0.00  0.00    -0.082 A 
ATOM     14  H2  PFQ d          14.782  -3.682  11.084  0.00  0.00     0.084 H 
ATOM     15  C14 PFQ d          12.524  -1.147  10.774  0.00  0.00    -0.083 A 
ATOM     16  H3  PFQ d          12.418  -3.125  11.611  0.00  0.00     0.083 H 
ATOM     17  C15 PFQ d          13.313  -0.201  10.118  0.00  0.00    -0.082 A 
ATOM     18  H4  PFQ d          11.495  -0.910  11.022  0.00  0.00     0.083 H 
ATOM     19  C16 PFQ d          14.632  -0.523   9.842  0.00  0.00    -0.070 A 
ATOM     20  H5  PFQ d          12.904   0.762   9.832  0.00  0.00     0.083 H 
ATOM     21  H6  PFQ d          15.266   0.215   9.365  0.00  0.00     0.084 H 
ENDBRANCH   2  11
BRANCH   9  22
ATOM     22  C18 PFQ d          17.306  -4.049  11.025  0.00  0.00    -0.022 A 
ATOM     23  C19 PFQ d          16.970  -5.295  10.484  0.00  0.00    -0.072 A 
ATOM     24  C20 PFQ d          16.795  -6.427  11.285  0.00  0.00    -0.082 A 
ATOM     25  H7  PFQ d          16.841  -5.385   9.411  0.00  0.00     0.084 H 
ATOM     26  C21 PFQ d          16.957  -6.308  12.667  0.00  0.00    -0.083 A 
ATOM     27  H8  PFQ d          16.538  -7.381  10.841  0.00  0.00     0.083 H 
ATOM     28  C22 PFQ d          17.288  -5.055  13.216  0.00  0.00    -0.082 A 
ATOM     29  H9  PFQ d          16.828  -7.171  13.309  0.00  0.00     0.083 H 
ATOM     30  C17 PFQ d          17.460  -3.927  12.408  0.00  0.00    -0.072 A 
ATOM     31  H10 PFQ d          17.412  -4.963  14.289  0.00  0.00     0.083 H 
ATOM     32  H12 PFQ d          17.710  -2.968  12.849  0.00  0.00     0.084 H 
ENDBRANCH   9  22
BRANCH   7  33
ATOM     33  N9  PFQ d          20.278  -4.245  10.102  0.00  0.00    -0.372 N 
ATOM     34  H11 PFQ d          20.025  -5.169   9.722  0.00  0.00     0.161 HD
BRANCH  33  35
ATOM     35  C8  PFQ d          21.031  -4.154  11.368  0.00  0.00     0.013 C 
ATOM     36  H15 PFQ d          20.509  -3.471  12.054  0.00  0.00     0.067 H 
ATOM     37  H16 PFQ d          22.040  -3.767  11.162  0.00  0.00     0.067 H 
BRANCH  35  38
ATOM     38  C23 PFQ d          21.143  -5.541  12.020  0.00  0.00     0.031 C 
ATOM     39  H13 PFQ d          20.874  -5.465  13.084  0.00  0.00     0.076 H 
ATOM     40  H14 PFQ d          22.177  -5.905  11.928  0.00  0.00     0.076 H 
BRANCH  38  41
ATOM     41  O24 PFQ d          20.256  -6.460  11.369  0.00  0.00    -0.399 OA
ATOM     42  H17 PFQ d          20.382  -6.407  10.429  0.00  0.00     0.209 HD
ENDBRANCH  38  41
ENDBRANCH  35  38
ENDBRANCH  33  35
ENDBRANCH   7  33
TORSDOF 6
ENDMDL
MODEL 3
REMARK VINA RESULT:      -7.8      1.333      1.972
REMARK  6 active torsions:
REMARK  status: ('A' for Active; 'I' for Inactive)
REMARK    1  A    between atoms: C10_2  and  C11_3 
REMARK    2  A    between atoms: C4_18  and  N9_17 
REMARK    3  A    between atoms: N9_17  and  C8_24 
REMARK    4  A    between atoms: C1_21  and  C18_22 
REMARK    5  A    between atoms: C8_24  and  C23_23 
REMARK    6  A    between atoms: C23_23  and  O24_25 
ROOT
ATOM      1  C2  PFQ d          15.360   0.304   9.104  0.00  0.00     0.091 A 
ATOM      2  C10 PFQ d          18.862  -2.380   9.871  0.00  0.00     0.100 A 
ATOM      3  N1  PFQ d          16.664   0.201   8.907  0.00  0.00    -0.217 NA
ATOM      4  C6  PFQ d          17.337  -0.871   9.351  0.00  0.00     0.186 A 
ATOM      5  O6  PFQ d          18.658  -1.181   9.269  0.00  0.00    -0.289 OA
ATOM      6  C5  PFQ d          16.676  -1.894  10.030  0.00  0.00     0.077 A 
ATOM      7  C4  PFQ d          15.297  -1.747  10.218  0.00  0.00     0.140 A 
ATOM      8  N3  PFQ d          14.695  -0.643   9.740  0.00  0.00    -0.224 NA
ATOM      9  C1  PFQ d          17.640  -2.854  10.364  0.00  0.00     0.027 A 
ATOM     10  H1  PFQ d          14.831   1.177   8.740  0.00  0.00     0.146 H 
ENDROOT
BRANCH   2  11
ATOM     11  C11 PFQ d          20.153  -2.899   9.893  0.00  0.00    -0.001 A 
ATOM     12  C12 PFQ d          20.841  -3.343   8.765  0.00  0.00    -0.070 A 
ATOM     13  C13 PFQ d          22.139  -3.835   8.918  0.00  0.00    -0.082 A 
ATOM     14  H2  PFQ d          20.377  -3.305   7.787  0.00  0.00     0.084 H 
ATOM     15  C14 PFQ d          22.741  -3.874  10.176  0.00  0.00    -0.083 A 
ATOM     16  H3  PFQ d          22.684  -4.191   8.051  0.00  0.00     0.083 H 
ATOM     17  C15 PFQ d          22.051  -3.433  11.307  0.00  0.00    -0.082 A 
ATOM     18  H4  PFQ d          23.753  -4.249  10.277  0.00  0.00     0.083 H 
ATOM     19  C16 PFQ d          20.771  -2.931  11.141  0.00  0.00    -0.070 A 
ATOM     20  H5  PFQ d          22.506  -3.484  12.290  0.00  0.00     0.083 H 
ATOM     21  H6  PFQ d          20.236  -2.554  12.005  0.00  0.00     0.084 H 
ENDBRANCH   2  11
BRANCH   9  22
ATOM     22  C18 PFQ d          17.347  -4.040  11.058  0.00  0.00    -0.022 A 
ATOM     23  C19 PFQ d          17.386  -4.051  12.457  0.00  0.00    -0.072 A 
ATOM     24  C20 PFQ d          17.134  -5.211  13.194  0.00  0.00    -0.082 A 
ATOM     25  H7  PFQ d          17.619  -3.132  12.984  0.00  0.00     0.084 H 
ATOM     26  C21 PFQ d          16.839  -6.393  12.513  0.00  0.00    -0.083 A 
ATOM     27  H8  PFQ d          17.167  -5.193  14.277  0.00  0.00     0.083 H 
ATOM     28  C22 PFQ d          16.806  -6.388  11.107  0.00  0.00    -0.082 A 
ATOM     29  H9  PFQ d          16.638  -7.306  13.063  0.00  0.00     0.083 H 
ATOM     30  C17 PFQ d          17.060  -5.224  10.375  0.00  0.00    -0.072 A 
ATOM     31  H10 PFQ d          16.577  -7.307  10.578  0.00  0.00     0.083 H 
ATOM     32  H12 PFQ d          17.036  -5.240   9.291  0.00  0.00     0.084 H 
ENDBRANCH   9  22
BRANCH   7  33
ATOM     33  N9  PFQ d          14.559  -2.659  10.859  0.00  0.00    -0.372 N 
ATOM     34  H11 PFQ d          15.013  -3.488  11.267  0.00  0.00     0.161 HD
BRANCH  33  35
ATOM     35  C8  PFQ d          13.098  -2.488  10.985  0.00  0.00     0.013 C 
ATOM     36  H15 PFQ d          12.610  -3.473  10.932  0.00  0.00     0.067 H 
ATOM     37  H16 PFQ d          12.734  -1.854  10.163  0.00  0.00     0.067 H 
BRANCH  35  38
ATOM     38  C23 PFQ d          12.755  -1.824  12.327  0.00  0.00     0.031 C 
ATOM     39  H13 PFQ d          13.541  -2.056  13.060  0.00  0.00     0.076 H 
ATOM     40  H14 PFQ d          11.791  -2.210  12.689  0.00  0.00     0.076 H 
BRANCH  38  41
ATOM     41  O24 PFQ d          12.665  -0.403  12.160  0.00  0.00    -0.399 OA
ATOM     42  H17 PFQ d          12.320  -0.013  12.955  0.00  0.00     0.209 HD
ENDBRANCH  38  41
ENDBRANCH  35  38
ENDBRANCH  33  35
ENDBRANCH   7  33
TORSDOF 6
ENDMDL
MODEL 4
REMARK VINA RESULT:      -7.0      3.511      7.198
REMARK  6 active torsions:
REMARK  status: ('A' for Active; 'I' for Inactive)
REMARK    1  A    between atoms: C10_2  and  C11_3 
REMARK    2  A    between atoms: C4_18  and  N9_17 
REMARK    3  A    between atoms: N9_17  and  C8_24 
REMARK    4  A    between atoms: C1_21  and  C18_22 
REMARK    5  A    between atoms: C8_24  and  C23_23 
REMARK    6  A    between atoms: C23_23  and  O24_25 
ROOT
ATOM      1  C2  PFQ d          21.813  -5.207  11.213  0.00  0.00     0.091 A 
ATOM      2  C10 PFQ d          17.517  -4.233  12.021  0.00  0.00     0.100 A 
ATOM      3  N1  PFQ d          20.790  -5.537  11.985  0.00  0.00    -0.217 NA
ATOM      4  C6  PFQ d          19.606  -4.923  11.848  0.00  0.00     0.186 A 
ATOM      5  O6  PFQ d          18.440  -5.093  12.524  0.00  0.00    -0.289 OA
ATOM      6  C5  PFQ d          19.431  -3.924  10.891  0.00  0.00     0.077 A 
ATOM      7  C4  PFQ d          20.536  -3.604  10.094  0.00  0.00     0.140 A 
ATOM      8  N3  PFQ d          21.690  -4.268  10.293  0.00  0.00    -0.224 NA
ATOM      9  C1  PFQ d          18.107  -3.481  10.998  0.00  0.00     0.027 A 
ATOM     10  H1  PFQ d          22.763  -5.713  11.338  0.00  0.00     0.146 H 
ENDROOT
BRANCH   2  11
ATOM     11  C11 PFQ d          16.236  -4.245  12.565  0.00  0.00    -0.001 A 
ATOM     12  C12 PFQ d          15.564  -3.111  13.018  0.00  0.00    -0.070 A 
ATOM     13  C13 PFQ d          14.275  -3.253  13.537  0.00  0.00    -0.082 A 
ATOM     14  H2  PFQ d          16.033  -2.136  12.968  0.00  0.00     0.084 H 
ATOM     15  C14 PFQ d          13.666  -4.508  13.592  0.00  0.00    -0.083 A 
ATOM     16  H3  PFQ d          13.743  -2.382  13.900  0.00  0.00     0.083 H 
ATOM     17  C15 PFQ d          14.340  -5.645  13.143  0.00  0.00    -0.082 A 
ATOM     18  H4  PFQ d          12.661  -4.601  13.988  0.00  0.00     0.083 H 
ATOM     19  C16 PFQ d          15.611  -5.489  12.615  0.00  0.00    -0.070 A 
ATOM     20  H5  PFQ d          13.880  -6.624  13.206  0.00  0.00     0.083 H 
ATOM     21  H6  PFQ d          16.133  -6.357  12.230  0.00  0.00     0.084 H 
ENDBRANCH   2  11
BRANCH   9  22
ATOM     22  C18 PFQ d          17.557  -2.473  10.189  0.00  0.00    -0.022 A 
ATOM     23  C19 PFQ d          17.979  -1.148  10.349  0.00  0.00    -0.072 A 
ATOM     24  C20 PFQ d          17.442  -0.104   9.592  0.00  0.00    -0.082 A 
ATOM     25  H7  PFQ d          18.746  -0.926  11.084  0.00  0.00     0.084 H 
ATOM     26  C21 PFQ d          16.452  -0.392   8.651  0.00  0.00    -0.083 A 
ATOM     27  H8  PFQ d          17.789   0.913   9.733  0.00  0.00     0.083 H 
ATOM     28  C22 PFQ d          16.020  -1.722   8.491  0.00  0.00    -0.082 A 
ATOM     29  H9  PFQ d          16.021   0.401   8.050  0.00  0.00     0.083 H 
ATOM     30  C17 PFQ d          16.561  -2.761   9.253  0.00  0.00    -0.072 A 
ATOM     31  H10 PFQ d          15.250  -1.944   7.760  0.00  0.00     0.083 H 
ATOM     32  H12 PFQ d          16.211  -3.779   9.120  0.00  0.00     0.084 H 
ENDBRANCH   9  22
BRANCH   7  33
ATOM     33  N9  PFQ d          20.490  -2.660   9.148  0.00  0.00    -0.372 N 
ATOM     34  H11 PFQ d          19.699  -2.001   9.123  0.00  0.00     0.161 HD
BRANCH  33  35
ATOM     35  C8  PFQ d          21.563  -2.555   8.140  0.00  0.00     0.013 C 
ATOM     36  H15 PFQ d          21.476  -3.389   7.427  0.00  0.00     0.067 H 
ATOM     37  H16 PFQ d          22.540  -2.603   8.643  0.00  0.00     0.067 H 
BRANCH  35  38
ATOM     38  C23 PFQ d          21.450  -1.225   7.379  0.00  0.00     0.031 C 
ATOM     39  H13 PFQ d          20.550  -1.242   6.747  0.00  0.00     0.076 H 
ATOM     40  H14 PFQ d          22.339  -1.089   6.747  0.00  0.00     0.076 H 
BRANCH  38  41
ATOM     41  O24 PFQ d          21.357  -0.137   8.309  0.00  0.00    -0.399 OA
ATOM     42  H17 PFQ d          20.445   0.015   8.526  0.00  0.00     0.209 HD
ENDBRANCH  38  41
ENDBRANCH  35  38
ENDBRANCH  33  35
ENDBRANCH   7  33
TORSDOF 6
ENDMDL
MODEL 5
REMARK VINA RESULT:      -6.6      2.272      4.300
REMARK  6 active torsions:
REMARK  status: ('A' for Active; 'I' for Inactive)
REMARK    1  A    between atoms: C10_2  and  C11_3 
REMARK    2  A    between atoms: C4_18  and  N9_17 
REMARK    3  A    between atoms: N9_17  and  C8_24 
REMARK    4  A    between atoms: C1_21  and  C18_22 
REMARK    5  A    between atoms: C8_24  and  C23_23 
REMARK    6  A    between atoms: C23_23  and  O24_25 
ROOT
ATOM      1  C2  PFQ d          16.235  -6.380  13.538  0.00  0.00     0.091 A 
ATOM      2  C10 PFQ d          19.247  -4.123  11.110  0.00  0.00     0.100 A 
ATOM      3  N1  PFQ d          17.521  -6.351  13.225  0.00  0.00    -0.217 NA
ATOM      4  C6  PFQ d          17.999  -5.414  12.394  0.00  0.00     0.186 A 
ATOM      5  O6  PFQ d          19.261  -5.200  11.937  0.00  0.00    -0.289 OA
ATOM      6  C5  PFQ d          17.151  -4.454  11.843  0.00  0.00     0.077 A 
ATOM      7  C4  PFQ d          15.799  -4.519  12.198  0.00  0.00     0.140 A 
ATOM      8  N3  PFQ d          15.398  -5.489  13.040  0.00  0.00    -0.224 NA
ATOM      9  C1  PFQ d          17.937  -3.634  11.025  0.00  0.00     0.027 A 
ATOM     10  H1  PFQ d          15.865  -7.145  14.210  0.00  0.00     0.146 H 
ENDROOT
BRANCH   2  11
ATOM     11  C11 PFQ d          20.446  -3.717  10.532  0.00  0.00    -0.001 A 
ATOM     12  C12 PFQ d          21.635  -3.532  11.236  0.00  0.00    -0.070 A 
ATOM     13  C13 PFQ d          22.775  -3.129  10.539  0.00  0.00    -0.082 A 
ATOM     14  H2  PFQ d          21.673  -3.699  12.306  0.00  0.00     0.084 H 
ATOM     15  C14 PFQ d          22.729  -2.924   9.159  0.00  0.00    -0.083 A 
ATOM     16  H3  PFQ d          23.706  -2.974  11.074  0.00  0.00     0.083 H 
ATOM     17  C15 PFQ d          21.538  -3.105   8.454  0.00  0.00    -0.082 A 
ATOM     18  H4  PFQ d          23.626  -2.622   8.630  0.00  0.00     0.083 H 
ATOM     19  C16 PFQ d          20.417  -3.521   9.153  0.00  0.00    -0.070 A 
ATOM     20  H5  PFQ d          21.492  -2.924   7.386  0.00  0.00     0.083 H 
ATOM     21  H6  PFQ d          19.494  -3.699   8.614  0.00  0.00     0.084 H 
ENDBRANCH   2  11
BRANCH   9  22
ATOM     22  C18 PFQ d          17.429  -2.545  10.298  0.00  0.00    -0.022 A 
ATOM     23  C19 PFQ d          16.492  -2.767   9.282  0.00  0.00    -0.072 A 
ATOM     24  C20 PFQ d          15.978  -1.723   8.509  0.00  0.00    -0.082 A 
ATOM     25  H7  PFQ d          16.156  -3.780   9.089  0.00  0.00     0.084 H 
ATOM     26  C21 PFQ d          16.416  -0.421   8.755  0.00  0.00    -0.083 A 
ATOM     27  H8  PFQ d          15.251  -1.921   7.730  0.00  0.00     0.083 H 
ATOM     28  C22 PFQ d          17.363  -0.193   9.771  0.00  0.00    -0.082 A 
ATOM     29  H9  PFQ d          16.031   0.407   8.170  0.00  0.00     0.083 H 
ATOM     30  C17 PFQ d          17.874  -1.243  10.540  0.00  0.00    -0.072 A 
ATOM     31  H10 PFQ d          17.704   0.819   9.961  0.00  0.00     0.083 H 
ATOM     32  H12 PFQ d          18.608  -1.050  11.315  0.00  0.00     0.084 H 
ENDBRANCH   9  22
BRANCH   7  33
ATOM     33  N9  PFQ d          14.891  -3.656  11.728  0.00  0.00    -0.372 N 
ATOM     34  H11 PFQ d          14.690  -3.627  10.719  0.00  0.00     0.161 HD
BRANCH  33  35
ATOM     35  C8  PFQ d          14.176  -2.747  12.644  0.00  0.00     0.013 C 
ATOM     36  H15 PFQ d          14.392  -1.705  12.365  0.00  0.00     0.067 H 
ATOM     37  H16 PFQ d          14.516  -2.928  13.675  0.00  0.00     0.067 H 
BRANCH  35  38
ATOM     38  C23 PFQ d          12.661  -2.990  12.560  0.00  0.00     0.031 C 
ATOM     39  H13 PFQ d          12.291  -2.648  11.582  0.00  0.00     0.076 H 
ATOM     40  H14 PFQ d          12.156  -2.429  13.360  0.00  0.00     0.076 H 
BRANCH  38  41
ATOM     41  O24 PFQ d          12.382  -4.388  12.711  0.00  0.00    -0.399 OA
ATOM     42  H17 PFQ d          12.763  -4.700  13.523  0.00  0.00     0.209 HD
ENDBRANCH  38  41
ENDBRANCH  35  38
ENDBRANCH  33  35
ENDBRANCH   7  33
TORSDOF 6
ENDMDL
MODEL 6
REMARK VINA RESULT:      -6.0      3.040      7.046
REMARK  6 active torsions:
REMARK  status: ('A' for Active; 'I' for Inactive)
REMARK    1  A    between atoms: C10_2  and  C11_3 
REMARK    2  A    between atoms: C4_18  and  N9_17 
REMARK    3  A    between atoms: N9_17  and  C8_24 
REMARK    4  A    between atoms: C1_21  and  C18_22 
REMARK    5  A    between atoms: C8_24  and  C23_23 
REMARK    6  A    between atoms: C23_23  and  O24_25 
ROOT
ATOM      1  C2  PFQ d          19.912  -6.099  12.255  0.00  0.00     0.091 A 
ATOM      2  C10 PFQ d          15.976  -3.968  12.104  0.00  0.00     0.100 A 
ATOM      3  N1  PFQ d          18.684  -6.128  12.749  0.00  0.00    -0.217 NA
ATOM      4  C6  PFQ d          17.779  -5.211  12.378  0.00  0.00     0.186 A 
ATOM      5  O6  PFQ d          16.484  -5.046  12.755  0.00  0.00    -0.289 OA
ATOM      6  C5  PFQ d          18.114  -4.209  11.468  0.00  0.00     0.077 A 
ATOM      7  C4  PFQ d          19.422  -4.214  10.968  0.00  0.00     0.140 A 
ATOM      8  N3  PFQ d          20.270  -5.170  11.388  0.00  0.00    -0.224 NA
ATOM      9  C1  PFQ d          16.974  -3.416  11.292  0.00  0.00     0.027 A 
ATOM     10  H1  PFQ d          20.631  -6.848  12.565  0.00  0.00     0.146 H 
ENDROOT
BRANCH   2  11
ATOM     11  C11 PFQ d          14.648  -3.621  12.336  0.00  0.00    -0.001 A 
ATOM     12  C12 PFQ d          13.557  -4.229  11.717  0.00  0.00    -0.070 A 
ATOM     13  C13 PFQ d          12.270  -3.795  12.041  0.00  0.00    -0.082 A 
ATOM     14  H2  PFQ d          13.706  -5.026  10.998  0.00  0.00     0.084 H 
ATOM     15  C14 PFQ d          12.078  -2.777  12.976  0.00  0.00    -0.083 A 
ATOM     16  H3  PFQ d          11.412  -4.254  11.563  0.00  0.00     0.083 H 
ATOM     17  C15 PFQ d          13.170  -2.164  13.592  0.00  0.00    -0.082 A 
ATOM     18  H4  PFQ d          11.072  -2.458  13.225  0.00  0.00     0.083 H 
ATOM     19  C16 PFQ d          14.441  -2.614  13.276  0.00  0.00    -0.070 A 
ATOM     20  H5  PFQ d          13.026  -1.356  14.301  0.00  0.00     0.083 H 
ATOM     21  H6  PFQ d          15.297  -2.172  13.772  0.00  0.00     0.084 H 
ENDBRANCH   2  11
BRANCH   9  22
ATOM     22  C18 PFQ d          16.926  -2.302  10.438  0.00  0.00    -0.022 A 
ATOM     23  C19 PFQ d          16.162  -2.358   9.267  0.00  0.00    -0.072 A 
ATOM     24  C20 PFQ d          16.105  -1.289   8.369  0.00  0.00    -0.082 A 
ATOM     25  H7  PFQ d          15.597  -3.259   9.051  0.00  0.00     0.084 H 
ATOM     26  C21 PFQ d          16.837  -0.133   8.648  0.00  0.00    -0.083 A 
ATOM     27  H8  PFQ d          15.503  -1.356   7.471  0.00  0.00     0.083 H 
ATOM     28  C22 PFQ d          17.612  -0.075   9.821  0.00  0.00    -0.082 A 
ATOM     29  H9  PFQ d          16.808   0.710   7.967  0.00  0.00     0.083 H 
ATOM     30  C17 PFQ d          17.665  -1.149  10.714  0.00  0.00    -0.072 A 
ATOM     31  H10 PFQ d          18.181   0.823  10.036  0.00  0.00     0.083 H 
ATOM     32  H12 PFQ d          18.273  -1.089  11.610  0.00  0.00     0.084 H 
ENDBRANCH   9  22
BRANCH   7  33
ATOM     33  N9  PFQ d          19.860  -3.301  10.095  0.00  0.00    -0.372 N 
ATOM     34  H11 PFQ d          19.440  -2.360  10.086  0.00  0.00     0.161 HD
BRANCH  33  35
ATOM     35  C8  PFQ d          20.939  -3.630   9.143  0.00  0.00     0.013 C 
ATOM     36  H15 PFQ d          20.595  -4.422   8.462  0.00  0.00     0.067 H 
ATOM     37  H16 PFQ d          21.820  -3.982   9.701  0.00  0.00     0.067 H 
BRANCH  35  38
ATOM     38  C23 PFQ d          21.321  -2.388   8.323  0.00  0.00     0.031 C 
ATOM     39  H13 PFQ d          21.113  -2.576   7.259  0.00  0.00     0.076 H 
ATOM     40  H14 PFQ d          22.393  -2.179   8.456  0.00  0.00     0.076 H 
BRANCH  38  41
ATOM     41  O24 PFQ d          20.559  -1.257   8.765  0.00  0.00    -0.399 OA
ATOM     42  H17 PFQ d          21.145  -0.604   9.127  0.00  0.00     0.209 HD
ENDBRANCH  38  41
ENDBRANCH  35  38
ENDBRANCH  33  35
ENDBRANCH   7  33
TORSDOF 6
ENDMDL
