MODEL 1
REMARK VINA RESULT:      -9.1      0.000      0.000
REMARK  7 active torsions:
REMARK  status: ('A' for Active; 'I' for Inactive)
REMARK    1  A    between atoms: C1_1  and  C6_6 
REMARK    2  A    between atoms: C7_7  and  C2_2 
REMARK    3  A    between atoms: N4_4  and  C33_33 
REMARK       I    between atoms: C6_6  and  N11_11 
REMARK       I    between atoms: N8_8  and  C7_7 
REMARK    4  A    between atoms: C19_19  and  N8_8 
REMARK    5  A    between atoms: N11_11  and  C12_12 
REMARK    6  A    between atoms: N25_25  and  C21_21 
REMARK    7  A    between atoms: C33_33  and  C34_34 
ROOT
ATOM      1  C1  XBV d           8.360  67.736   3.954  0.00  0.00     0.060 C 
ATOM      2  C2  XBV d           7.512  67.294   2.751  0.00  0.00     0.060 C 
ATOM      3  C3  XBV d           6.470  68.421   2.577  0.00  0.00     0.096 C 
ATOM      4  N4  XBV d           7.242  69.624   3.019  0.00  0.00    -0.064 N 
ATOM      5  C5  XBV d           8.056  69.229   4.195  0.00  0.00     0.096 C 
ATOM      6  H1  XBV d           8.027  67.172   4.838  0.00  0.00     0.058 H 
ATOM      7  H2  XBV d           8.133  67.200   1.848  0.00  0.00     0.058 H 
ATOM      8  H3  XBV d           5.590  68.253   3.216  0.00  0.00     0.077 H 
ATOM      9  H4  XBV d           6.151  68.512   1.529  0.00  0.00     0.077 H 
ATOM     10  H5  XBV d           7.850  69.925   2.273  0.00  0.00     0.280 HD
ATOM     11  H6  XBV d           8.986  69.815   4.241  0.00  0.00     0.077 H 
ATOM     12  H7  XBV d           7.489  69.367   5.127  0.00  0.00     0.077 H 
ENDROOT
BRANCH   2  13
ATOM     13  C7  XBV d           6.844  65.968   3.045  0.00  0.00     0.229 C 
ATOM     14  N8  XBV d           7.636  64.934   2.952  0.00  0.00    -0.324 N 
ATOM     15  H8  XBV d           8.598  65.114   2.744  0.00  0.00     0.169 HD
ATOM     16  O9  XBV d           5.679  65.874   3.400  0.00  0.00    -0.273 OA
BRANCH  14  17
ATOM     17  C19 XBV d           7.254  63.584   3.117  0.00  0.00     0.073 A 
ATOM     18  C20 XBV d           6.713  63.059   4.296  0.00  0.00    -0.052 A 
ATOM     19  C23 XBV d           6.426  61.692   4.341  0.00  0.00    -0.054 A 
ATOM     20  H13 XBV d           6.522  63.695   5.152  0.00  0.00     0.087 H 
ATOM     21  C21 XBV d           6.733  60.895   3.234  0.00  0.00     0.045 A 
ATOM     22  H15 XBV d           5.971  61.255   5.222  0.00  0.00     0.087 H 
ATOM     23  C22 XBV d           7.282  61.428   2.058  0.00  0.00    -0.017 A 
ATOM     24  C24 XBV d           7.498  62.811   2.016  0.00  0.00     0.145 A 
ATOM     25  H14 XBV d           7.530  60.794   1.215  0.00  0.00     0.091 H 
ATOM     26  F32 XBV d           8.046  63.347   0.915  0.00  0.00    -0.204 F 
BRANCH  21  27
ATOM     27  N25 XBV d           6.471  59.492   3.216  0.00  0.00    -0.290 N 
ATOM     28  C26 XBV d           7.408  58.600   3.761  0.00  0.00    -0.011 A 
ATOM     29  C29 XBV d           7.191  57.256   3.727  0.00  0.00    -0.067 A 
ATOM     30  H16 XBV d           8.318  58.988   4.218  0.00  0.00     0.112 H 
ATOM     31  C27 XBV d           6.018  56.740   3.163  0.00  0.00    -0.076 A 
ATOM     32  H19 XBV d           7.935  56.577   4.141  0.00  0.00     0.085 H 
ATOM     33  C28 XBV d           5.082  57.597   2.624  0.00  0.00    -0.017 A 
ATOM     34  H17 XBV d           5.845  55.665   3.149  0.00  0.00     0.083 H 
ATOM     35  C30 XBV d           5.284  59.023   2.638  0.00  0.00     0.252 A 
ATOM     36  H18 XBV d           4.175  57.189   2.181  0.00  0.00     0.092 H 
ATOM     37  O31 XBV d           4.472  59.815   2.143  0.00  0.00    -0.268 OA
ENDBRANCH  21  27
ENDBRANCH  14  17
ENDBRANCH   2  13
BRANCH   1  38
ATOM     38  C6  XBV d           9.827  67.439   3.766  0.00  0.00     0.230 C 
ATOM     39  O10 XBV d          10.598  68.246   3.270  0.00  0.00    -0.273 OA
ATOM     40  N11 XBV d          10.256  66.267   4.287  0.00  0.00    -0.311 N 
ATOM     41  H9  XBV d           9.597  65.781   4.861  0.00  0.00     0.170 HD
BRANCH  40  42
ATOM     42  C12 XBV d          11.494  65.647   4.132  0.00  0.00     0.129 A 
ATOM     43  N13 XBV d          12.438  65.822   5.070  0.00  0.00    -0.242 NA
ATOM     44  C16 XBV d          13.714  65.382   4.898  0.00  0.00     0.025 A 
ATOM     45  C14 XBV d          14.090  64.763   3.690  0.00  0.00     0.051 A 
ATOM     46  H11 XBV d          14.442  65.509   5.691  0.00  0.00     0.117 H 
ATOM     47  C15 XBV d          13.119  64.590   2.684  0.00  0.00    -0.057 A 
ATOM     48 CL1  XBV d          15.730  64.282   3.386  0.00  0.00    -0.083 Cl
ATOM     49  C17 XBV d          11.820  65.054   2.903  0.00  0.00    -0.037 A 
ATOM     50  H10 XBV d          13.377  64.102   1.751  0.00  0.00     0.086 H 
ATOM     51  H12 XBV d          11.068  64.956   2.129  0.00  0.00     0.089 H 
ENDBRANCH  40  42
ENDBRANCH   1  38
BRANCH   4  52
ATOM     52  C33 XBV d           6.338  70.732   3.372  0.00  0.00     0.137 C 
ATOM     53  H20 XBV d           6.113  70.681   4.447  0.00  0.00     0.084 H 
ATOM     54  H21 XBV d           5.407  70.629   2.796  0.00  0.00     0.084 H 
BRANCH  52  55
ATOM     55  C34 XBV d           6.968  72.090   3.060  0.00  0.00     0.231 C 
ATOM     56  F35 XBV d           7.724  72.589   4.126  0.00  0.00    -0.213 F 
ATOM     57  F36 XBV d           7.872  71.888   2.038  0.00  0.00    -0.213 F 
ATOM     58  H22 XBV d           6.188  72.811   2.773  0.00  0.00     0.147 H 
ENDBRANCH  52  55
ENDBRANCH   4  52
TORSDOF 7
ENDMDL
MODEL 2
REMARK VINA RESULT:      -7.5      3.663      5.898
REMARK  7 active torsions:
REMARK  status: ('A' for Active; 'I' for Inactive)
REMARK    1  A    between atoms: C1_1  and  C6_6 
REMARK    2  A    between atoms: C7_7  and  C2_2 
REMARK    3  A    between atoms: N4_4  and  C33_33 
REMARK       I    between atoms: C6_6  and  N11_11 
REMARK       I    between atoms: N8_8  and  C7_7 
REMARK    4  A    between atoms: C19_19  and  N8_8 
REMARK    5  A    between atoms: N11_11  and  C12_12 
REMARK    6  A    between atoms: N25_25  and  C21_21 
REMARK    7  A    between atoms: C33_33  and  C34_34 
ROOT
ATOM      1  C1  XBV d          10.024  66.351   2.084  0.00  0.00     0.060 C 
ATOM      2  C2  XBV d           9.984  65.538   3.387  0.00  0.00     0.060 C 
ATOM      3  C3  XBV d          11.320  64.766   3.403  0.00  0.00     0.096 C 
ATOM      4  N4  XBV d          12.238  65.725   2.711  0.00  0.00    -0.064 N 
ATOM      5  C5  XBV d          11.485  66.336   1.589  0.00  0.00     0.096 C 
ATOM      6  H1  XBV d           9.404  65.836   1.335  0.00  0.00     0.058 H 
ATOM      7  H2  XBV d           9.911  66.204   4.261  0.00  0.00     0.058 H 
ATOM      8  H3  XBV d          11.241  63.818   2.851  0.00  0.00     0.077 H 
ATOM      9  H4  XBV d          11.654  64.564   4.432  0.00  0.00     0.077 H 
ATOM     10  H5  XBV d          12.522  66.443   3.359  0.00  0.00     0.280 HD
ATOM     11  H6  XBV d          11.841  67.359   1.391  0.00  0.00     0.077 H 
ATOM     12  H7  XBV d          11.583  65.730   0.676  0.00  0.00     0.077 H 
ENDROOT
BRANCH   2  13
ATOM     13  C7  XBV d           8.802  64.593   3.374  0.00  0.00     0.229 C 
ATOM     14  N8  XBV d           9.124  63.327   3.394  0.00  0.00    -0.324 N 
ATOM     15  H8  XBV d          10.097  63.106   3.462  0.00  0.00     0.169 HD
ATOM     16  O9  XBV d           7.642  64.976   3.403  0.00  0.00    -0.273 OA
BRANCH  14  17
ATOM     17  C19 XBV d           8.220  62.244   3.330  0.00  0.00     0.073 A 
ATOM     18  C20 XBV d           7.345  61.888   4.361  0.00  0.00    -0.052 A 
ATOM     19  C23 XBV d           6.538  60.760   4.185  0.00  0.00    -0.054 A 
ATOM     20  H13 XBV d           7.294  62.471   5.273  0.00  0.00     0.087 H 
ATOM     21  C21 XBV d           6.668  60.006   3.015  0.00  0.00     0.045 A 
ATOM     22  H15 XBV d           5.820  60.474   4.946  0.00  0.00     0.087 H 
ATOM     23  C22 XBV d           7.553  60.365   1.988  0.00  0.00    -0.017 A 
ATOM     24  C24 XBV d           8.302  61.537   2.162  0.00  0.00     0.145 A 
ATOM     25  H14 XBV d           7.655  59.761   1.095  0.00  0.00     0.091 H 
ATOM     26  F32 XBV d           9.175  61.893   1.209  0.00  0.00    -0.204 F 
BRANCH  21  27
ATOM     27  N25 XBV d           5.879  58.841   2.775  0.00  0.00    -0.290 N 
ATOM     28  C26 XBV d           4.669  58.951   2.073  0.00  0.00    -0.011 A 
ATOM     29  C29 XBV d           3.886  57.856   1.859  0.00  0.00    -0.067 A 
ATOM     30  H16 XBV d           4.352  59.922   1.694  0.00  0.00     0.112 H 
ATOM     31  C27 XBV d           4.287  56.596   2.320  0.00  0.00    -0.076 A 
ATOM     32  H19 XBV d           2.942  57.962   1.326  0.00  0.00     0.085 H 
ATOM     33  C28 XBV d           5.473  56.464   3.008  0.00  0.00    -0.017 A 
ATOM     34  H17 XBV d           3.662  55.724   2.135  0.00  0.00     0.083 H 
ATOM     35  C30 XBV d           6.320  57.603   3.257  0.00  0.00     0.252 A 
ATOM     36  H18 XBV d           5.776  55.482   3.370  0.00  0.00     0.092 H 
ATOM     37  O31 XBV d           7.380  57.517   3.891  0.00  0.00    -0.268 OA
ENDBRANCH  21  27
ENDBRANCH  14  17
ENDBRANCH   2  13
BRANCH   1  38
ATOM     38  C6  XBV d           9.454  67.738   2.250  0.00  0.00     0.230 C 
ATOM     39  O10 XBV d          10.159  68.735   2.267  0.00  0.00    -0.273 OA
ATOM     40  N11 XBV d           8.104  67.816   2.263  0.00  0.00    -0.311 N 
ATOM     41  H9  XBV d           7.619  66.975   2.024  0.00  0.00     0.170 HD
BRANCH  40  42
ATOM     42  C12 XBV d           7.299  68.912   2.563  0.00  0.00     0.129 A 
ATOM     43  N13 XBV d           6.854  69.075   3.821  0.00  0.00    -0.242 NA
ATOM     44  C16 XBV d           5.936  70.025   4.141  0.00  0.00     0.025 A 
ATOM     45  C14 XBV d           5.388  70.845   3.135  0.00  0.00     0.051 A 
ATOM     46  H11 XBV d           5.626  70.153   5.172  0.00  0.00     0.117 H 
ATOM     47  C15 XBV d           5.825  70.676   1.806  0.00  0.00    -0.057 A 
ATOM     48 CL1  XBV d           4.138  71.999   3.482  0.00  0.00    -0.083 Cl
ATOM     49  C17 XBV d           6.772  69.689   1.521  0.00  0.00    -0.037 A 
ATOM     50  H10 XBV d           5.432  71.304   1.015  0.00  0.00     0.086 H 
ATOM     51  H12 XBV d           7.098  69.525   0.501  0.00  0.00     0.089 H 
ENDBRANCH  40  42
ENDBRANCH   1  38
BRANCH   4  52
ATOM     52  C33 XBV d          13.438  65.037   2.208  0.00  0.00     0.137 C 
ATOM     53  H20 XBV d          14.095  65.774   1.721  0.00  0.00     0.084 H 
ATOM     54  H21 XBV d          13.133  64.277   1.474  0.00  0.00     0.084 H 
BRANCH  52  55
ATOM     55  C34 XBV d          14.210  64.356   3.339  0.00  0.00     0.231 C 
ATOM     56  F35 XBV d          15.283  63.590   2.872  0.00  0.00    -0.213 F 
ATOM     57  F36 XBV d          14.781  65.358   4.095  0.00  0.00    -0.213 F 
ATOM     58  H22 XBV d          13.529  63.735   3.940  0.00  0.00     0.147 H 
ENDBRANCH  52  55
ENDBRANCH   4  52
TORSDOF 7
ENDMDL
MODEL 3
REMARK VINA RESULT:      -6.5      2.828      8.770
REMARK  7 active torsions:
REMARK  status: ('A' for Active; 'I' for Inactive)
REMARK    1  A    between atoms: C1_1  and  C6_6 
REMARK    2  A    between atoms: C7_7  and  C2_2 
REMARK    3  A    between atoms: N4_4  and  C33_33 
REMARK       I    between atoms: C6_6  and  N11_11 
REMARK       I    between atoms: N8_8  and  C7_7 
REMARK    4  A    between atoms: C19_19  and  N8_8 
REMARK    5  A    between atoms: N11_11  and  C12_12 
REMARK    6  A    between atoms: N25_25  and  C21_21 
REMARK    7  A    between atoms: C33_33  and  C34_34 
ROOT
ATOM      1  C1  XBV d           6.770  61.733   1.488  0.00  0.00     0.060 C 
ATOM      2  C2  XBV d           5.934  62.074   2.732  0.00  0.00     0.060 C 
ATOM      3  C3  XBV d           4.735  61.103   2.672  0.00  0.00     0.096 C 
ATOM      4  N4  XBV d           5.349  59.896   2.034  0.00  0.00    -0.064 N 
ATOM      5  C5  XBV d           6.268  60.369   0.970  0.00  0.00     0.096 C 
ATOM      6  H1  XBV d           6.565  62.489   0.716  0.00  0.00     0.058 H 
ATOM      7  H2  XBV d           6.517  61.912   3.651  0.00  0.00     0.058 H 
ATOM      8  H3  XBV d           3.921  61.511   2.055  0.00  0.00     0.077 H 
ATOM      9  H4  XBV d           4.354  60.874   3.678  0.00  0.00     0.077 H 
ATOM     10  H5  XBV d           5.870  59.380   2.725  0.00  0.00     0.280 HD
ATOM     11  H6  XBV d           7.107  59.669   0.838  0.00  0.00     0.077 H 
ATOM     12  H7  XBV d           5.734  60.486   0.015  0.00  0.00     0.077 H 
ENDROOT
BRANCH   2  13
ATOM     13  C7  XBV d           5.478  63.516   2.672  0.00  0.00     0.229 C 
ATOM     14  N8  XBV d           6.391  64.385   3.013  0.00  0.00    -0.324 N 
ATOM     15  H8  XBV d           7.300  64.028   3.233  0.00  0.00     0.169 HD
ATOM     16  O9  XBV d           4.370  63.848   2.279  0.00  0.00    -0.273 OA
BRANCH  14  17
ATOM     17  C19 XBV d           6.210  65.783   3.099  0.00  0.00     0.073 A 
ATOM     18  C20 XBV d           6.110  66.632   1.992  0.00  0.00    -0.052 A 
ATOM     19  C23 XBV d           5.983  68.006   2.220  0.00  0.00    -0.054 A 
ATOM     20  H13 XBV d           6.131  66.236   0.984  0.00  0.00     0.087 H 
ATOM     21  C21 XBV d           6.010  68.483   3.534  0.00  0.00     0.045 A 
ATOM     22  H15 XBV d           5.865  68.692   1.390  0.00  0.00     0.087 H 
ATOM     23  C22 XBV d           6.117  67.625   4.639  0.00  0.00    -0.017 A 
ATOM     24  C24 XBV d           6.176  66.249   4.384  0.00  0.00     0.145 A 
ATOM     25  H14 XBV d           6.154  68.012   5.651  0.00  0.00     0.091 H 
ATOM     26  F32 XBV d           6.305  65.405   5.419  0.00  0.00    -0.204 F 
BRANCH  21  27
ATOM     27  N25 XBV d           5.890  69.872   3.837  0.00  0.00    -0.290 N 
ATOM     28  C26 XBV d           4.647  70.398   4.221  0.00  0.00    -0.011 A 
ATOM     29  C29 XBV d           4.505  71.727   4.485  0.00  0.00    -0.067 A 
ATOM     30  H16 XBV d           3.786  69.736   4.310  0.00  0.00     0.112 H 
ATOM     31  C27 XBV d           5.604  72.590   4.396  0.00  0.00    -0.076 A 
ATOM     32  H19 XBV d           3.529  72.121   4.766  0.00  0.00     0.085 H 
ATOM     33  C28 XBV d           6.835  72.095   4.025  0.00  0.00    -0.017 A 
ATOM     34  H17 XBV d           5.486  73.649   4.620  0.00  0.00     0.083 H 
ATOM     35  C30 XBV d           7.018  70.696   3.732  0.00  0.00     0.252 A 
ATOM     36  H18 XBV d           7.684  72.772   3.951  0.00  0.00     0.092 H 
ATOM     37  O31 XBV d           8.107  70.228   3.375  0.00  0.00    -0.268 OA
ENDBRANCH  21  27
ENDBRANCH  14  17
ENDBRANCH   2  13
BRANCH   1  38
ATOM     38  C6  XBV d           8.253  61.769   1.761  0.00  0.00     0.230 C 
ATOM     39  O10 XBV d           8.889  60.766   2.047  0.00  0.00    -0.273 OA
ATOM     40  N11 XBV d           8.854  62.962   1.555  0.00  0.00    -0.311 N 
ATOM     41  H9  XBV d           8.292  63.662   1.114  0.00  0.00     0.170 HD
BRANCH  40  42
ATOM     42  C12 XBV d          10.154  63.348   1.875  0.00  0.00     0.129 A 
ATOM     43  N13 XBV d          10.381  63.997   3.029  0.00  0.00    -0.242 NA
ATOM     44  C16 XBV d          11.592  64.543   3.321  0.00  0.00     0.025 A 
ATOM     45  C14 XBV d          12.641  64.478   2.382  0.00  0.00     0.051 A 
ATOM     46  H11 XBV d          11.751  65.029   4.277  0.00  0.00     0.117 H 
ATOM     47  C15 XBV d          12.417  63.821   1.157  0.00  0.00    -0.057 A 
ATOM     48 CL1  XBV d          14.168  65.251   2.669  0.00  0.00    -0.083 Cl
ATOM     49  C17 XBV d          11.158  63.271   0.898  0.00  0.00    -0.037 A 
ATOM     50  H10 XBV d          13.210  63.742   0.423  0.00  0.00     0.086 H 
ATOM     51  H12 XBV d          10.959  62.789  -0.051  0.00  0.00     0.089 H 
ENDBRANCH  40  42
ENDBRANCH   1  38
BRANCH   4  52
ATOM     52  C33 XBV d           4.315  59.017   1.463  0.00  0.00     0.137 C 
ATOM     53  H20 XBV d           4.322  59.121   0.368  0.00  0.00     0.084 H 
ATOM     54  H21 XBV d           3.333  59.320   1.854  0.00  0.00     0.084 H 
BRANCH  52  55
ATOM     55  C34 XBV d           4.563  57.552   1.824  0.00  0.00     0.231 C 
ATOM     56  F35 XBV d           5.735  57.049   1.252  0.00  0.00    -0.213 F 
ATOM     57  F36 XBV d           4.776  57.505   3.186  0.00  0.00    -0.213 F 
ATOM     58  H22 XBV d           3.699  56.939   1.529  0.00  0.00     0.147 H 
ENDBRANCH  52  55
ENDBRANCH   4  52
TORSDOF 7
ENDMDL
MODEL 4
REMARK VINA RESULT:      -6.3      3.631      8.898
REMARK  7 active torsions:
REMARK  status: ('A' for Active; 'I' for Inactive)
REMARK    1  A    between atoms: C1_1  and  C6_6 
REMARK    2  A    between atoms: C7_7  and  C2_2 
REMARK    3  A    between atoms: N4_4  and  C33_33 
REMARK       I    between atoms: C6_6  and  N11_11 
REMARK       I    between atoms: N8_8  and  C7_7 
REMARK    4  A    between atoms: C19_19  and  N8_8 
REMARK    5  A    between atoms: N11_11  and  C12_12 
REMARK    6  A    between atoms: N25_25  and  C21_21 
REMARK    7  A    between atoms: C33_33  and  C34_34 
ROOT
ATOM      1  C1  XBV d           9.891  63.988   2.588  0.00  0.00     0.060 C 
ATOM      2  C2  XBV d           9.713  64.434   1.129  0.00  0.00     0.060 C 
ATOM      3  C3  XBV d          11.151  64.665   0.616  0.00  0.00     0.096 C 
ATOM      4  N4  XBV d          11.920  63.636   1.385  0.00  0.00    -0.064 N 
ATOM      5  C5  XBV d          11.375  63.607   2.765  0.00  0.00     0.096 C 
ATOM      6  H1  XBV d           9.679  64.847   3.242  0.00  0.00     0.058 H 
ATOM      7  H2  XBV d           9.213  63.651   0.539  0.00  0.00     0.058 H 
ATOM      8  H3  XBV d          11.500  65.682   0.848  0.00  0.00     0.077 H 
ATOM      9  H4  XBV d          11.222  64.491  -0.468  0.00  0.00     0.077 H 
ATOM     10  H5  XBV d          11.796  62.733   0.954  0.00  0.00     0.280 HD
ATOM     11  H6  XBV d          11.472  62.601   3.202  0.00  0.00     0.077 H 
ATOM     12  H7  XBV d          11.893  64.336   3.405  0.00  0.00     0.077 H 
ENDROOT
BRANCH   2  13
ATOM     13  C7  XBV d           8.897  65.708   1.071  0.00  0.00     0.229 C 
ATOM     14  N8  XBV d           8.732  66.295   2.226  0.00  0.00    -0.324 N 
ATOM     15  H8  XBV d           9.187  65.883   3.016  0.00  0.00     0.169 HD
ATOM     16  O9  XBV d           8.480  66.184   0.026  0.00  0.00    -0.273 OA
BRANCH  14  17
ATOM     17  C19 XBV d           7.967  67.459   2.458  0.00  0.00     0.073 A 
ATOM     18  C20 XBV d           8.443  68.762   2.273  0.00  0.00    -0.052 A 
ATOM     19  C23 XBV d           7.595  69.828   2.589  0.00  0.00    -0.054 A 
ATOM     20  H13 XBV d           9.442  68.941   1.894  0.00  0.00     0.087 H 
ATOM     21  C21 XBV d           6.330  69.557   3.122  0.00  0.00     0.045 A 
ATOM     22  H15 XBV d           7.913  70.851   2.424  0.00  0.00     0.087 H 
ATOM     23  C22 XBV d           5.864  68.248   3.311  0.00  0.00    -0.017 A 
ATOM     24  C24 XBV d           6.708  67.199   2.923  0.00  0.00     0.145 A 
ATOM     25  H14 XBV d           4.888  68.055   3.741  0.00  0.00     0.091 H 
ATOM     26  F32 XBV d           6.300  65.936   3.115  0.00  0.00    -0.204 F 
BRANCH  21  27
ATOM     27  N25 XBV d           5.418  70.598   3.471  0.00  0.00    -0.290 N 
ATOM     28  C26 XBV d           4.945  70.697   4.789  0.00  0.00    -0.011 A 
ATOM     29  C29 XBV d           4.051  71.664   5.136  0.00  0.00    -0.067 A 
ATOM     30  H16 XBV d           5.297  69.993   5.542  0.00  0.00     0.112 H 
ATOM     31  C27 XBV d           3.602  72.590   4.186  0.00  0.00    -0.076 A 
ATOM     32  H19 XBV d           3.682  71.717   6.159  0.00  0.00     0.085 H 
ATOM     33  C28 XBV d           4.057  72.514   2.888  0.00  0.00    -0.017 A 
ATOM     34  H17 XBV d           2.897  73.368   4.474  0.00  0.00     0.083 H 
ATOM     35  C30 XBV d           4.997  71.499   2.486  0.00  0.00     0.252 A 
ATOM     36  H18 XBV d           3.699  73.234   2.152  0.00  0.00     0.092 H 
ATOM     37  O31 XBV d           5.405  71.394   1.322  0.00  0.00    -0.268 OA
ENDBRANCH  21  27
ENDBRANCH  14  17
ENDBRANCH   2  13
BRANCH   1  38
ATOM     38  C6  XBV d           8.933  62.889   2.977  0.00  0.00     0.230 C 
ATOM     39  O10 XBV d           8.495  62.776   4.112  0.00  0.00    -0.273 OA
ATOM     40  N11 XBV d           8.500  62.108   1.962  0.00  0.00    -0.311 N 
ATOM     41  H9  XBV d           8.744  62.415   1.043  0.00  0.00     0.170 HD
BRANCH  40  42
ATOM     42  C12 XBV d           7.757  60.931   2.026  0.00  0.00     0.129 A 
ATOM     43  N13 XBV d           6.591  60.852   1.364  0.00  0.00    -0.242 NA
ATOM     44  C16 XBV d           5.745  59.799   1.519  0.00  0.00     0.025 A 
ATOM     45  C14 XBV d           6.058  58.770   2.429  0.00  0.00     0.051 A 
ATOM     46  H11 XBV d           4.829  59.751   0.942  0.00  0.00     0.117 H 
ATOM     47  C15 XBV d           7.266  58.844   3.150  0.00  0.00    -0.057 A 
ATOM     48 CL1  XBV d           4.960  57.461   2.735  0.00  0.00    -0.083 Cl
ATOM     49  C17 XBV d           8.108  59.942   2.958  0.00  0.00    -0.037 A 
ATOM     50  H10 XBV d           7.540  58.058   3.844  0.00  0.00     0.086 H 
ATOM     51  H12 XBV d           9.027  60.031   3.526  0.00  0.00     0.089 H 
ENDBRANCH  40  42
ENDBRANCH   1  38
BRANCH   4  52
ATOM     52  C33 XBV d          13.356  63.959   1.409  0.00  0.00     0.137 C 
ATOM     53  H20 XBV d          13.541  64.816   0.745  0.00  0.00     0.084 H 
ATOM     54  H21 XBV d          13.924  63.088   1.050  0.00  0.00     0.084 H 
BRANCH  52  55
ATOM     55  C34 XBV d          13.828  64.313   2.820  0.00  0.00     0.231 C 
ATOM     56  F35 XBV d          15.199  64.103   2.997  0.00  0.00    -0.213 F 
ATOM     57  F36 XBV d          13.646  65.671   2.974  0.00  0.00    -0.213 F 
ATOM     58  H22 XBV d          13.253  63.742   3.564  0.00  0.00     0.147 H 
ENDBRANCH  52  55
ENDBRANCH   4  52
TORSDOF 7
ENDMDL
