MODEL 1
REMARK VINA RESULT:      -9.8      0.000      0.000
REMARK  5 active torsions:
REMARK  status: ('A' for Active; 'I' for Inactive)
REMARK    1  A    between atoms: O1_1  and  C1_2 
REMARK    2  A    between atoms: C1_2  and  C2_3 
REMARK    3  A    between atoms: C6_8  and  S1_13 
REMARK    4  A    between atoms: S1_13  and  N2_16 
REMARK    5  A    between atoms: N2_16  and  C11_17 
ROOT
ATOM      1  C2  F83 d          28.834  45.123  20.470  0.00  0.00     0.126 C 
ATOM      2  N1  F83 d          29.273  43.727  20.328  0.00  0.00    -0.065 N 
ATOM      3  C3  F83 d          28.554  43.074  19.226  0.00  0.00     0.106 C 
ATOM      4  C4  F83 d          28.647  43.898  17.935  0.00  0.00    -0.025 A 
ATOM      5  C5  F83 d          28.316  43.300  16.725  0.00  0.00    -0.052 A 
ATOM      6  C6  F83 d          28.344  44.041  15.547  0.00  0.00     0.080 A 
ATOM      7  C7  F83 d          28.707  45.384  15.581  0.00  0.00    -0.060 A 
ATOM      8  C8  F83 d          29.043  45.984  16.791  0.00  0.00    -0.075 A 
ATOM      9  C9  F83 d          29.014  45.243  17.970  0.00  0.00    -0.048 A 
ATOM     10  C10 F83 d          29.390  45.920  19.287  0.00  0.00    -0.012 C 
ATOM     11  H4  F83 d          27.735  45.167  20.463  0.00  0.00     0.088 H 
ATOM     12  H5  F83 d          29.088  43.231  21.186  0.00  0.00     0.278 HD
ATOM     13  H6  F83 d          30.262  43.708  20.136  0.00  0.00     0.278 HD
ATOM     14  H7  F83 d          27.495  42.963  19.504  0.00  0.00     0.083 H 
ATOM     15  H8  F83 d          28.992  42.081  19.049  0.00  0.00     0.083 H 
ATOM     16  H9  F83 d          28.035  42.254  16.698  0.00  0.00     0.086 H 
ATOM     17  H10 F83 d          28.729  45.963  14.664  0.00  0.00     0.085 H 
ATOM     18  H11 F83 d          29.327  47.030  16.815  0.00  0.00     0.084 H 
ATOM     19  H12 F83 d          30.486  45.975  19.369  0.00  0.00     0.043 H 
ATOM     20  H13 F83 d          28.970  46.937  19.305  0.00  0.00     0.043 H 
ENDROOT
BRANCH   6  21
ATOM     21  S1  F83 d          27.911  43.289  14.029  0.00  0.00     0.263 S 
ATOM     22  O2  F83 d          28.123  41.873  14.109  0.00  0.00    -0.200 OA
ATOM     23  O3  F83 d          28.766  43.851  12.931  0.00  0.00    -0.200 OA
BRANCH  21  24
ATOM     24  N2  F83 d          26.350  43.612  13.693  0.00  0.00    -0.281 N 
ATOM     25  H14 F83 d          25.645  43.120  14.204  0.00  0.00     0.179 HD
BRANCH  24  26
ATOM     26  C11 F83 d          25.925  44.587  12.679  0.00  0.00     0.042 A 
ATOM     27  C12 F83 d          25.255  45.754  13.038  0.00  0.00    -0.055 A 
ATOM     28  C13 F83 d          24.932  46.699  12.067  0.00  0.00    -0.060 A 
ATOM     29  H15 F83 d          24.985  45.927  14.074  0.00  0.00     0.087 H 
ATOM     30  C14 F83 d          25.277  46.482  10.734  0.00  0.00     0.034 A 
ATOM     31  H16 F83 d          24.410  47.606  12.349  0.00  0.00     0.086 H 
ATOM     32  C15 F83 d          25.938  45.313  10.375  0.00  0.00    -0.060 A 
ATOM     33 CL1  F83 d          24.910  47.664   9.525  0.00  0.00    -0.084 Cl
ATOM     34  C16 F83 d          26.261  44.365  11.346  0.00  0.00    -0.055 A 
ATOM     35  H17 F83 d          26.204  45.138   9.338  0.00  0.00     0.086 H 
ATOM     36  H18 F83 d          26.773  43.453  11.063  0.00  0.00     0.087 H 
ENDBRANCH  24  26
ENDBRANCH  21  24
ENDBRANCH   6  21
BRANCH   1  37
ATOM     37  C1  F83 d          29.356  45.709  21.782  0.00  0.00     0.044 C 
ATOM     38  H2  F83 d          30.377  45.347  21.969  0.00  0.00     0.077 H 
ATOM     39  H3  F83 d          29.362  46.807  21.720  0.00  0.00     0.077 H 
BRANCH  37  40
ATOM     40  O1  F83 d          28.495  45.293  22.847  0.00  0.00    -0.399 OA
ATOM     41  H1  F83 d          28.697  45.792  23.630  0.00  0.00     0.209 HD
ENDBRANCH  37  40
ENDBRANCH   1  37
TORSDOF 5
ENDMDL
MODEL 2
REMARK VINA RESULT:      -7.7      3.647      8.216
REMARK  5 active torsions:
REMARK  status: ('A' for Active; 'I' for Inactive)
REMARK    1  A    between atoms: O1_1  and  C1_2 
REMARK    2  A    between atoms: C1_2  and  C2_3 
REMARK    3  A    between atoms: C6_8  and  S1_13 
REMARK    4  A    between atoms: S1_13  and  N2_16 
REMARK    5  A    between atoms: N2_16  and  C11_17 
ROOT
ATOM      1  C2  F83 d          25.229  45.721  10.639  0.00  0.00     0.126 C 
ATOM      2  N1  F83 d          25.257  46.744  11.696  0.00  0.00    -0.065 N 
ATOM      3  C3  F83 d          25.275  46.109  13.021  0.00  0.00     0.106 C 
ATOM      4  C4  F83 d          26.396  45.066  13.123  0.00  0.00    -0.025 A 
ATOM      5  C5  F83 d          26.777  44.602  14.377  0.00  0.00    -0.052 A 
ATOM      6  C6  F83 d          27.755  43.620  14.492  0.00  0.00     0.080 A 
ATOM      7  C7  F83 d          28.357  43.102  13.349  0.00  0.00    -0.060 A 
ATOM      8  C8  F83 d          27.980  43.568  12.092  0.00  0.00    -0.075 A 
ATOM      9  C9  F83 d          27.000  44.551  11.977  0.00  0.00    -0.048 A 
ATOM     10  C10 F83 d          26.604  45.051  10.588  0.00  0.00    -0.012 C 
ATOM     11  H4  F83 d          24.459  44.971  10.871  0.00  0.00     0.088 H 
ATOM     12  H5  F83 d          24.437  47.326  11.617  0.00  0.00     0.278 HD
ATOM     13  H6  F83 d          26.083  47.310  11.587  0.00  0.00     0.278 HD
ATOM     14  H7  F83 d          24.308  45.614  13.194  0.00  0.00     0.083 H 
ATOM     15  H8  F83 d          25.434  46.882  13.787  0.00  0.00     0.083 H 
ATOM     16  H9  F83 d          26.310  45.006  15.267  0.00  0.00     0.086 H 
ATOM     17  H10 F83 d          29.120  42.336  13.437  0.00  0.00     0.085 H 
ATOM     18  H11 F83 d          28.451  43.165  11.203  0.00  0.00     0.084 H 
ATOM     19  H12 F83 d          27.350  45.779  10.236  0.00  0.00     0.043 H 
ATOM     20  H13 F83 d          26.567  44.199   9.892  0.00  0.00     0.043 H 
ENDROOT
BRANCH   6  21
ATOM     21  S1  F83 d          28.220  43.027  16.070  0.00  0.00     0.263 S 
ATOM     22  O2  F83 d          28.967  41.810  15.933  0.00  0.00    -0.200 OA
ATOM     23  O3  F83 d          26.990  42.757  16.885  0.00  0.00    -0.200 OA
BRANCH  21  24
ATOM     24  N2  F83 d          29.113  44.158  16.829  0.00  0.00    -0.281 N 
ATOM     25  H14 F83 d          29.826  44.627  16.307  0.00  0.00     0.179 HD
BRANCH  24  26
ATOM     26  C11 F83 d          28.926  44.525  18.240  0.00  0.00     0.042 A 
ATOM     27  C12 F83 d          28.246  43.684  19.118  0.00  0.00    -0.055 A 
ATOM     28  C13 F83 d          28.149  44.018  20.467  0.00  0.00    -0.060 A 
ATOM     29  H15 F83 d          27.791  42.771  18.751  0.00  0.00     0.087 H 
ATOM     30  C14 F83 d          28.731  45.191  20.944  0.00  0.00     0.034 A 
ATOM     31  H16 F83 d          27.619  43.362  21.148  0.00  0.00     0.086 H 
ATOM     32  C15 F83 d          29.403  46.033  20.065  0.00  0.00    -0.060 A 
ATOM     33 CL1  F83 d          28.646  45.598  22.623  0.00  0.00    -0.084 Cl
ATOM     34  C16 F83 d          29.499  45.702  18.713  0.00  0.00    -0.055 A 
ATOM     35  H17 F83 d          29.854  46.950  20.431  0.00  0.00     0.086 H 
ATOM     36  H18 F83 d          30.020  46.362  18.030  0.00  0.00     0.087 H 
ENDBRANCH  24  26
ENDBRANCH  21  24
ENDBRANCH   6  21
BRANCH   1  37
ATOM     37  C1  F83 d          24.916  46.367   9.289  0.00  0.00     0.044 C 
ATOM     38  H2  F83 d          25.657  46.044   8.543  0.00  0.00     0.077 H 
ATOM     39  H3  F83 d          23.910  46.067   8.960  0.00  0.00     0.077 H 
BRANCH  37  40
ATOM     40  O1  F83 d          24.970  47.789   9.435  0.00  0.00    -0.399 OA
ATOM     41  H1  F83 d          24.265  48.075  10.004  0.00  0.00     0.209 HD
ENDBRANCH  37  40
ENDBRANCH   1  37
TORSDOF 5
ENDMDL
MODEL 3
REMARK VINA RESULT:      -7.6      3.627      8.307
REMARK  5 active torsions:
REMARK  status: ('A' for Active; 'I' for Inactive)
REMARK    1  A    between atoms: O1_1  and  C1_2 
REMARK    2  A    between atoms: C1_2  and  C2_3 
REMARK    3  A    between atoms: C6_8  and  S1_13 
REMARK    4  A    between atoms: S1_13  and  N2_16 
REMARK    5  A    between atoms: N2_16  and  C11_17 
ROOT
ATOM      1  C2  F83 d          25.974  45.890  10.143  0.00  0.00     0.126 C 
ATOM      2  N1  F83 d          27.080  44.983   9.801  0.00  0.00    -0.065 N 
ATOM      3  C3  F83 d          27.973  44.808  10.955  0.00  0.00     0.106 C 
ATOM      4  C4  F83 d          27.189  44.401  12.209  0.00  0.00    -0.025 A 
ATOM      5  C5  F83 d          27.876  43.880  13.299  0.00  0.00    -0.052 A 
ATOM      6  C6  F83 d          27.193  43.551  14.465  0.00  0.00     0.080 A 
ATOM      7  C7  F83 d          25.817  43.741  14.540  0.00  0.00    -0.060 A 
ATOM      8  C8  F83 d          25.125  44.258  13.450  0.00  0.00    -0.075 A 
ATOM      9  C9  F83 d          25.808  44.588  12.281  0.00  0.00    -0.048 A 
ATOM     10  C10 F83 d          25.029  45.153  11.094  0.00  0.00    -0.012 C 
ATOM     11  H4  F83 d          26.373  46.788  10.637  0.00  0.00     0.088 H 
ATOM     12  H5  F83 d          27.603  45.371   9.032  0.00  0.00     0.278 HD
ATOM     13  H6  F83 d          26.703  44.087   9.533  0.00  0.00     0.278 HD
ATOM     14  H7  F83 d          28.495  45.756  11.151  0.00  0.00     0.083 H 
ATOM     15  H8  F83 d          28.710  44.024  10.723  0.00  0.00     0.083 H 
ATOM     16  H9  F83 d          28.948  43.730  13.240  0.00  0.00     0.086 H 
ATOM     17  H10 F83 d          25.283  43.485  15.449  0.00  0.00     0.085 H 
ATOM     18  H11 F83 d          24.052  44.405  13.509  0.00  0.00     0.084 H 
ATOM     19  H12 F83 d          24.541  44.327  10.554  0.00  0.00     0.043 H 
ATOM     20  H13 F83 d          24.264  45.853  11.462  0.00  0.00     0.043 H 
ENDROOT
BRANCH   6  21
ATOM     21  S1  F83 d          28.065  42.911  15.840  0.00  0.00     0.263 S 
ATOM     22  O2  F83 d          28.886  41.810  15.426  0.00  0.00    -0.200 OA
ATOM     23  O3  F83 d          27.088  42.432  16.872  0.00  0.00    -0.200 OA
BRANCH  21  24
ATOM     24  N2  F83 d          28.981  44.088  16.493  0.00  0.00    -0.281 N 
ATOM     25  H14 F83 d          29.573  44.619  15.887  0.00  0.00     0.179 HD
BRANCH  24  26
ATOM     26  C11 F83 d          28.983  44.411  17.927  0.00  0.00     0.042 A 
ATOM     27  C12 F83 d          29.677  45.515  18.416  0.00  0.00    -0.055 A 
ATOM     28  C13 F83 d          29.601  45.844  19.767  0.00  0.00    -0.060 A 
ATOM     29  H15 F83 d          30.279  46.117  17.744  0.00  0.00     0.087 H 
ATOM     30  C14 F83 d          28.829  45.072  20.635  0.00  0.00     0.034 A 
ATOM     31  H16 F83 d          30.142  46.703  20.145  0.00  0.00     0.086 H 
ATOM     32  C15 F83 d          28.143  43.966  20.148  0.00  0.00    -0.060 A 
ATOM     33 CL1  F83 d          28.700  45.491  22.308  0.00  0.00    -0.084 Cl
ATOM     34  C16 F83 d          28.221  43.634  18.795  0.00  0.00    -0.055 A 
ATOM     35  H17 F83 d          27.545  43.360  20.820  0.00  0.00     0.086 H 
ATOM     36  H18 F83 d          27.687  42.769  18.418  0.00  0.00     0.087 H 
ENDBRANCH  24  26
ENDBRANCH  21  24
ENDBRANCH   6  21
BRANCH   1  37
ATOM     37  C1  F83 d          25.220  46.302   8.878  0.00  0.00     0.044 C 
ATOM     38  H2  F83 d          25.846  46.106   7.994  0.00  0.00     0.077 H 
ATOM     39  H3  F83 d          24.286  45.727   8.800  0.00  0.00     0.077 H 
BRANCH  37  40
ATOM     40  O1  F83 d          24.920  47.699   8.955  0.00  0.00    -0.399 OA
ATOM     41  H1  F83 d          25.549  48.126   9.525  0.00  0.00     0.209 HD
ENDBRANCH  37  40
ENDBRANCH   1  37
TORSDOF 5
ENDMDL
