REMARK  8 active torsions:
REMARK  status: ('A' for Active; 'I' for Inactive)
REMARK    1  A    between atoms: C1_1  and  O7_7 
REMARK    2  A    between atoms: C2_2  and  O16_14 
REMARK    3  A    between atoms: C14_12  and  C4_4 
REMARK    4  A    between atoms: C10_9  and  C9_8 
REMARK    5  A    between atoms: N3_15  and  C10_9 
REMARK    6  A    between atoms: C12_10  and  C13_11 
REMARK    7  A    between atoms: N3_15  and  C12_10 
REMARK       I    between atoms: C14_12  and  N3_15 
REMARK    8  A    between atoms: O16_14  and  C15_16 
ROOT
ATOM      1  C14 MOL d          64.442  35.323  24.065  0.00  0.00     0.253 C 
ATOM      2  O15 MOL d          63.710  34.885  23.207  0.00  0.00    -0.267 OA
ATOM      3  N3  MOL d          65.175  36.464  23.903  0.00  0.00    -0.349 N 
ENDROOT
BRANCH   1   4
ATOM      4  C4  MOL d          64.613  34.572  25.342  0.00  0.00     0.035 A 
ATOM      5  C3  MOL d          65.881  34.164  25.729  0.00  0.00    -0.033 A 
ATOM      6  C2  MOL d          66.082  33.450  26.888  0.00  0.00     0.102 A 
ATOM      7  H1  MOL d          66.732  34.413  25.105  0.00  0.00     0.089 H 
ATOM      8  C1  MOL d          64.991  33.147  27.709  0.00  0.00     0.099 A 
ATOM      9  C6  MOL d          63.704  33.557  27.329  0.00  0.00    -0.047 A 
ATOM     10  C5  MOL d          63.517  34.265  26.156  0.00  0.00    -0.065 A 
ATOM     11  H3  MOL d          62.853  33.318  27.957  0.00  0.00     0.087 H 
ATOM     12  H2  MOL d          62.522  34.582  25.867  0.00  0.00     0.085 H 
BRANCH   6  13
ATOM     13  O16 MOL d          67.314  33.028  27.316  0.00  0.00    -0.353 OA
BRANCH  13  14
ATOM     14  C15 MOL d          68.456  33.862  26.985  0.00  0.00     0.010 C 
ATOM     15  H15 MOL d          69.372  33.406  27.388  0.00  0.00     0.066 H 
ATOM     16  H16 MOL d          68.320  34.861  27.425  0.00  0.00     0.066 H 
ATOM     17  H17 MOL d          68.541  33.951  25.892  0.00  0.00     0.066 H 
ENDBRANCH  13  14
ENDBRANCH   6  13
BRANCH   8  18
ATOM     18  O7  MOL d          65.194  32.466  28.872  0.00  0.00    -0.358 OA
ATOM     19  H4  MOL d          66.119  32.271  28.966  0.00  0.00     0.217 HD
ENDBRANCH   8  18
ENDBRANCH   1   4
BRANCH   3  20
ATOM     20  C10 MOL d          65.734  37.183  25.066  0.00  0.00    -0.005 C 
ATOM     21  H8  MOL d          65.552  36.585  25.971  0.00  0.00     0.063 H 
ATOM     22  H9  MOL d          66.817  37.305  24.918  0.00  0.00     0.063 H 
BRANCH  20  23
ATOM     23  C9  MOL d          65.112  38.549  25.253  0.00  0.00    -0.061 C 
ATOM     24  H5  MOL d          65.562  39.040  26.129  0.00  0.00     0.029 H 
ATOM     25  H6  MOL d          64.029  38.440  25.410  0.00  0.00     0.029 H 
ATOM     26  H7  MOL d          65.293  39.160  24.357  0.00  0.00     0.029 H 
ENDBRANCH  20  23
ENDBRANCH   3  20
BRANCH   3  27
ATOM     27  C12 MOL d          65.271  37.150  22.615  0.00  0.00    -0.005 C 
ATOM     28  H10 MOL d          64.803  36.523  21.842  0.00  0.00     0.063 H 
ATOM     29  H11 MOL d          64.737  38.110  22.682  0.00  0.00     0.063 H 
BRANCH  27  30
ATOM     30  C13 MOL d          66.714  37.416  22.225  0.00  0.00    -0.061 C 
ATOM     31  H12 MOL d          66.742  37.931  21.254  0.00  0.00     0.029 H 
ATOM     32  H13 MOL d          67.255  36.461  22.149  0.00  0.00     0.029 H 
ATOM     33  H14 MOL d          67.190  38.048  22.989  0.00  0.00     0.029 H 
ENDBRANCH  27  30
ENDBRANCH   3  27
TORSDOF 8
