MODEL 1
REMARK VINA RESULT:      -6.1      0.000      0.000
REMARK  8 active torsions:
REMARK  status: ('A' for Active; 'I' for Inactive)
REMARK    1  A    between atoms: C1_1  and  O7_7 
REMARK    2  A    between atoms: C2_2  and  O16_14 
REMARK    3  A    between atoms: C14_12  and  C4_4 
REMARK    4  A    between atoms: C10_9  and  C9_8 
REMARK    5  A    between atoms: N3_15  and  C10_9 
REMARK    6  A    between atoms: C12_10  and  C13_11 
REMARK    7  A    between atoms: N3_15  and  C12_10 
REMARK       I    between atoms: C14_12  and  N3_15 
REMARK    8  A    between atoms: O16_14  and  C15_16 
ROOT
ATOM      1  C14 MOL d          64.646  35.463  24.189  0.00  0.00     0.253 C 
ATOM      2  O15 MOL d          64.237  34.979  23.158  0.00  0.00    -0.267 OA
ATOM      3  N3  MOL d          65.132  36.737  24.268  0.00  0.00    -0.349 N 
ENDROOT
BRANCH   1   4
ATOM      4  C4  MOL d          64.685  34.635  25.428  0.00  0.00     0.035 A 
ATOM      5  C3  MOL d          65.907  34.210  25.927  0.00  0.00    -0.033 A 
ATOM      6  C2  MOL d          65.989  33.425  27.054  0.00  0.00     0.102 A 
ATOM      7  H1  MOL d          66.819  34.502  25.417  0.00  0.00     0.089 H 
ATOM      8  C1  MOL d          64.818  33.066  27.730  0.00  0.00     0.099 A 
ATOM      9  C6  MOL d          63.576  33.492  27.237  0.00  0.00    -0.047 A 
ATOM     10  C5  MOL d          63.510  34.271  26.096  0.00  0.00    -0.065 A 
ATOM     11  H3  MOL d          62.664  33.210  27.751  0.00  0.00     0.087 H 
ATOM     12  H2  MOL d          62.549  34.601  25.719  0.00  0.00     0.085 H 
BRANCH   6  13
ATOM     13  O16 MOL d          67.171  32.984  27.589  0.00  0.00    -0.353 OA
BRANCH  13  14
ATOM     14  C15 MOL d          68.394  33.587  27.089  0.00  0.00     0.010 C 
ATOM     15  H15 MOL d          69.144  32.802  26.910  0.00  0.00     0.066 H 
ATOM     16  H16 MOL d          68.781  34.300  27.833  0.00  0.00     0.066 H 
ATOM     17  H17 MOL d          68.185  34.116  26.148  0.00  0.00     0.066 H 
ENDBRANCH  13  14
ENDBRANCH   6  13
BRANCH   8  18
ATOM     18  O7  MOL d          64.901  32.315  28.864  0.00  0.00    -0.358 OA
ATOM     19  H4  MOL d          65.141  31.424  28.636  0.00  0.00     0.217 HD
ENDBRANCH   8  18
ENDBRANCH   1   4
BRANCH   3  20
ATOM     20  C10 MOL d          65.247  37.430  25.568  0.00  0.00    -0.005 C 
ATOM     21  H8  MOL d          64.450  37.066  26.233  0.00  0.00     0.063 H 
ATOM     22  H9  MOL d          66.228  37.196  26.006  0.00  0.00     0.063 H 
BRANCH  20  23
ATOM     23  C9  MOL d          65.120  38.931  25.434  0.00  0.00    -0.061 C 
ATOM     24  H5  MOL d          64.326  39.293  26.103  0.00  0.00     0.029 H 
ATOM     25  H6  MOL d          64.868  39.187  24.394  0.00  0.00     0.029 H 
ATOM     26  H7  MOL d          66.074  39.405  25.707  0.00  0.00     0.029 H 
ENDBRANCH  20  23
ENDBRANCH   3  20
BRANCH   3  27
ATOM     27  C12 MOL d          65.363  37.556  23.079  0.00  0.00    -0.005 C 
ATOM     28  H10 MOL d          64.701  37.208  22.272  0.00  0.00     0.063 H 
ATOM     29  H11 MOL d          65.129  38.605  23.318  0.00  0.00     0.063 H 
BRANCH  27  30
ATOM     30  C13 MOL d          66.803  37.469  22.606  0.00  0.00    -0.061 C 
ATOM     31  H12 MOL d          66.830  37.498  21.507  0.00  0.00     0.029 H 
ATOM     32  H13 MOL d          67.248  36.526  22.959  0.00  0.00     0.029 H 
ATOM     33  H14 MOL d          67.374  38.317  23.010  0.00  0.00     0.029 H 
ENDBRANCH  27  30
ENDBRANCH   3  27
TORSDOF 8
ENDMDL
MODEL 2
REMARK VINA RESULT:      -5.6      2.694      5.282
REMARK  8 active torsions:
REMARK  status: ('A' for Active; 'I' for Inactive)
REMARK    1  A    between atoms: C1_1  and  O7_7 
REMARK    2  A    between atoms: C2_2  and  O16_14 
REMARK    3  A    between atoms: C14_12  and  C4_4 
REMARK    4  A    between atoms: C10_9  and  C9_8 
REMARK    5  A    between atoms: N3_15  and  C10_9 
REMARK    6  A    between atoms: C12_10  and  C13_11 
REMARK    7  A    between atoms: N3_15  and  C12_10 
REMARK       I    between atoms: C14_12  and  N3_15 
REMARK    8  A    between atoms: O16_14  and  C15_16 
ROOT
ATOM      1  C14 MOL d          64.368  34.492  26.230  0.00  0.00     0.253 C 
ATOM      2  O15 MOL d          63.220  34.598  25.862  0.00  0.00    -0.267 OA
ATOM      3  N3  MOL d          64.781  33.527  27.104  0.00  0.00    -0.349 N 
ENDROOT
BRANCH   1   4
ATOM      4  C4  MOL d          65.384  35.482  25.770  0.00  0.00     0.035 A 
ATOM      5  C3  MOL d          65.991  36.318  26.695  0.00  0.00    -0.033 A 
ATOM      6  C2  MOL d          66.918  37.260  26.311  0.00  0.00     0.102 A 
ATOM      7  H1  MOL d          65.730  36.227  27.744  0.00  0.00     0.089 H 
ATOM      8  C1  MOL d          67.277  37.365  24.964  0.00  0.00     0.099 A 
ATOM      9  C6  MOL d          66.671  36.522  24.019  0.00  0.00    -0.047 A 
ATOM     10  C5  MOL d          65.734  35.588  24.419  0.00  0.00    -0.065 A 
ATOM     11  H3  MOL d          66.939  36.605  22.971  0.00  0.00     0.087 H 
ATOM     12  H2  MOL d          65.270  34.937  23.687  0.00  0.00     0.085 H 
BRANCH   6  13
ATOM     13  O16 MOL d          67.549  38.105  27.187  0.00  0.00    -0.353 OA
BRANCH  13  14
ATOM     14  C15 MOL d          66.711  38.881  28.084  0.00  0.00     0.010 C 
ATOM     15  H15 MOL d          65.789  38.322  28.300  0.00  0.00     0.066 H 
ATOM     16  H16 MOL d          66.455  39.840  27.610  0.00  0.00     0.066 H 
ATOM     17  H17 MOL d          67.254  39.069  29.022  0.00  0.00     0.066 H 
ENDBRANCH  13  14
ENDBRANCH   6  13
BRANCH   8  18
ATOM     18  O7  MOL d          68.217  38.277  24.588  0.00  0.00    -0.358 OA
ATOM     19  H4  MOL d          68.680  38.588  25.357  0.00  0.00     0.217 HD
ENDBRANCH   8  18
ENDBRANCH   1   4
BRANCH   3  20
ATOM     20  C10 MOL d          66.208  33.169  27.227  0.00  0.00    -0.005 C 
ATOM     21  H8  MOL d          66.816  34.044  26.951  0.00  0.00     0.063 H 
ATOM     22  H9  MOL d          66.414  32.894  28.272  0.00  0.00     0.063 H 
BRANCH  20  23
ATOM     23  C9  MOL d          66.592  32.010  26.334  0.00  0.00    -0.061 C 
ATOM     24  H5  MOL d          65.891  31.952  25.487  0.00  0.00     0.029 H 
ATOM     25  H6  MOL d          66.548  31.074  26.910  0.00  0.00     0.029 H 
ATOM     26  H7  MOL d          67.613  32.161  25.955  0.00  0.00     0.029 H 
ENDBRANCH  20  23
ENDBRANCH   3  20
BRANCH   3  27
ATOM     27  C12 MOL d          63.836  32.656  27.803  0.00  0.00    -0.005 C 
ATOM     28  H10 MOL d          62.872  33.177  27.895  0.00  0.00     0.063 H 
ATOM     29  H11 MOL d          63.700  31.735  27.216  0.00  0.00     0.063 H 
BRANCH  27  30
ATOM     30  C13 MOL d          64.331  32.287  29.190  0.00  0.00    -0.061 C 
ATOM     31  H12 MOL d          64.112  31.227  29.387  0.00  0.00     0.029 H 
ATOM     32  H13 MOL d          63.822  32.912  29.939  0.00  0.00     0.029 H 
ATOM     33  H14 MOL d          65.416  32.453  29.248  0.00  0.00     0.029 H 
ENDBRANCH  27  30
ENDBRANCH   3  27
TORSDOF 8
ENDMDL
MODEL 3
REMARK VINA RESULT:      -5.2      2.554      5.587
REMARK  8 active torsions:
REMARK  status: ('A' for Active; 'I' for Inactive)
REMARK    1  A    between atoms: C1_1  and  O7_7 
REMARK    2  A    between atoms: C2_2  and  O16_14 
REMARK    3  A    between atoms: C14_12  and  C4_4 
REMARK    4  A    between atoms: C10_9  and  C9_8 
REMARK    5  A    between atoms: N3_15  and  C10_9 
REMARK    6  A    between atoms: C12_10  and  C13_11 
REMARK    7  A    between atoms: N3_15  and  C12_10 
REMARK       I    between atoms: C14_12  and  N3_15 
REMARK    8  A    between atoms: O16_14  and  C15_16 
ROOT
ATOM      1  C14 MOL d          66.847  34.230  26.915  0.00  0.00     0.253 C 
ATOM      2  O15 MOL d          67.711  33.537  27.402  0.00  0.00    -0.267 OA
ATOM      3  N3  MOL d          65.534  33.855  26.870  0.00  0.00    -0.349 N 
ENDROOT
BRANCH   1   4
ATOM      4  C4  MOL d          67.214  35.527  26.277  0.00  0.00     0.035 A 
ATOM      5  C3  MOL d          66.860  35.762  24.956  0.00  0.00    -0.033 A 
ATOM      6  C2  MOL d          67.197  36.936  24.322  0.00  0.00     0.102 A 
ATOM      7  H1  MOL d          66.306  35.005  24.413  0.00  0.00     0.089 H 
ATOM      8  C1  MOL d          67.890  37.926  25.026  0.00  0.00     0.099 A 
ATOM      9  C6  MOL d          68.251  37.700  26.363  0.00  0.00    -0.047 A 
ATOM     10  C5  MOL d          67.914  36.511  26.984  0.00  0.00    -0.065 A 
ATOM     11  H3  MOL d          68.796  38.460  26.912  0.00  0.00     0.087 H 
ATOM     12  H2  MOL d          68.192  36.341  28.017  0.00  0.00     0.085 H 
BRANCH   6  13
ATOM     13  O16 MOL d          66.868  37.218  23.022  0.00  0.00    -0.353 OA
BRANCH  13  14
ATOM     14  C15 MOL d          65.456  37.336  22.702  0.00  0.00     0.010 C 
ATOM     15  H15 MOL d          65.277  36.954  21.687  0.00  0.00     0.066 H 
ATOM     16  H16 MOL d          65.155  38.393  22.755  0.00  0.00     0.066 H 
ATOM     17  H17 MOL d          64.867  36.750  23.423  0.00  0.00     0.066 H 
ENDBRANCH  13  14
ENDBRANCH   6  13
BRANCH   8  18
ATOM     18  O7  MOL d          68.198  39.100  24.407  0.00  0.00    -0.358 OA
ATOM     19  H4  MOL d          68.183  38.974  23.465  0.00  0.00     0.217 HD
ENDBRANCH   8  18
ENDBRANCH   1   4
BRANCH   3  20
ATOM     20  C10 MOL d          64.465  34.849  26.644  0.00  0.00    -0.005 C 
ATOM     21  H8  MOL d          63.930  35.013  27.592  0.00  0.00     0.063 H 
ATOM     22  H9  MOL d          64.924  35.793  26.314  0.00  0.00     0.063 H 
BRANCH  20  23
ATOM     23  C9  MOL d          63.471  34.400  25.597  0.00  0.00    -0.061 C 
ATOM     24  H5  MOL d          63.813  34.725  24.603  0.00  0.00     0.029 H 
ATOM     25  H6  MOL d          62.488  34.844  25.810  0.00  0.00     0.029 H 
ATOM     26  H7  MOL d          63.389  33.303  25.615  0.00  0.00     0.029 H 
ENDBRANCH  20  23
ENDBRANCH   3  20
BRANCH   3  27
ATOM     27  C12 MOL d          65.096  32.512  27.246  0.00  0.00    -0.005 C 
ATOM     28  H10 MOL d          64.297  32.193  26.560  0.00  0.00     0.063 H 
ATOM     29  H11 MOL d          65.949  31.822  27.161  0.00  0.00     0.063 H 
BRANCH  27  30
ATOM     30  C13 MOL d          64.568  32.470  28.669  0.00  0.00    -0.061 C 
ATOM     31  H12 MOL d          65.257  33.015  29.331  0.00  0.00     0.029 H 
ATOM     32  H13 MOL d          64.493  31.423  29.001  0.00  0.00     0.029 H 
ATOM     33  H14 MOL d          63.575  32.939  28.706  0.00  0.00     0.029 H 
ENDBRANCH  27  30
ENDBRANCH   3  27
TORSDOF 8
ENDMDL
MODEL 4
REMARK VINA RESULT:      -5.1      1.556      2.037
REMARK  8 active torsions:
REMARK  status: ('A' for Active; 'I' for Inactive)
REMARK    1  A    between atoms: C1_1  and  O7_7 
REMARK    2  A    between atoms: C2_2  and  O16_14 
REMARK    3  A    between atoms: C14_12  and  C4_4 
REMARK    4  A    between atoms: C10_9  and  C9_8 
REMARK    5  A    between atoms: N3_15  and  C10_9 
REMARK    6  A    between atoms: C12_10  and  C13_11 
REMARK    7  A    between atoms: N3_15  and  C12_10 
REMARK       I    between atoms: C14_12  and  N3_15 
REMARK    8  A    between atoms: O16_14  and  C15_16 
ROOT
ATOM      1  C14 MOL d          65.292  37.227  25.543  0.00  0.00     0.253 C 
ATOM      2  O15 MOL d          65.449  38.172  26.282  0.00  0.00    -0.267 OA
ATOM      3  N3  MOL d          65.111  37.361  24.196  0.00  0.00    -0.349 N 
ENDROOT
BRANCH   1   4
ATOM      4  C4  MOL d          65.233  35.849  26.110  0.00  0.00     0.035 A 
ATOM      5  C3  MOL d          66.400  35.243  26.552  0.00  0.00    -0.033 A 
ATOM      6  C2  MOL d          66.394  33.964  27.062  0.00  0.00     0.102 A 
ATOM      7  H1  MOL d          67.336  35.787  26.494  0.00  0.00     0.089 H 
ATOM      8  C1  MOL d          65.186  33.267  27.161  0.00  0.00     0.099 A 
ATOM      9  C6  MOL d          63.999  33.872  26.720  0.00  0.00    -0.047 A 
ATOM     10  C5  MOL d          64.023  35.153  26.201  0.00  0.00    -0.065 A 
ATOM     11  H3  MOL d          63.061  33.333  26.787  0.00  0.00     0.087 H 
ATOM     12  H2  MOL d          63.104  35.618  25.863  0.00  0.00     0.085 H 
BRANCH   6  13
ATOM     13  O16 MOL d          67.518  33.323  27.515  0.00  0.00    -0.353 OA
BRANCH  13  14
ATOM     14  C15 MOL d          68.802  33.923  27.196  0.00  0.00     0.010 C 
ATOM     15  H15 MOL d          69.441  33.917  28.091  0.00  0.00     0.066 H 
ATOM     16  H16 MOL d          68.649  34.959  26.861  0.00  0.00     0.066 H 
ATOM     17  H17 MOL d          69.287  33.346  26.395  0.00  0.00     0.066 H 
ENDBRANCH  13  14
ENDBRANCH   6  13
BRANCH   8  18
ATOM     18  O7  MOL d          65.177  32.013  27.694  0.00  0.00    -0.358 OA
ATOM     19  H4  MOL d          64.399  31.903  28.230  0.00  0.00     0.217 HD
ENDBRANCH   8  18
ENDBRANCH   1   4
BRANCH   3  20
ATOM     20  C10 MOL d          65.319  36.220  23.281  0.00  0.00    -0.005 C 
ATOM     21  H8  MOL d          65.895  36.567  22.410  0.00  0.00     0.063 H 
ATOM     22  H9  MOL d          65.887  35.442  23.811  0.00  0.00     0.063 H 
BRANCH  20  23
ATOM     23  C9  MOL d          64.016  35.626  22.796  0.00  0.00    -0.061 C 
ATOM     24  H5  MOL d          64.033  34.535  22.943  0.00  0.00     0.029 H 
ATOM     25  H6  MOL d          63.887  35.849  21.727  0.00  0.00     0.029 H 
ATOM     26  H7  MOL d          63.181  36.059  23.364  0.00  0.00     0.029 H 
ENDBRANCH  20  23
ENDBRANCH   3  20
BRANCH   3  27
ATOM     27  C12 MOL d          64.914  38.666  23.564  0.00  0.00    -0.005 C 
ATOM     28  H10 MOL d          63.841  38.805  23.364  0.00  0.00     0.063 H 
ATOM     29  H11 MOL d          65.265  39.451  24.251  0.00  0.00     0.063 H 
BRANCH  27  30
ATOM     30  C13 MOL d          65.676  38.779  22.256  0.00  0.00    -0.061 C 
ATOM     31  H12 MOL d          65.725  39.834  21.951  0.00  0.00     0.029 H 
ATOM     32  H13 MOL d          65.160  38.196  21.479  0.00  0.00     0.029 H 
ATOM     33  H14 MOL d          66.696  38.389  22.391  0.00  0.00     0.029 H 
ENDBRANCH  27  30
ENDBRANCH   3  27
TORSDOF 8
ENDMDL
MODEL 5
REMARK VINA RESULT:      -4.7      2.859      4.758
REMARK  8 active torsions:
REMARK  status: ('A' for Active; 'I' for Inactive)
REMARK    1  A    between atoms: C1_1  and  O7_7 
REMARK    2  A    between atoms: C2_2  and  O16_14 
REMARK    3  A    between atoms: C14_12  and  C4_4 
REMARK    4  A    between atoms: C10_9  and  C9_8 
REMARK    5  A    between atoms: N3_15  and  C10_9 
REMARK    6  A    between atoms: C12_10  and  C13_11 
REMARK    7  A    between atoms: N3_15  and  C12_10 
REMARK       I    between atoms: C14_12  and  N3_15 
REMARK    8  A    between atoms: O16_14  and  C15_16 
ROOT
ATOM      1  C14 MOL d          66.449  38.171  26.862  0.00  0.00     0.253 C 
ATOM      2  O15 MOL d          65.761  38.880  27.561  0.00  0.00    -0.267 OA
ATOM      3  N3  MOL d          67.812  38.143  26.948  0.00  0.00    -0.349 N 
ENDROOT
BRANCH   1   4
ATOM      4  C4  MOL d          65.809  37.325  25.814  0.00  0.00     0.035 A 
ATOM      5  C3  MOL d          65.195  36.136  26.179  0.00  0.00    -0.033 A 
ATOM      6  C2  MOL d          64.612  35.313  25.243  0.00  0.00     0.102 A 
ATOM      7  H1  MOL d          65.174  35.848  27.224  0.00  0.00     0.089 H 
ATOM      8  C1  MOL d          64.615  35.691  23.896  0.00  0.00     0.099 A 
ATOM      9  C6  MOL d          65.231  36.893  23.516  0.00  0.00    -0.047 A 
ATOM     10  C5  MOL d          65.822  37.704  24.467  0.00  0.00    -0.065 A 
ATOM     11  H3  MOL d          65.243  37.187  22.472  0.00  0.00     0.087 H 
ATOM     12  H2  MOL d          66.294  38.632  24.170  0.00  0.00     0.085 H 
BRANCH   6  13
ATOM     13  O16 MOL d          63.989  34.132  25.552  0.00  0.00    -0.353 OA
BRANCH  13  14
ATOM     14  C15 MOL d          63.608  33.923  26.938  0.00  0.00     0.010 C 
ATOM     15  H15 MOL d          63.200  32.908  27.057  0.00  0.00     0.066 H 
ATOM     16  H16 MOL d          62.843  34.660  27.223  0.00  0.00     0.066 H 
ATOM     17  H17 MOL d          64.490  34.041  27.584  0.00  0.00     0.066 H 
ENDBRANCH  13  14
ENDBRANCH   6  13
BRANCH   8  18
ATOM     18  O7  MOL d          64.010  34.891  22.973  0.00  0.00    -0.358 OA
ATOM     19  H4  MOL d          64.638  34.258  22.644  0.00  0.00     0.217 HD
ENDBRANCH   8  18
ENDBRANCH   1   4
BRANCH   3  20
ATOM     20  C10 MOL d          68.589  37.017  26.390  0.00  0.00    -0.005 C 
ATOM     21  H8  MOL d          68.184  36.766  25.399  0.00  0.00     0.063 H 
ATOM     22  H9  MOL d          69.639  37.328  26.290  0.00  0.00     0.063 H 
BRANCH  20  23
ATOM     23  C9  MOL d          68.528  35.785  27.266  0.00  0.00    -0.061 C 
ATOM     24  H5  MOL d          69.368  35.118  27.019  0.00  0.00     0.029 H 
ATOM     25  H6  MOL d          67.578  35.259  27.092  0.00  0.00     0.029 H 
ATOM     26  H7  MOL d          68.594  36.083  28.322  0.00  0.00     0.029 H 
ENDBRANCH  20  23
ENDBRANCH   3  20
BRANCH   3  27
ATOM     27  C12 MOL d          68.559  39.098  27.766  0.00  0.00    -0.005 C 
ATOM     28  H10 MOL d          69.446  39.430  27.206  0.00  0.00     0.063 H 
ATOM     29  H11 MOL d          67.915  39.964  27.981  0.00  0.00     0.063 H 
BRANCH  27  30
ATOM     30  C13 MOL d          69.009  38.482  29.079  0.00  0.00    -0.061 C 
ATOM     31  H12 MOL d          70.083  38.252  29.027  0.00  0.00     0.029 H 
ATOM     32  H13 MOL d          68.445  37.555  29.262  0.00  0.00     0.029 H 
ATOM     33  H14 MOL d          68.826  39.192  29.899  0.00  0.00     0.029 H 
ENDBRANCH  27  30
ENDBRANCH   3  27
TORSDOF 8
ENDMDL
MODEL 6
REMARK VINA RESULT:      -4.6      2.682      5.359
REMARK  8 active torsions:
REMARK  status: ('A' for Active; 'I' for Inactive)
REMARK    1  A    between atoms: C1_1  and  O7_7 
REMARK    2  A    between atoms: C2_2  and  O16_14 
REMARK    3  A    between atoms: C14_12  and  C4_4 
REMARK    4  A    between atoms: C10_9  and  C9_8 
REMARK    5  A    between atoms: N3_15  and  C10_9 
REMARK    6  A    between atoms: C12_10  and  C13_11 
REMARK    7  A    between atoms: N3_15  and  C12_10 
REMARK       I    between atoms: C14_12  and  N3_15 
REMARK    8  A    between atoms: O16_14  and  C15_16 
ROOT
ATOM      1  C14 MOL d          66.769  34.146  26.307  0.00  0.00     0.253 C 
ATOM      2  O15 MOL d          67.849  33.607  26.402  0.00  0.00    -0.267 OA
ATOM      3  N3  MOL d          65.618  33.590  26.788  0.00  0.00    -0.349 N 
ENDROOT
BRANCH   1   4
ATOM      4  C4  MOL d          66.655  35.447  25.587  0.00  0.00     0.035 A 
ATOM      5  C3  MOL d          67.191  36.592  26.158  0.00  0.00    -0.033 A 
ATOM      6  C2  MOL d          67.090  37.817  25.540  0.00  0.00     0.102 A 
ATOM      7  H1  MOL d          67.701  36.520  27.112  0.00  0.00     0.089 H 
ATOM      8  C1  MOL d          66.454  37.911  24.297  0.00  0.00     0.099 A 
ATOM      9  C6  MOL d          65.911  36.759  23.709  0.00  0.00    -0.047 A 
ATOM     10  C5  MOL d          66.012  35.537  24.348  0.00  0.00    -0.065 A 
ATOM     11  H3  MOL d          65.410  36.827  22.750  0.00  0.00     0.087 H 
ATOM     12  H2  MOL d          65.593  34.649  23.889  0.00  0.00     0.085 H 
BRANCH   6  13
ATOM     13  O16 MOL d          67.606  38.975  26.060  0.00  0.00    -0.353 OA
BRANCH  13  14
ATOM     14  C15 MOL d          68.945  38.916  26.618  0.00  0.00     0.010 C 
ATOM     15  H15 MOL d          69.498  39.826  26.342  0.00  0.00     0.066 H 
ATOM     16  H16 MOL d          69.469  38.035  26.221  0.00  0.00     0.066 H 
ATOM     17  H17 MOL d          68.883  38.844  27.714  0.00  0.00     0.066 H 
ENDBRANCH  13  14
ENDBRANCH   6  13
BRANCH   8  18
ATOM     18  O7  MOL d          66.380  39.119  23.671  0.00  0.00    -0.358 OA
ATOM     19  H4  MOL d          67.246  39.374  23.374  0.00  0.00     0.217 HD
ENDBRANCH   8  18
ENDBRANCH   1   4
BRANCH   3  20
ATOM     20  C10 MOL d          64.412  34.411  27.018  0.00  0.00    -0.005 C 
ATOM     21  H8  MOL d          63.953  34.104  27.969  0.00  0.00     0.063 H 
ATOM     22  H9  MOL d          64.712  35.468  27.079  0.00  0.00     0.063 H 
BRANCH  20  23
ATOM     23  C9  MOL d          63.391  34.259  25.913  0.00  0.00    -0.061 C 
ATOM     24  H5  MOL d          63.439  35.134  25.246  0.00  0.00     0.029 H 
ATOM     25  H6  MOL d          62.385  34.187  26.351  0.00  0.00     0.029 H 
ATOM     26  H7  MOL d          63.607  33.347  25.337  0.00  0.00     0.029 H 
ENDBRANCH  20  23
ENDBRANCH   3  20
BRANCH   3  27
ATOM     27  C12 MOL d          65.570  32.219  27.296  0.00  0.00    -0.005 C 
ATOM     28  H10 MOL d          64.856  31.640  26.693  0.00  0.00     0.063 H 
ATOM     29  H11 MOL d          66.572  31.772  27.209  0.00  0.00     0.063 H 
BRANCH  27  30
ATOM     30  C13 MOL d          65.136  32.173  28.750  0.00  0.00    -0.061 C 
ATOM     31  H12 MOL d          64.228  32.780  28.881  0.00  0.00     0.029 H 
ATOM     32  H13 MOL d          65.940  32.575  29.386  0.00  0.00     0.029 H 
ATOM     33  H14 MOL d          64.927  31.133  29.038  0.00  0.00     0.029 H 
ENDBRANCH  27  30
ENDBRANCH   3  27
TORSDOF 8
ENDMDL
MODEL 7
REMARK VINA RESULT:      -4.4      2.035      5.501
REMARK  8 active torsions:
REMARK  status: ('A' for Active; 'I' for Inactive)
REMARK    1  A    between atoms: C1_1  and  O7_7 
REMARK    2  A    between atoms: C2_2  and  O16_14 
REMARK    3  A    between atoms: C14_12  and  C4_4 
REMARK    4  A    between atoms: C10_9  and  C9_8 
REMARK    5  A    between atoms: N3_15  and  C10_9 
REMARK    6  A    between atoms: C12_10  and  C13_11 
REMARK    7  A    between atoms: N3_15  and  C12_10 
REMARK       I    between atoms: C14_12  and  N3_15 
REMARK    8  A    between atoms: O16_14  and  C15_16 
ROOT
ATOM      1  C14 MOL d          66.906  34.920  26.835  0.00  0.00     0.253 C 
ATOM      2  O15 MOL d          67.892  35.088  27.516  0.00  0.00    -0.267 OA
ATOM      3  N3  MOL d          66.278  33.713  26.725  0.00  0.00    -0.349 N 
ENDROOT
BRANCH   1   4
ATOM      4  C4  MOL d          66.368  36.051  26.026  0.00  0.00     0.035 A 
ATOM      5  C3  MOL d          65.807  35.795  24.783  0.00  0.00    -0.033 A 
ATOM      6  C2  MOL d          65.318  36.811  23.994  0.00  0.00     0.102 A 
ATOM      7  H1  MOL d          65.753  34.773  24.426  0.00  0.00     0.089 H 
ATOM      8  C1  MOL d          65.363  38.129  24.460  0.00  0.00     0.099 A 
ATOM      9  C6  MOL d          65.926  38.400  25.717  0.00  0.00    -0.047 A 
ATOM     10  C5  MOL d          66.422  37.369  26.494  0.00  0.00    -0.065 A 
ATOM     11  H3  MOL d          65.971  39.420  26.080  0.00  0.00     0.087 H 
ATOM     12  H2  MOL d          66.853  37.582  27.465  0.00  0.00     0.085 H 
BRANCH   6  13
ATOM     13  O16 MOL d          64.752  36.610  22.762  0.00  0.00    -0.353 OA
BRANCH  13  14
ATOM     14  C15 MOL d          63.465  35.937  22.722  0.00  0.00     0.010 C 
ATOM     15  H15 MOL d          63.580  34.955  22.241  0.00  0.00     0.066 H 
ATOM     16  H16 MOL d          62.751  36.546  22.147  0.00  0.00     0.066 H 
ATOM     17  H17 MOL d          63.090  35.801  23.747  0.00  0.00     0.066 H 
ENDBRANCH  13  14
ENDBRANCH   6  13
BRANCH   8  18
ATOM     18  O7  MOL d          64.852  39.131  23.691  0.00  0.00    -0.358 OA
ATOM     19  H4  MOL d          63.941  39.272  23.922  0.00  0.00     0.217 HD
ENDBRANCH   8  18
ENDBRANCH   1   4
BRANCH   3  20
ATOM     20  C10 MOL d          64.889  33.618  26.230  0.00  0.00    -0.005 C 
ATOM     21  H8  MOL d          64.667  34.512  25.630  0.00  0.00     0.063 H 
ATOM     22  H9  MOL d          64.800  32.721  25.599  0.00  0.00     0.063 H 
BRANCH  20  23
ATOM     23  C9  MOL d          63.882  33.523  27.353  0.00  0.00    -0.061 C 
ATOM     24  H5  MOL d          64.298  33.989  28.259  0.00  0.00     0.029 H 
ATOM     25  H6  MOL d          63.656  32.466  27.555  0.00  0.00     0.029 H 
ATOM     26  H7  MOL d          62.959  34.046  27.063  0.00  0.00     0.029 H 
ENDBRANCH  20  23
ENDBRANCH   3  20
BRANCH   3  27
ATOM     27  C12 MOL d          66.849  32.485  27.278  0.00  0.00    -0.005 C 
ATOM     28  H10 MOL d          67.169  32.677  28.313  0.00  0.00     0.063 H 
ATOM     29  H11 MOL d          66.080  31.699  27.271  0.00  0.00     0.063 H 
BRANCH  27  30
ATOM     30  C13 MOL d          68.046  32.010  26.474  0.00  0.00    -0.061 C 
ATOM     31  H12 MOL d          68.027  30.913  26.403  0.00  0.00     0.029 H 
ATOM     32  H13 MOL d          68.973  32.328  26.974  0.00  0.00     0.029 H 
ATOM     33  H14 MOL d          68.006  32.443  25.464  0.00  0.00     0.029 H 
ENDBRANCH  27  30
ENDBRANCH   3  27
TORSDOF 8
ENDMDL
MODEL 8
REMARK VINA RESULT:      -4.4      2.970      5.248
REMARK  8 active torsions:
REMARK  status: ('A' for Active; 'I' for Inactive)
REMARK    1  A    between atoms: C1_1  and  O7_7 
REMARK    2  A    between atoms: C2_2  and  O16_14 
REMARK    3  A    between atoms: C14_12  and  C4_4 
REMARK    4  A    between atoms: C10_9  and  C9_8 
REMARK    5  A    between atoms: N3_15  and  C10_9 
REMARK    6  A    between atoms: C12_10  and  C13_11 
REMARK    7  A    between atoms: N3_15  and  C12_10 
REMARK       I    between atoms: C14_12  and  N3_15 
REMARK    8  A    between atoms: O16_14  and  C15_16 
ROOT
ATOM      1  C14 MOL d          66.619  38.092  27.038  0.00  0.00     0.253 C 
ATOM      2  O15 MOL d          65.959  38.823  27.741  0.00  0.00    -0.267 OA
ATOM      3  N3  MOL d          67.978  37.999  27.134  0.00  0.00    -0.349 N 
ENDROOT
BRANCH   1   4
ATOM      4  C4  MOL d          65.949  37.289  25.975  0.00  0.00     0.035 A 
ATOM      5  C3  MOL d          65.820  37.819  24.700  0.00  0.00    -0.033 A 
ATOM      6  C2  MOL d          65.189  37.122  23.694  0.00  0.00     0.102 A 
ATOM      7  H1  MOL d          66.224  38.803  24.490  0.00  0.00     0.089 H 
ATOM      8  C1  MOL d          64.686  35.843  23.952  0.00  0.00     0.099 A 
ATOM      9  C6  MOL d          64.814  35.296  25.238  0.00  0.00    -0.047 A 
ATOM     10  C5  MOL d          65.441  36.012  26.240  0.00  0.00    -0.065 A 
ATOM     11  H3  MOL d          64.419  34.308  25.447  0.00  0.00     0.087 H 
ATOM     12  H2  MOL d          65.540  35.586  27.232  0.00  0.00     0.085 H 
BRANCH   6  13
ATOM     13  O16 MOL d          65.040  37.600  22.418  0.00  0.00    -0.353 OA
BRANCH  13  14
ATOM     14  C15 MOL d          66.186  38.255  21.813  0.00  0.00     0.010 C 
ATOM     15  H15 MOL d          66.767  38.770  22.592  0.00  0.00     0.066 H 
ATOM     16  H16 MOL d          65.839  38.989  21.071  0.00  0.00     0.066 H 
ATOM     17  H17 MOL d          66.820  37.504  21.319  0.00  0.00     0.066 H 
ENDBRANCH  13  14
ENDBRANCH   6  13
BRANCH   8  18
ATOM     18  O7  MOL d          64.089  35.141  22.949  0.00  0.00    -0.358 OA
ATOM     19  H4  MOL d          63.815  34.292  23.277  0.00  0.00     0.217 HD
ENDBRANCH   8  18
ENDBRANCH   1   4
BRANCH   3  20
ATOM     20  C10 MOL d          68.706  36.846  26.567  0.00  0.00    -0.005 C 
ATOM     21  H8  MOL d          68.331  36.657  25.550  0.00  0.00     0.063 H 
ATOM     22  H9  MOL d          69.777  37.091  26.523  0.00  0.00     0.063 H 
BRANCH  20  23
ATOM     23  C9  MOL d          68.528  35.590  27.391  0.00  0.00    -0.061 C 
ATOM     24  H5  MOL d          69.257  34.832  27.067  0.00  0.00     0.029 H 
ATOM     25  H6  MOL d          67.509  35.201  27.251  0.00  0.00     0.029 H 
ATOM     26  H7  MOL d          68.689  35.823  28.454  0.00  0.00     0.029 H 
ENDBRANCH  20  23
ENDBRANCH   3  20
BRANCH   3  27
ATOM     27  C12 MOL d          68.762  38.908  27.970  0.00  0.00    -0.005 C 
ATOM     28  H10 MOL d          69.623  39.272  27.390  0.00  0.00     0.063 H 
ATOM     29  H11 MOL d          68.129  39.759  28.261  0.00  0.00     0.063 H 
BRANCH  27  30
ATOM     30  C13 MOL d          69.270  38.220  29.224  0.00  0.00    -0.061 C 
ATOM     31  H12 MOL d          70.252  38.633  29.496  0.00  0.00     0.029 H 
ATOM     32  H13 MOL d          69.366  37.140  29.037  0.00  0.00     0.029 H 
ATOM     33  H14 MOL d          68.561  38.389  30.048  0.00  0.00     0.029 H 
ENDBRANCH  27  30
ENDBRANCH   3  27
TORSDOF 8
ENDMDL
MODEL 9
REMARK VINA RESULT:      -3.4      2.445      4.576
REMARK  8 active torsions:
REMARK  status: ('A' for Active; 'I' for Inactive)
REMARK    1  A    between atoms: C1_1  and  O7_7 
REMARK    2  A    between atoms: C2_2  and  O16_14 
REMARK    3  A    between atoms: C14_12  and  C4_4 
REMARK    4  A    between atoms: C10_9  and  C9_8 
REMARK    5  A    between atoms: N3_15  and  C10_9 
REMARK    6  A    between atoms: C12_10  and  C13_11 
REMARK    7  A    between atoms: N3_15  and  C12_10 
REMARK       I    between atoms: C14_12  and  N3_15 
REMARK    8  A    between atoms: O16_14  and  C15_16 
ROOT
ATOM      1  C14 MOL d          66.697  37.961  25.058  0.00  0.00     0.253 C 
ATOM      2  O15 MOL d          66.903  39.098  24.698  0.00  0.00    -0.267 OA
ATOM      3  N3  MOL d          67.496  37.312  25.956  0.00  0.00    -0.349 N 
ENDROOT
BRANCH   1   4
ATOM      4  C4  MOL d          65.562  37.194  24.468  0.00  0.00     0.035 A 
ATOM      5  C3  MOL d          64.907  36.245  25.238  0.00  0.00    -0.033 A 
ATOM      6  C2  MOL d          63.870  35.499  24.727  0.00  0.00     0.102 A 
ATOM      7  H1  MOL d          65.219  36.087  26.264  0.00  0.00     0.089 H 
ATOM      8  C1  MOL d          63.447  35.716  23.411  0.00  0.00     0.099 A 
ATOM      9  C6  MOL d          64.101  36.676  22.624  0.00  0.00    -0.047 A 
ATOM     10  C5  MOL d          65.149  37.410  23.148  0.00  0.00    -0.065 A 
ATOM     11  H3  MOL d          63.784  36.842  21.600  0.00  0.00     0.087 H 
ATOM     12  H2  MOL d          65.650  38.152  22.538  0.00  0.00     0.085 H 
BRANCH   6  13
ATOM     13  O16 MOL d          63.188  34.553  25.447  0.00  0.00    -0.353 OA
BRANCH  13  14
ATOM     14  C15 MOL d          63.735  34.175  26.738  0.00  0.00     0.010 C 
ATOM     15  H15 MOL d          64.675  34.720  26.911  0.00  0.00     0.066 H 
ATOM     16  H16 MOL d          63.932  33.093  26.750  0.00  0.00     0.066 H 
ATOM     17  H17 MOL d          63.015  34.427  27.530  0.00  0.00     0.066 H 
ENDBRANCH  13  14
ENDBRANCH   6  13
BRANCH   8  18
ATOM     18  O7  MOL d          62.400  34.998  22.914  0.00  0.00    -0.358 OA
ATOM     19  H4  MOL d          61.585  35.374  23.225  0.00  0.00     0.217 HD
ENDBRANCH   8  18
ENDBRANCH   1   4
BRANCH   3  20
ATOM     20  C10 MOL d          67.020  36.109  26.669  0.00  0.00    -0.005 C 
ATOM     21  H8  MOL d          66.784  36.385  27.708  0.00  0.00     0.063 H 
ATOM     22  H9  MOL d          66.111  35.740  26.172  0.00  0.00     0.063 H 
BRANCH  20  23
ATOM     23  C9  MOL d          68.051  35.002  26.683  0.00  0.00    -0.061 C 
ATOM     24  H5  MOL d          67.591  34.068  26.325  0.00  0.00     0.029 H 
ATOM     25  H6  MOL d          68.420  34.858  27.709  0.00  0.00     0.029 H 
ATOM     26  H7  MOL d          68.889  35.273  26.026  0.00  0.00     0.029 H 
ENDBRANCH  20  23
ENDBRANCH   3  20
BRANCH   3  27
ATOM     27  C12 MOL d          68.764  37.875  26.418  0.00  0.00    -0.005 C 
ATOM     28  H10 MOL d          69.534  37.090  26.388  0.00  0.00     0.063 H 
ATOM     29  H11 MOL d          69.053  38.699  25.748  0.00  0.00     0.063 H 
BRANCH  27  30
ATOM     30  C13 MOL d          68.660  38.408  27.836  0.00  0.00    -0.061 C 
ATOM     31  H12 MOL d          68.794  39.499  27.828  0.00  0.00     0.029 H 
ATOM     32  H13 MOL d          69.441  37.948  28.459  0.00  0.00     0.029 H 
ATOM     33  H14 MOL d          67.670  38.164  28.248  0.00  0.00     0.029 H 
ENDBRANCH  27  30
ENDBRANCH   3  27
TORSDOF 8
ENDMDL
MODEL 10
REMARK VINA RESULT:      -3.2      2.361      5.227
REMARK  8 active torsions:
REMARK  status: ('A' for Active; 'I' for Inactive)
REMARK    1  A    between atoms: C1_1  and  O7_7 
REMARK    2  A    between atoms: C2_2  and  O16_14 
REMARK    3  A    between atoms: C14_12  and  C4_4 
REMARK    4  A    between atoms: C10_9  and  C9_8 
REMARK    5  A    between atoms: N3_15  and  C10_9 
REMARK    6  A    between atoms: C12_10  and  C13_11 
REMARK    7  A    between atoms: N3_15  and  C12_10 
REMARK       I    between atoms: C14_12  and  N3_15 
REMARK    8  A    between atoms: O16_14  and  C15_16 
ROOT
ATOM      1  C14 MOL d          65.461  33.914  26.662  0.00  0.00     0.253 C 
ATOM      2  O15 MOL d          64.375  33.455  26.934  0.00  0.00    -0.267 OA
ATOM      3  N3  MOL d          66.613  33.506  27.272  0.00  0.00    -0.349 N 
ENDROOT
BRANCH   1   4
ATOM      4  C4  MOL d          65.566  35.014  25.661  0.00  0.00     0.035 A 
ATOM      5  C3  MOL d          66.360  36.117  25.941  0.00  0.00    -0.033 A 
ATOM      6  C2  MOL d          66.469  37.165  25.057  0.00  0.00     0.102 A 
ATOM      7  H1  MOL d          66.906  36.154  26.877  0.00  0.00     0.089 H 
ATOM      8  C1  MOL d          65.786  37.112  23.837  0.00  0.00     0.099 A 
ATOM      9  C6  MOL d          64.982  36.001  23.542  0.00  0.00    -0.047 A 
ATOM     10  C5  MOL d          64.875  34.960  24.446  0.00  0.00    -0.065 A 
ATOM     11  H3  MOL d          64.443  35.957  22.602  0.00  0.00     0.087 H 
ATOM     12  H2  MOL d          64.255  34.102  24.214  0.00  0.00     0.085 H 
BRANCH   6  13
ATOM     13  O16 MOL d          67.242  38.274  25.284  0.00  0.00    -0.353 OA
BRANCH  13  14
ATOM     14  C15 MOL d          68.026  38.300  26.506  0.00  0.00     0.010 C 
ATOM     15  H15 MOL d          68.997  37.814  26.329  0.00  0.00     0.066 H 
ATOM     16  H16 MOL d          67.487  37.762  27.300  0.00  0.00     0.066 H 
ATOM     17  H17 MOL d          68.189  39.343  26.816  0.00  0.00     0.066 H 
ENDBRANCH  13  14
ENDBRANCH   6  13
BRANCH   8  18
ATOM     18  O7  MOL d          65.917  38.137  22.948  0.00  0.00    -0.358 OA
ATOM     19  H4  MOL d          65.344  38.851  23.202  0.00  0.00     0.217 HD
ENDBRANCH   8  18
ENDBRANCH   1   4
BRANCH   3  20
ATOM     20  C10 MOL d          67.933  33.775  26.668  0.00  0.00    -0.005 C 
ATOM     21  H8  MOL d          68.457  32.818  26.525  0.00  0.00     0.063 H 
ATOM     22  H9  MOL d          67.782  34.260  25.692  0.00  0.00     0.063 H 
BRANCH  20  23
ATOM     23  C9  MOL d          68.790  34.674  27.530  0.00  0.00    -0.061 C 
ATOM     24  H5  MOL d          68.385  34.696  28.553  0.00  0.00     0.029 H 
ATOM     25  H6  MOL d          68.789  35.692  27.114  0.00  0.00     0.029 H 
ATOM     26  H7  MOL d          69.820  34.289  27.552  0.00  0.00     0.029 H 
ENDBRANCH  20  23
ENDBRANCH   3  20
BRANCH   3  27
ATOM     27  C12 MOL d          66.605  32.610  28.428  0.00  0.00    -0.005 C 
ATOM     28  H10 MOL d          67.322  31.795  28.252  0.00  0.00     0.063 H 
ATOM     29  H11 MOL d          66.907  33.178  29.321  0.00  0.00     0.063 H 
BRANCH  27  30
ATOM     30  C13 MOL d          65.230  32.012  28.668  0.00  0.00    -0.061 C 
ATOM     31  H12 MOL d          64.622  32.115  27.757  0.00  0.00     0.029 H 
ATOM     32  H13 MOL d          64.739  32.542  29.498  0.00  0.00     0.029 H 
ATOM     33  H14 MOL d          65.332  30.947  28.921  0.00  0.00     0.029 H 
ENDBRANCH  27  30
ENDBRANCH   3  27
TORSDOF 8
ENDMDL
