MODEL 1
REMARK VINA RESULT:     -10.6      0.000      0.000
REMARK  10 active torsions:
REMARK  status: ('A' for Active; 'I' for Inactive)
REMARK    1  A    between atoms: C1_1  and  O8_8 
REMARK    2  A    between atoms: C2_2  and  O9_9 
REMARK    3  A    between atoms: C3_3  and  N7_7 
REMARK    4  A    between atoms: C5_5  and  C6_6 
REMARK    5  A    between atoms: C10_10  and  C11_11 
REMARK    6  A    between atoms: C11_11  and  N12_12 
REMARK       I    between atoms: N12_12  and  C13_13 
REMARK    7  A    between atoms: C13_13  and  C14_14 
REMARK    8  A    between atoms: C15_15  and  O21_21 
REMARK    9  A    between atoms: C16_16  and  O22_22 
REMARK   10  A    between atoms: C18_18  and  N20_20 
ROOT
ATOM      1  C6  OZZ d          36.425  -2.154 -10.725  0.00  0.00    -0.075 C 
ATOM      2  C10 OZZ d          36.093  -2.936  -9.720  0.00  0.00    -0.087 C 
ATOM      3  H5  OZZ d          37.188  -1.394 -10.561  0.00  0.00     0.080 H 
ATOM      4  H8  OZZ d          35.333  -3.697  -9.889  0.00  0.00     0.079 H 
ENDROOT
BRANCH   1   5
ATOM      5  C5  OZZ d          35.808  -2.260 -12.073  0.00  0.00     0.084 C 
ATOM      6  C1  OZZ d          36.938  -2.080 -13.180  0.00  0.00     0.092 C 
ATOM      7  C2  OZZ d          36.778  -0.576 -13.385  0.00  0.00     0.105 C 
ATOM      8  H1  OZZ d          37.941  -2.375 -12.841  0.00  0.00     0.091 H 
ATOM      9  C3  OZZ d          35.231  -0.405 -13.420  0.00  0.00     0.137 C 
ATOM     10  H2  OZZ d          37.216  -0.042 -12.529  0.00  0.00     0.093 H 
ATOM     11  O4  OZZ d          34.856  -1.208 -12.263  0.00  0.00    -0.352 OA
ATOM     12  H3  OZZ d          34.839  -0.831 -14.356  0.00  0.00     0.122 H 
ATOM     13  H4  OZZ d          35.318  -3.239 -12.182  0.00  0.00     0.093 H 
BRANCH   6  14
ATOM     14  O8  OZZ d          36.562  -2.787 -14.370  0.00  0.00    -0.390 OA
ATOM     15  H6  OZZ d          37.239  -2.677 -15.029  0.00  0.00     0.210 HD
ENDBRANCH   6  14
BRANCH   7  16
ATOM     16  O9  OZZ d          37.335  -0.015 -14.603  0.00  0.00    -0.388 OA
ATOM     17  H7  OZZ d          36.977  -0.472 -15.355  0.00  0.00     0.210 HD
ENDBRANCH   7  16
BRANCH   9  18
ATOM     18  N7  OZZ d          34.666   0.890 -13.260  0.00  0.00    -0.337 N 
ATOM     19  C26 OZZ d          35.199   1.753 -12.247  0.00  0.00    -0.014 A 
ATOM     20  C27 OZZ d          34.679   3.004 -12.033  0.00  0.00    -0.020 A 
ATOM     21  H16 OZZ d          36.032   1.409 -11.636  0.00  0.00     0.111 H 
ATOM     22  C28 OZZ d          33.606   3.520 -12.862  0.00  0.00     0.174 A 
ATOM     23  H17 OZZ d          35.078   3.620 -11.229  0.00  0.00     0.091 H 
ATOM     24  C30 OZZ d          33.058   2.580 -13.866  0.00  0.00    -0.020 A 
ATOM     25  O31 OZZ d          33.225   4.678 -12.756  0.00  0.00    -0.288 OA
ATOM     26  C29 OZZ d          33.595   1.364 -13.990  0.00  0.00    -0.014 A 
ATOM     27  H19 OZZ d          32.222   2.877 -14.498  0.00  0.00     0.091 H 
ATOM     28  H18 OZZ d          33.153   0.693 -14.725  0.00  0.00     0.111 H 
ENDBRANCH   9  18
ENDBRANCH   1   5
BRANCH   2  29
ATOM     29  C11 OZZ d          36.701  -2.836  -8.361  0.00  0.00     0.010 C 
ATOM     30  H9  OZZ d          36.191  -2.051  -7.784  0.00  0.00     0.070 H 
ATOM     31  H10 OZZ d          37.769  -2.589  -8.452  0.00  0.00     0.070 H 
BRANCH  29  32
ATOM     32  N12 OZZ d          36.553  -4.100  -7.694  0.00  0.00    -0.353 N 
ATOM     33  C13 OZZ d          37.383  -4.527  -6.749  0.00  0.00     0.254 C 
ATOM     34  O23 OZZ d          38.316  -3.742  -6.351  0.00  0.00    -0.268 OA
ATOM     35  H11 OZZ d          35.788  -4.687  -7.954  0.00  0.00     0.163 HD
BRANCH  33  36
ATOM     36  C14 OZZ d          37.245  -5.875  -6.174  0.00  0.00     0.070 A 
ATOM     37  C15 OZZ d          36.068  -6.684  -6.356  0.00  0.00     0.114 A 
ATOM     38  C16 OZZ d          36.101  -7.972  -5.780  0.00  0.00     0.102 A 
ATOM     39  C17 OZZ d          37.157  -8.524  -5.062  0.00  0.00    -0.016 A 
ATOM     40  C18 OZZ d          38.324  -7.679  -4.963  0.00  0.00     0.106 A 
ATOM     41  H12 OZZ d          37.107  -9.510  -4.613  0.00  0.00     0.091 H 
ATOM     42  C19 OZZ d          38.301  -6.392  -5.512  0.00  0.00    -0.033 A 
ATOM     43  H13 OZZ d          39.184  -5.774  -5.399  0.00  0.00     0.089 H 
BRANCH  37  44
ATOM     44  O21 OZZ d          35.019  -6.217  -6.971  0.00  0.00    -0.357 OA
ATOM     45  H14 OZZ d          35.202  -5.339  -7.283  0.00  0.00     0.217 HD
ENDBRANCH  37  44
BRANCH  38  46
ATOM     46  O22 OZZ d          34.935  -8.725  -5.942  0.00  0.00    -0.358 OA
ATOM     47  H15 OZZ d          34.305  -8.227  -6.449  0.00  0.00     0.217 HD
ENDBRANCH  38  46
BRANCH  40  48
ATOM     48  N20 OZZ d          39.446  -8.206  -4.210  0.00  0.00    -0.116 N 
ATOM     49  O24 OZZ d          39.338  -9.207  -3.584  0.00  0.00    -0.532 OA
ATOM     50  O25 OZZ d          40.499  -7.592  -4.247  0.00  0.00    -0.532 OA
ENDBRANCH  40  48
ENDBRANCH  33  36
ENDBRANCH  29  32
ENDBRANCH   2  29
TORSDOF 10
ENDMDL
