MODEL 1
REMARK VINA RESULT:      -8.1      0.000      0.000
REMARK  10 active torsions:
REMARK  status: ('A' for Active; 'I' for Inactive)
REMARK    1  A    between atoms: C1_1  and  O8_8 
REMARK    2  A    between atoms: C2_2  and  O9_9 
REMARK    3  A    between atoms: C3_3  and  N7_7 
REMARK    4  A    between atoms: C5_5  and  C6_6 
REMARK    5  A    between atoms: C10_10  and  C11_11 
REMARK    6  A    between atoms: C11_11  and  N12_12 
REMARK       I    between atoms: N12_12  and  C13_13 
REMARK    7  A    between atoms: C13_13  and  C14_14 
REMARK    8  A    between atoms: C15_15  and  O21_21 
REMARK    9  A    between atoms: C16_16  and  O22_22 
REMARK   10  A    between atoms: C18_18  and  N20_20 
ROOT
ATOM      1  C6  OZZ d          36.830  -2.225 -10.712  0.00  0.00    -0.075 C 
ATOM      2  C10 OZZ d          36.217  -2.461  -9.571  0.00  0.00    -0.087 C 
ATOM      3  H5  OZZ d          37.868  -1.895 -10.685  0.00  0.00     0.080 H 
ATOM      4  H8  OZZ d          35.182  -2.795  -9.603  0.00  0.00     0.079 H 
ENDROOT
BRANCH   1   5
ATOM      5  C5  OZZ d          36.172  -2.387 -12.035  0.00  0.00     0.084 C 
ATOM      6  C1  OZZ d          37.252  -2.175 -13.185  0.00  0.00     0.092 C 
ATOM      7  C2  OZZ d          37.012  -0.684 -13.411  0.00  0.00     0.105 C 
ATOM      8  H1  OZZ d          38.280  -2.415 -12.877  0.00  0.00     0.091 H 
ATOM      9  C3  OZZ d          35.458  -0.589 -13.393  0.00  0.00     0.137 C 
ATOM     10  H2  OZZ d          37.454  -0.113 -12.581  0.00  0.00     0.093 H 
ATOM     11  O4  OZZ d          35.164  -1.386 -12.209  0.00  0.00    -0.352 OA
ATOM     12  H3  OZZ d          35.055  -1.051 -14.306  0.00  0.00     0.122 H 
ATOM     13  H4  OZZ d          35.727  -3.390 -12.108  0.00  0.00     0.093 H 
BRANCH   6  14
ATOM     14  O8  OZZ d          36.870  -2.922 -14.348  0.00  0.00    -0.390 OA
ATOM     15  H6  OZZ d          36.871  -2.348 -15.106  0.00  0.00     0.210 HD
ENDBRANCH   6  14
BRANCH   7  16
ATOM     16  O9  OZZ d          37.498  -0.121 -14.658  0.00  0.00    -0.388 OA
ATOM     17  H7  OZZ d          37.460  -0.782 -15.340  0.00  0.00     0.210 HD
ENDBRANCH   7  16
BRANCH   9  18
ATOM     18  N7  OZZ d          34.837   0.681 -13.235  0.00  0.00    -0.337 N 
ATOM     19  C26 OZZ d          33.787   1.050 -14.139  0.00  0.00    -0.014 A 
ATOM     20  C27 OZZ d          33.167   2.270 -14.048  0.00  0.00    -0.020 A 
ATOM     21  H16 OZZ d          33.476   0.349 -14.913  0.00  0.00     0.111 H 
ATOM     22  C28 OZZ d          33.514   3.210 -12.998  0.00  0.00     0.174 A 
ATOM     23  H17 OZZ d          32.403   2.538 -14.775  0.00  0.00     0.091 H 
ATOM     24  C30 OZZ d          34.632   2.805 -12.115  0.00  0.00    -0.020 A 
ATOM     25  O31 OZZ d          32.880   4.243 -12.838  0.00  0.00    -0.288 OA
ATOM     26  C29 OZZ d          35.210   1.614 -12.289  0.00  0.00    -0.014 A 
ATOM     27  H19 OZZ d          34.981   3.474 -11.330  0.00  0.00     0.091 H 
ATOM     28  H18 OZZ d          36.041   1.359 -11.634  0.00  0.00     0.111 H 
ENDBRANCH   9  18
ENDBRANCH   1   5
BRANCH   2  29
ATOM     29  C11 OZZ d          36.866  -2.298  -8.238  0.00  0.00     0.010 C 
ATOM     30  H9  OZZ d          36.308  -1.559  -7.643  0.00  0.00     0.070 H 
ATOM     31  H10 OZZ d          37.902  -1.954  -8.370  0.00  0.00     0.070 H 
BRANCH  29  32
ATOM     32  N12 OZZ d          36.860  -3.565  -7.562  0.00  0.00    -0.353 N 
ATOM     33  C13 OZZ d          37.879  -4.007  -6.833  0.00  0.00     0.254 C 
ATOM     34  O23 OZZ d          38.885  -3.233  -6.653  0.00  0.00    -0.268 OA
ATOM     35  H11 OZZ d          36.049  -4.144  -7.645  0.00  0.00     0.163 HD
BRANCH  33  36
ATOM     36  C14 OZZ d          37.861  -5.358  -6.250  0.00  0.00     0.070 A 
ATOM     37  C15 OZZ d          38.895  -5.844  -5.373  0.00  0.00     0.114 A 
ATOM     38  C16 OZZ d          38.716  -7.146  -4.858  0.00  0.00     0.102 A 
ATOM     39  C17 OZZ d          37.642  -7.992  -5.117  0.00  0.00    -0.016 A 
ATOM     40  C18 OZZ d          36.617  -7.422  -5.960  0.00  0.00     0.106 A 
ATOM     41  H12 OZZ d          37.580  -8.998  -4.717  0.00  0.00     0.091 H 
ATOM     42  C19 OZZ d          36.788  -6.139  -6.494  0.00  0.00    -0.033 A 
ATOM     43  H13 OZZ d          36.012  -5.750  -7.143  0.00  0.00     0.089 H 
BRANCH  37  44
ATOM     44  O21 OZZ d          39.956  -5.131  -5.126  0.00  0.00    -0.357 OA
ATOM     45  H14 OZZ d          39.849  -4.683  -4.296  0.00  0.00     0.217 HD
ENDBRANCH  37  44
BRANCH  38  46
ATOM     46  O22 OZZ d          39.749  -7.607  -4.037  0.00  0.00    -0.358 OA
ATOM     47  H15 OZZ d          39.889  -8.533  -4.195  0.00  0.00     0.217 HD
ENDBRANCH  38  46
BRANCH  40  48
ATOM     48  N20 OZZ d          35.484  -8.272  -6.270  0.00  0.00    -0.116 N 
ATOM     49  O24 OZZ d          35.102  -9.079  -5.490  0.00  0.00    -0.532 OA
ATOM     50  O25 OZZ d          34.938  -8.126  -7.351  0.00  0.00    -0.532 OA
ENDBRANCH  40  48
ENDBRANCH  33  36
ENDBRANCH  29  32
ENDBRANCH   2  29
TORSDOF 10
ENDMDL
