MODEL 1
REMARK VINA RESULT:      -9.8      0.000      0.000
REMARK  4 active torsions:
REMARK  status: ('A' for Active; 'I' for Inactive)
REMARK    1  A    between atoms: CAS_21  and  CAD_10 
REMARK    2  A    between atoms: NAQ_19  and  CAT_22 
REMARK    3  A    between atoms: CAV_24  and  NAQ_19 
REMARK    4  A    between atoms: CAR_20  and  CAU_23 
ROOT
ATOM      1  CAA E1B d          23.515 -30.517  20.322  0.00  0.00    -0.149 C 
ATOM      2  CAD E1B d          23.164 -29.523  19.743  0.00  0.00    -0.078 C 
ATOM      3  H3  E1B d          23.823 -31.390  20.830  0.00  0.00     0.166 H 
ENDROOT
BRANCH   2   4
ATOM      4  CAS E1B d          22.733 -28.298  19.027  0.00  0.00     0.019 A 
ATOM      5  CAG E1B d          22.235 -27.190  19.693  0.00  0.00    -0.065 A 
ATOM      6  CAE E1B d          21.851 -26.072  18.971  0.00  0.00    -0.079 A 
ATOM      7  H5  E1B d          22.147 -27.197  20.773  0.00  0.00     0.085 H 
ATOM      8  CAH E1B d          21.945 -26.056  17.587  0.00  0.00    -0.057 A 
ATOM      9  H4  E1B d          21.472 -25.201  19.493  0.00  0.00     0.083 H 
ATOM     10  CAT E1B d          22.435 -27.175  16.943  0.00  0.00     0.035 A 
ATOM     11  H6  E1B d          21.640 -25.181  17.023  0.00  0.00     0.086 H 
ATOM     12  CAL E1B d          22.826 -28.290  17.657  0.00  0.00    -0.039 A 
ATOM     13  H9  E1B d          23.207 -29.160  17.135  0.00  0.00     0.089 H 
BRANCH  10  14
ATOM     14  NAQ E1B d          22.574 -27.290  15.545  0.00  0.00    -0.339 N 
ATOM     15  H11 E1B d          22.500 -26.338  15.160  0.00  0.00     0.167 HD
BRANCH  14  16
ATOM     16  CAV E1B d          22.773 -28.158  14.450  0.00  0.00     0.158 A 
ATOM     17  C4  E1B d          23.062 -27.738  13.112  0.00  0.00     0.116 A 
ATOM     18  N3  E1B d          23.203 -26.404  12.767  0.00  0.00    -0.237 NA
ATOM     19  C5  E1B d          23.196 -28.711  12.139  0.00  0.00     0.027 A 
ATOM     20  C2  E1B d          23.471 -26.046  11.498  0.00  0.00     0.087 A 
ATOM     21  N1  E1B d          23.604 -26.974  10.519  0.00  0.00    -0.253 NA
ATOM     22  H1  E1B d          23.581 -24.996  11.254  0.00  0.00     0.146 H 
ATOM     23  C6  E1B d          23.480 -28.294  10.802  0.00  0.00     0.017 A 
ATOM     24  H2  E1B d          23.595 -29.032  10.016  0.00  0.00     0.116 H 
ATOM     25  CAY E1B d          23.033 -30.123  12.542  0.00  0.00     0.007 A 
ATOM     26  CAJ E1B d          23.172 -31.165  11.581  0.00  0.00    -0.069 A 
ATOM     27  CAW E1B d          22.774 -30.454  13.855  0.00  0.00     0.071 A 
ATOM     28  CAI E1B d          23.018 -32.493  11.996  0.00  0.00    -0.066 A 
ATOM     29  H8  E1B d          23.394 -30.933  10.545  0.00  0.00     0.085 H 
ATOM     30  CAU E1B d          22.752 -32.825  13.340  0.00  0.00     0.043 A 
ATOM     31  H7  E1B d          23.105 -33.287  11.264  0.00  0.00     0.085 H 
ATOM     32  CAM E1B d          22.618 -31.807  14.281  0.00  0.00    -0.038 A 
ATOM     33  H10 E1B d          22.400 -32.038  15.317  0.00  0.00     0.088 H 
ATOM     34  NAP E1B d          22.648 -29.446  14.780  0.00  0.00    -0.228 NA
BRANCH  30  35
ATOM     35  CAR E1B d          22.577 -34.254  13.750  0.00  0.00     0.209 C 
ATOM     36  OAB E1B d          23.048 -34.452  14.901  0.00  0.00    -0.644 OA
ATOM     37  OAC E1B d          21.918 -34.871  12.878  0.00  0.00    -0.644 OA
ENDBRANCH  30  35
ENDBRANCH  14  16
ENDBRANCH  10  14
ENDBRANCH   2   4
TORSDOF 4
ENDMDL
MODEL 2
REMARK VINA RESULT:      -9.6      3.437      8.026
REMARK  4 active torsions:
REMARK  status: ('A' for Active; 'I' for Inactive)
REMARK    1  A    between atoms: CAS_21  and  CAD_10 
REMARK    2  A    between atoms: NAQ_19  and  CAT_22 
REMARK    3  A    between atoms: CAV_24  and  NAQ_19 
REMARK    4  A    between atoms: CAR_20  and  CAU_23 
ROOT
ATOM      1  CAA E1B d          23.288 -29.903  10.293  0.00  0.00    -0.149 C 
ATOM      2  CAD E1B d          23.064 -30.843  11.009  0.00  0.00    -0.078 C 
ATOM      3  H3  E1B d          23.484 -29.078   9.664  0.00  0.00     0.166 H 
ENDROOT
BRANCH   2   4
ATOM      4  CAS E1B d          22.785 -32.001  11.891  0.00  0.00     0.019 A 
ATOM      5  CAG E1B d          22.638 -33.288  11.398  0.00  0.00    -0.065 A 
ATOM      6  CAE E1B d          22.381 -34.331  12.271  0.00  0.00    -0.079 A 
ATOM      7  H5  E1B d          22.724 -33.476  10.334  0.00  0.00     0.085 H 
ATOM      8  CAH E1B d          22.254 -34.101  13.633  0.00  0.00    -0.057 A 
ATOM      9  H4  E1B d          22.277 -35.339  11.886  0.00  0.00     0.083 H 
ATOM     10  CAT E1B d          22.394 -32.810  14.103  0.00  0.00     0.035 A 
ATOM     11  H6  E1B d          22.048 -34.919  14.315  0.00  0.00     0.086 H 
ATOM     12  CAL E1B d          22.657 -31.766  13.239  0.00  0.00    -0.039 A 
ATOM     13  H9  E1B d          22.763 -30.758  13.625  0.00  0.00     0.089 H 
BRANCH  10  14
ATOM     14  NAQ E1B d          22.281 -32.440  15.458  0.00  0.00    -0.339 N 
ATOM     15  H11 E1B d          22.076 -33.301  15.984  0.00  0.00     0.167 HD
BRANCH  14  16
ATOM     16  CAV E1B d          22.330 -31.390  16.400  0.00  0.00     0.158 A 
ATOM     17  C4  E1B d          22.255 -31.557  17.820  0.00  0.00     0.116 A 
ATOM     18  N3  E1B d          22.150 -32.802  18.416  0.00  0.00    -0.237 NA
ATOM     19  C5  E1B d          22.282 -30.423  18.610  0.00  0.00     0.027 A 
ATOM     20  C2  E1B d          22.077 -32.920  19.754  0.00  0.00     0.087 A 
ATOM     21  N1  E1B d          22.097 -31.829  20.558  0.00  0.00    -0.253 NA
ATOM     22  H1  E1B d          22.001 -33.906  20.198  0.00  0.00     0.146 H 
ATOM     23  C6  E1B d          22.202 -30.586  20.028  0.00  0.00     0.017 A 
ATOM     24  H2  E1B d          22.225 -29.718  20.677  0.00  0.00     0.116 H 
ATOM     25  CAY E1B d          22.389 -29.111  17.939  0.00  0.00     0.007 A 
ATOM     26  CAJ E1B d          22.432 -27.913  18.708  0.00  0.00    -0.069 A 
ATOM     27  CAW E1B d          22.476 -29.028  16.566  0.00  0.00     0.071 A 
ATOM     28  CAI E1B d          22.538 -26.686  18.043  0.00  0.00    -0.066 A 
ATOM     29  H8  E1B d          22.383 -27.951  19.790  0.00  0.00     0.085 H 
ATOM     30  CAU E1B d          22.627 -26.608  16.638  0.00  0.00     0.043 A 
ATOM     31  H7  E1B d          22.553 -25.771  18.623  0.00  0.00     0.085 H 
ATOM     32  CAM E1B d          22.587 -27.780  15.885  0.00  0.00    -0.038 A 
ATOM     33  H10 E1B d          22.640 -27.743  14.803  0.00  0.00     0.088 H 
ATOM     34  NAP E1B d          22.441 -30.188  15.830  0.00  0.00    -0.228 NA
BRANCH  30  35
ATOM     35  CAR E1B d          22.726 -25.280  15.954  0.00  0.00     0.209 C 
ATOM     36  OAB E1B d          23.257 -24.424  16.708  0.00  0.00    -0.644 OA
ATOM     37  OAC E1B d          22.339 -25.383  14.764  0.00  0.00    -0.644 OA
ENDBRANCH  30  35
ENDBRANCH  14  16
ENDBRANCH  10  14
ENDBRANCH   2   4
TORSDOF 4
ENDMDL
MODEL 3
REMARK VINA RESULT:      -9.4      2.345      5.519
REMARK  4 active torsions:
REMARK  status: ('A' for Active; 'I' for Inactive)
REMARK    1  A    between atoms: CAS_21  and  CAD_10 
REMARK    2  A    between atoms: NAQ_19  and  CAT_22 
REMARK    3  A    between atoms: CAV_24  and  NAQ_19 
REMARK    4  A    between atoms: CAR_20  and  CAU_23 
ROOT
ATOM      1  CAA E1B d          22.678 -26.407  11.567  0.00  0.00    -0.149 C 
ATOM      2  CAD E1B d          22.659 -26.229  12.756  0.00  0.00    -0.078 C 
ATOM      3  H3  E1B d          22.696 -26.563  10.522  0.00  0.00     0.166 H 
ENDROOT
BRANCH   2   4
ATOM      4  CAS E1B d          22.638 -26.012  14.222  0.00  0.00     0.019 A 
ATOM      5  CAG E1B d          22.672 -24.745  14.782  0.00  0.00    -0.065 A 
ATOM      6  CAE E1B d          22.648 -24.603  16.159  0.00  0.00    -0.079 A 
ATOM      7  H5  E1B d          22.718 -23.869  14.145  0.00  0.00     0.085 H 
ATOM      8  CAH E1B d          22.605 -25.716  16.986  0.00  0.00    -0.057 A 
ATOM      9  H4  E1B d          22.663 -23.611  16.597  0.00  0.00     0.083 H 
ATOM     10  CAT E1B d          22.582 -26.971  16.407  0.00  0.00     0.035 A 
ATOM     11  H6  E1B d          22.590 -25.604  18.064  0.00  0.00     0.086 H 
ATOM     12  CAL E1B d          22.599 -27.119  15.035  0.00  0.00    -0.039 A 
ATOM     13  H9  E1B d          22.582 -28.111  14.598  0.00  0.00     0.089 H 
BRANCH  10  14
ATOM     14  NAQ E1B d          22.546 -28.179  17.131  0.00  0.00    -0.339 N 
ATOM     15  H11 E1B d          22.669 -27.934  18.124  0.00  0.00     0.167 HD
BRANCH  14  16
ATOM     16  CAV E1B d          22.412 -29.583  17.072  0.00  0.00     0.158 A 
ATOM     17  C4  E1B d          22.225 -30.438  18.205  0.00  0.00     0.116 A 
ATOM     18  N3  E1B d          22.129 -29.948  19.497  0.00  0.00    -0.237 NA
ATOM     19  C5  E1B d          22.146 -31.800  17.985  0.00  0.00     0.027 A 
ATOM     20  C2  E1B d          21.958 -30.783  20.538  0.00  0.00     0.087 A 
ATOM     21  N1  E1B d          21.880 -32.124  20.359  0.00  0.00    -0.253 NA
ATOM     22  H1  E1B d          21.881 -30.375  21.539  0.00  0.00     0.146 H 
ATOM     23  C6  E1B d          21.964 -32.657  19.115  0.00  0.00     0.017 A 
ATOM     24  H2  E1B d          21.893 -33.730  18.978  0.00  0.00     0.116 H 
ATOM     25  CAY E1B d          22.257 -32.288  16.595  0.00  0.00     0.007 A 
ATOM     26  CAJ E1B d          22.171 -33.681  16.314  0.00  0.00    -0.069 A 
ATOM     27  CAW E1B d          22.418 -31.403  15.551  0.00  0.00     0.071 A 
ATOM     28  CAI E1B d          22.275 -34.110  14.985  0.00  0.00    -0.066 A 
ATOM     29  H8  E1B d          22.027 -34.397  17.115  0.00  0.00     0.085 H 
ATOM     30  CAU E1B d          22.440 -33.200  13.921  0.00  0.00     0.043 A 
ATOM     31  H7  E1B d          22.228 -35.171  14.769  0.00  0.00     0.085 H 
ATOM     32  CAM E1B d          22.522 -31.837  14.196  0.00  0.00    -0.038 A 
ATOM     33  H10 E1B d          22.663 -31.120  13.396  0.00  0.00     0.088 H 
ATOM     34  NAP E1B d          22.493 -30.059  15.827  0.00  0.00    -0.228 NA
BRANCH  30  35
ATOM     35  CAR E1B d          22.563 -33.691  12.512  0.00  0.00     0.209 C 
ATOM     36  OAB E1B d          22.107 -34.858  12.401  0.00  0.00    -0.644 OA
ATOM     37  OAC E1B d          23.004 -32.773  11.778  0.00  0.00    -0.644 OA
ENDBRANCH  30  35
ENDBRANCH  14  16
ENDBRANCH  10  14
ENDBRANCH   2   4
TORSDOF 4
ENDMDL
MODEL 4
REMARK VINA RESULT:      -8.4      3.292      6.896
REMARK  4 active torsions:
REMARK  status: ('A' for Active; 'I' for Inactive)
REMARK    1  A    between atoms: CAS_21  and  CAD_10 
REMARK    2  A    between atoms: NAQ_19  and  CAT_22 
REMARK    3  A    between atoms: CAV_24  and  NAQ_19 
REMARK    4  A    between atoms: CAR_20  and  CAU_23 
ROOT
ATOM      1  CAA E1B d          22.703 -32.999  11.906  0.00  0.00    -0.149 C 
ATOM      2  CAD E1B d          22.624 -32.973  13.106  0.00  0.00    -0.078 C 
ATOM      3  H3  E1B d          22.772 -33.022  10.853  0.00  0.00     0.166 H 
ENDROOT
BRANCH   2   4
ATOM      4  CAS E1B d          22.524 -32.939  14.585  0.00  0.00     0.019 A 
ATOM      5  CAG E1B d          22.570 -34.089  15.356  0.00  0.00    -0.065 A 
ATOM      6  CAE E1B d          22.474 -33.996  16.734  0.00  0.00    -0.079 A 
ATOM      7  H5  E1B d          22.680 -35.058  14.882  0.00  0.00     0.085 H 
ATOM      8  CAH E1B d          22.318 -32.763  17.351  0.00  0.00    -0.057 A 
ATOM      9  H4  E1B d          22.521 -34.895  17.337  0.00  0.00     0.083 H 
ATOM     10  CAT E1B d          22.265 -31.630  16.564  0.00  0.00     0.035 A 
ATOM     11  H6  E1B d          22.239 -32.692  18.430  0.00  0.00     0.086 H 
ATOM     12  CAL E1B d          22.367 -31.715  15.190  0.00  0.00    -0.039 A 
ATOM     13  H9  E1B d          22.322 -30.815  14.587  0.00  0.00     0.089 H 
BRANCH  10  14
ATOM     14  NAQ E1B d          22.102 -30.322  17.063  0.00  0.00    -0.339 N 
ATOM     15  H11 E1B d          21.689 -30.413  18.002  0.00  0.00     0.167 HD
BRANCH  14  16
ATOM     16  CAV E1B d          22.265 -28.941  16.821  0.00  0.00     0.158 A 
ATOM     17  C4  E1B d          22.158 -27.915  17.815  0.00  0.00     0.116 A 
ATOM     18  N3  E1B d          21.902 -28.197  19.147  0.00  0.00    -0.237 NA
ATOM     19  C5  E1B d          22.311 -26.602  17.413  0.00  0.00     0.027 A 
ATOM     20  C2  E1B d          21.803 -27.206  20.052  0.00  0.00     0.087 A 
ATOM     21  N1  E1B d          21.943 -25.908  19.691  0.00  0.00    -0.253 NA
ATOM     22  H1  E1B d          21.607 -27.451  21.089  0.00  0.00     0.146 H 
ATOM     23  C6  E1B d          22.199 -25.576  18.402  0.00  0.00     0.017 A 
ATOM     24  H2  E1B d          22.317 -24.535  18.121  0.00  0.00     0.116 H 
ATOM     25  CAY E1B d          22.577 -26.340  15.984  0.00  0.00     0.007 A 
ATOM     26  CAJ E1B d          22.753 -25.005  15.520  0.00  0.00    -0.069 A 
ATOM     27  CAW E1B d          22.686 -27.380  15.086  0.00  0.00     0.071 A 
ATOM     28  CAI E1B d          23.010 -24.790  14.160  0.00  0.00    -0.066 A 
ATOM     29  H8  E1B d          22.690 -24.169  16.208  0.00  0.00     0.085 H 
ATOM     30  CAU E1B d          23.120 -25.858  13.247  0.00  0.00     0.043 A 
ATOM     31  H7  E1B d          23.127 -23.774  13.800  0.00  0.00     0.085 H 
ATOM     32  CAM E1B d          22.950 -27.164  13.701  0.00  0.00    -0.038 A 
ATOM     33  H10 E1B d          23.017 -28.000  13.015  0.00  0.00     0.088 H 
ATOM     34  NAP E1B d          22.523 -28.666  15.541  0.00  0.00    -0.228 NA
BRANCH  30  35
ATOM     35  CAR E1B d          23.381 -25.596  11.796  0.00  0.00     0.209 C 
ATOM     36  OAB E1B d          23.590 -24.372  11.591  0.00  0.00    -0.644 OA
ATOM     37  OAC E1B d          23.419 -26.681  11.167  0.00  0.00    -0.644 OA
ENDBRANCH  30  35
ENDBRANCH  14  16
ENDBRANCH  10  14
ENDBRANCH   2   4
TORSDOF 4
ENDMDL
MODEL 5
REMARK VINA RESULT:      -8.4      2.870      5.749
REMARK  4 active torsions:
REMARK  status: ('A' for Active; 'I' for Inactive)
REMARK    1  A    between atoms: CAS_21  and  CAD_10 
REMARK    2  A    between atoms: NAQ_19  and  CAT_22 
REMARK    3  A    between atoms: CAV_24  and  NAQ_19 
REMARK    4  A    between atoms: CAR_20  and  CAU_23 
ROOT
ATOM      1  CAA E1B d          23.104 -24.839  16.250  0.00  0.00    -0.149 C 
ATOM      2  CAD E1B d          23.029 -25.402  15.190  0.00  0.00    -0.078 C 
ATOM      3  H3  E1B d          23.169 -24.345  17.181  0.00  0.00     0.166 H 
ENDROOT
BRANCH   2   4
ATOM      4  CAS E1B d          22.940 -26.098  13.884  0.00  0.00     0.019 A 
ATOM      5  CAG E1B d          23.060 -25.426  12.678  0.00  0.00    -0.065 A 
ATOM      6  CAE E1B d          22.971 -26.130  11.489  0.00  0.00    -0.079 A 
ATOM      7  H5  E1B d          23.223 -24.354  12.667  0.00  0.00     0.085 H 
ATOM      8  CAH E1B d          22.748 -27.499  11.491  0.00  0.00    -0.057 A 
ATOM      9  H4  E1B d          23.077 -25.605  10.547  0.00  0.00     0.083 H 
ATOM     10  CAT E1B d          22.621 -28.148  12.703  0.00  0.00     0.035 A 
ATOM     11  H6  E1B d          22.674 -28.048  10.559  0.00  0.00     0.086 H 
ATOM     12  CAL E1B d          22.716 -27.454  13.893  0.00  0.00    -0.039 A 
ATOM     13  H9  E1B d          22.612 -27.979  14.836  0.00  0.00     0.089 H 
BRANCH  10  14
ATOM     14  NAQ E1B d          22.385 -29.530  12.844  0.00  0.00    -0.339 N 
ATOM     15  H11 E1B d          22.098 -29.878  11.918  0.00  0.00     0.167 HD
BRANCH  14  16
ATOM     16  CAV E1B d          22.376 -30.640  13.716  0.00  0.00     0.158 A 
ATOM     17  C4  E1B d          22.362 -32.010  13.301  0.00  0.00     0.116 A 
ATOM     18  N3  E1B d          22.382 -32.381  11.967  0.00  0.00    -0.237 NA
ATOM     19  C5  E1B d          22.319 -32.986  14.280  0.00  0.00     0.027 A 
ATOM     20  C2  E1B d          22.362 -33.680  11.614  0.00  0.00     0.087 A 
ATOM     21  N1  E1B d          22.317 -34.661  12.547  0.00  0.00    -0.253 NA
ATOM     22  H1  E1B d          22.384 -33.945  10.564  0.00  0.00     0.146 H 
ATOM     23  C6  E1B d          22.299 -34.354  13.868  0.00  0.00     0.017 A 
ATOM     24  H2  E1B d          22.270 -35.145  14.609  0.00  0.00     0.116 H 
ATOM     25  CAY E1B d          22.293 -32.553  15.691  0.00  0.00     0.007 A 
ATOM     26  CAJ E1B d          22.260 -33.518  16.738  0.00  0.00    -0.069 A 
ATOM     27  CAW E1B d          22.328 -31.214  16.017  0.00  0.00     0.071 A 
ATOM     28  CAI E1B d          22.241 -33.075  18.066  0.00  0.00    -0.066 A 
ATOM     29  H8  E1B d          22.249 -34.578  16.510  0.00  0.00     0.085 H 
ATOM     30  CAU E1B d          22.277 -31.704  18.393  0.00  0.00     0.043 A 
ATOM     31  H7  E1B d          22.198 -33.807  18.865  0.00  0.00     0.085 H 
ATOM     32  CAM E1B d          22.312 -30.759  17.369  0.00  0.00    -0.038 A 
ATOM     33  H10 E1B d          22.326 -29.700  17.596  0.00  0.00     0.088 H 
ATOM     34  NAP E1B d          22.368 -30.287  15.004  0.00  0.00    -0.228 NA
BRANCH  30  35
ATOM     35  CAR E1B d          22.241 -31.261  19.822  0.00  0.00     0.209 C 
ATOM     36  OAB E1B d          22.864 -32.069  20.559  0.00  0.00    -0.644 OA
ATOM     37  OAC E1B d          21.679 -30.142  19.908  0.00  0.00    -0.644 OA
ENDBRANCH  30  35
ENDBRANCH  14  16
ENDBRANCH  10  14
ENDBRANCH   2   4
TORSDOF 4
ENDMDL
MODEL 6
REMARK VINA RESULT:      -7.8      3.596      8.038
REMARK  4 active torsions:
REMARK  status: ('A' for Active; 'I' for Inactive)
REMARK    1  A    between atoms: CAS_21  and  CAD_10 
REMARK    2  A    between atoms: NAQ_19  and  CAT_22 
REMARK    3  A    between atoms: CAV_24  and  NAQ_19 
REMARK    4  A    between atoms: CAR_20  and  CAU_23 
ROOT
ATOM      1  CAA E1B d          23.055 -26.626  11.788  0.00  0.00    -0.149 C 
ATOM      2  CAD E1B d          23.066 -27.817  11.955  0.00  0.00    -0.078 C 
ATOM      3  H3  E1B d          23.046 -25.581  11.641  0.00  0.00     0.166 H 
ENDROOT
BRANCH   2   4
ATOM      4  CAS E1B d          23.077 -29.286  12.159  0.00  0.00     0.019 A 
ATOM      5  CAG E1B d          23.337 -30.173  11.127  0.00  0.00    -0.065 A 
ATOM      6  CAE E1B d          23.337 -31.535  11.378  0.00  0.00    -0.079 A 
ATOM      7  H5  E1B d          23.541 -29.803  10.129  0.00  0.00     0.085 H 
ATOM      8  CAH E1B d          23.063 -32.022  12.648  0.00  0.00    -0.057 A 
ATOM      9  H4  E1B d          23.552 -32.229  10.573  0.00  0.00     0.083 H 
ATOM     10  CAT E1B d          22.797 -31.120  13.660  0.00  0.00     0.035 A 
ATOM     11  H6  E1B d          23.060 -33.089  12.842  0.00  0.00     0.086 H 
ATOM     12  CAL E1B d          22.803 -29.761  13.418  0.00  0.00    -0.039 A 
ATOM     13  H9  E1B d          22.590 -29.068  14.224  0.00  0.00     0.089 H 
BRANCH  10  14
ATOM     14  NAQ E1B d          22.498 -31.482  14.988  0.00  0.00    -0.339 N 
ATOM     15  H11 E1B d          22.181 -32.462  14.965  0.00  0.00     0.167 HD
BRANCH  14  16
ATOM     16  CAV E1B d          22.449 -31.071  16.338  0.00  0.00     0.158 A 
ATOM     17  C4  E1B d          22.492 -31.952  17.466  0.00  0.00     0.116 A 
ATOM     18  N3  E1B d          22.616 -33.325  17.332  0.00  0.00    -0.237 NA
ATOM     19  C5  E1B d          22.399 -31.396  18.728  0.00  0.00     0.027 A 
ATOM     20  C2  E1B d          22.648 -34.121  18.416  0.00  0.00     0.087 A 
ATOM     21  N1  E1B d          22.555 -33.610  19.667  0.00  0.00    -0.253 NA
ATOM     22  H1  E1B d          22.750 -35.192  18.285  0.00  0.00     0.146 H 
ATOM     23  C6  E1B d          22.437 -32.273  19.857  0.00  0.00     0.017 A 
ATOM     24  H2  E1B d          22.370 -31.870  20.861  0.00  0.00     0.116 H 
ATOM     25  CAY E1B d          22.263 -29.929  18.833  0.00  0.00     0.007 A 
ATOM     26  CAJ E1B d          22.174 -29.305  20.111  0.00  0.00    -0.069 A 
ATOM     27  CAW E1B d          22.247 -29.141  17.702  0.00  0.00     0.071 A 
ATOM     28  CAI E1B d          22.051 -27.912  20.176  0.00  0.00    -0.066 A 
ATOM     29  H8  E1B d          22.201 -29.900  21.017  0.00  0.00     0.085 H 
ATOM     30  CAU E1B d          22.035 -27.112  19.015  0.00  0.00     0.043 A 
ATOM     31  H7  E1B d          21.965 -27.436  21.146  0.00  0.00     0.085 H 
ATOM     32  CAM E1B d          22.124 -27.722  17.765  0.00  0.00    -0.038 A 
ATOM     33  H10 E1B d          22.100 -27.128  16.859  0.00  0.00     0.088 H 
ATOM     34  NAP E1B d          22.341 -29.747  16.472  0.00  0.00    -0.228 NA
BRANCH  30  35
ATOM     35  CAR E1B d          21.888 -25.626  19.117  0.00  0.00     0.209 C 
ATOM     36  OAB E1B d          21.770 -25.107  17.977  0.00  0.00    -0.644 OA
ATOM     37  OAC E1B d          21.823 -25.285  20.324  0.00  0.00    -0.644 OA
ENDBRANCH  30  35
ENDBRANCH  14  16
ENDBRANCH  10  14
ENDBRANCH   2   4
TORSDOF 4
ENDMDL
