MODEL 1
REMARK VINA RESULT:      -2.3      0.000      0.000
REMARK  10 active torsions:
REMARK  status: ('A' for Active; 'I' for Inactive)
REMARK    1  A    between atoms: C1_1  and  C7_7 
REMARK    2  A    between atoms: C3_3  and  O1_8 
REMARK    3  A    between atoms: C4_4  and  O2_9 
REMARK    4  A    between atoms: O3_10  and  C5_5 
REMARK    5  A    between atoms: O1_8  and  P1_13 
REMARK    6  A    between atoms: C8_17  and  O3_10 
REMARK    7  A    between atoms: C8_17  and  C9_18 
REMARK    8  A    between atoms: C8_17  and  C10_19 
REMARK    9  A    between atoms: O14_26  and  C8_17 
REMARK   10  A    between atoms: P2_22  and  O14_26 
ROOT
ATOM      1  C1  GG9 d          59.084  10.409  29.676  0.00  0.00     0.020 C 
ATOM      2  C2  GG9 d          60.101  10.088  28.721  0.00  0.00    -0.060 C 
ATOM      3  C3  GG9 d          59.853   8.982  27.697  0.00  0.00     0.096 C 
ATOM      4  C4  GG9 d          58.299   8.708  27.468  0.00  0.00     0.089 C 
ATOM      5  C5  GG9 d          57.618   8.397  28.832  0.00  0.00     0.074 C 
ATOM      6  C6  GG9 d          57.752   9.703  29.710  0.00  0.00    -0.008 C 
ATOM      7  H1  GG9 d          61.045  10.630  28.724  0.00  0.00     0.082 H 
ATOM      8  H2  GG9 d          60.270   9.308  26.734  0.00  0.00     0.095 H 
ATOM      9  H3  GG9 d          57.823   9.598  27.032  0.00  0.00     0.091 H 
ATOM     10  H4  GG9 d          58.113   7.549  29.328  0.00  0.00     0.088 H 
ATOM     11  H5  GG9 d          56.988  10.416  29.366  0.00  0.00     0.044 H 
ATOM     12  H6  GG9 d          57.550   9.424  30.755  0.00  0.00     0.044 H 
ENDROOT
BRANCH   5  13
ATOM     13  O3  GG9 d          56.235   8.094  28.611  0.00  0.00    -0.334 OA
BRANCH  13  14
ATOM     14  C8  GG9 d          55.229   9.109  28.367  0.00  0.00     0.326 C 
BRANCH  14  15
ATOM     15  C9  GG9 d          54.543   9.813  29.631  0.00  0.00     0.272 C 
ATOM     16  F1  GG9 d          53.350  10.239  29.397  0.00  0.00    -0.208 F 
ATOM     17  F2  GG9 d          54.586   9.043  30.699  0.00  0.00    -0.208 F 
ATOM     18  H8  GG9 d          55.150  10.701  29.858  0.00  0.00     0.155 H 
ENDBRANCH  14  15
BRANCH  14  19
ATOM     19  C10 GG9 d          54.133   8.474  27.548  0.00  0.00     0.245 C 
ATOM     20  O9  GG9 d          53.704   7.422  28.133  0.00  0.00    -0.644 OA
ATOM     21  O10 GG9 d          53.685   8.917  26.473  0.00  0.00    -0.644 OA
ENDBRANCH  14  19
BRANCH  14  22
ATOM     22  O14 GG9 d          55.802  10.170  27.499  0.00  0.00    -0.228 OA
BRANCH  22  23
ATOM     23  P2  GG9 d          55.824  11.818  27.501  0.00  0.00     0.425 P 
ATOM     24  O11 GG9 d          56.100  12.287  28.946  0.00  0.00    -0.617 OA
ATOM     25  O12 GG9 d          54.443  12.197  27.055  0.00  0.00    -0.617 OA
ATOM     26  O13 GG9 d          56.923  12.350  26.549  0.00  0.00    -0.617 OA
ENDBRANCH  22  23
ENDBRANCH  14  22
ENDBRANCH  13  14
ENDBRANCH   5  13
BRANCH   4  27
ATOM     27  O2  GG9 d          58.200   7.617  26.538  0.00  0.00    -0.390 OA
ATOM     28  H7  GG9 d          58.327   6.796  27.000  0.00  0.00     0.210 HD
ENDBRANCH   4  27
BRANCH   3  29
ATOM     29  O1  GG9 d          60.632   7.715  28.155  0.00  0.00    -0.271 OA
BRANCH  29  30
ATOM     30  P1  GG9 d          61.113   7.429  29.719  0.00  0.00     0.422 P 
ATOM     31  O6  GG9 d          59.826   7.243  30.528  0.00  0.00    -0.617 OA
ATOM     32  O7  GG9 d          61.951   8.710  30.139  0.00  0.00    -0.617 OA
ATOM     33  O8  GG9 d          61.913   6.114  29.536  0.00  0.00    -0.617 OA
ENDBRANCH  29  30
ENDBRANCH   3  29
BRANCH   1  34
ATOM     34  C7  GG9 d          59.346  11.507  30.662  0.00  0.00     0.205 C 
ATOM     35  O4  GG9 d          58.677  12.519  30.576  0.00  0.00    -0.644 OA
ATOM     36  O5  GG9 d          60.182  11.298  31.493  0.00  0.00    -0.644 OA
ENDBRANCH   1  34
TORSDOF 10
ENDMDL
MODEL 2
REMARK VINA RESULT:      -2.2      2.058      3.494
REMARK  10 active torsions:
REMARK  status: ('A' for Active; 'I' for Inactive)
REMARK    1  A    between atoms: C1_1  and  C7_7 
REMARK    2  A    between atoms: C3_3  and  O1_8 
REMARK    3  A    between atoms: C4_4  and  O2_9 
REMARK    4  A    between atoms: O3_10  and  C5_5 
REMARK    5  A    between atoms: O1_8  and  P1_13 
REMARK    6  A    between atoms: C8_17  and  O3_10 
REMARK    7  A    between atoms: C8_17  and  C9_18 
REMARK    8  A    between atoms: C8_17  and  C10_19 
REMARK    9  A    between atoms: O14_26  and  C8_17 
REMARK   10  A    between atoms: P2_22  and  O14_26 
ROOT
ATOM      1  C1  GG9 d          60.601   9.868  26.994  0.00  0.00     0.020 C 
ATOM      2  C2  GG9 d          61.005   8.597  27.511  0.00  0.00    -0.060 C 
ATOM      3  C3  GG9 d          59.982   7.710  28.219  0.00  0.00     0.096 C 
ATOM      4  C4  GG9 d          58.484   8.066  27.805  0.00  0.00     0.089 C 
ATOM      5  C5  GG9 d          58.218   9.577  28.064  0.00  0.00     0.074 C 
ATOM      6  C6  GG9 d          59.186  10.376  27.105  0.00  0.00    -0.008 C 
ATOM      7  H1  GG9 d          62.035   8.263  27.401  0.00  0.00     0.082 H 
ATOM      8  H2  GG9 d          60.164   6.669  27.915  0.00  0.00     0.095 H 
ATOM      9  H3  GG9 d          58.334   7.861  26.736  0.00  0.00     0.091 H 
ATOM     10  H4  GG9 d          58.422   9.832  29.115  0.00  0.00     0.088 H 
ATOM     11  H5  GG9 d          58.745  10.358  26.097  0.00  0.00     0.044 H 
ATOM     12  H6  GG9 d          59.231  11.414  27.467  0.00  0.00     0.044 H 
ENDROOT
BRANCH   5  13
ATOM     13  O3  GG9 d          56.853   9.878  27.746  0.00  0.00    -0.334 OA
BRANCH  13  14
ATOM     14  C8  GG9 d          55.795   9.905  28.737  0.00  0.00     0.326 C 
BRANCH  14  15
ATOM     15  C9  GG9 d          54.698  11.067  28.639  0.00  0.00     0.272 C 
ATOM     16  F1  GG9 d          54.701  11.683  27.507  0.00  0.00    -0.208 F 
ATOM     17  F2  GG9 d          53.496  10.629  28.953  0.00  0.00    -0.208 F 
ATOM     18  H8  GG9 d          54.970  11.815  29.398  0.00  0.00     0.155 H 
ENDBRANCH  14  15
BRANCH  14  19
ATOM     19  C10 GG9 d          56.445  10.004  30.094  0.00  0.00     0.245 C 
ATOM     20  O9  GG9 d          56.109   9.003  30.813  0.00  0.00    -0.644 OA
ATOM     21  O10 GG9 d          57.218  10.910  30.461  0.00  0.00    -0.644 OA
ENDBRANCH  14  19
BRANCH  14  22
ATOM     22  O14 GG9 d          55.087   8.598  28.736  0.00  0.00    -0.228 OA
BRANCH  22  23
ATOM     23  P2  GG9 d          54.363   7.644  27.605  0.00  0.00     0.425 P 
ATOM     24  O11 GG9 d          53.355   8.514  26.824  0.00  0.00    -0.617 OA
ATOM     25  O12 GG9 d          53.667   6.590  28.415  0.00  0.00    -0.617 OA
ATOM     26  O13 GG9 d          55.417   7.049  26.638  0.00  0.00    -0.617 OA
ENDBRANCH  22  23
ENDBRANCH  14  22
ENDBRANCH  13  14
ENDBRANCH   5  13
BRANCH   4  27
ATOM     27  O2  GG9 d          57.624   7.212  28.576  0.00  0.00    -0.390 OA
ATOM     28  H7  GG9 d          57.838   6.304  28.397  0.00  0.00     0.210 HD
ENDBRANCH   4  27
BRANCH   3  29
ATOM     29  O1  GG9 d          60.230   7.814  29.752  0.00  0.00    -0.271 OA
BRANCH  29  30
ATOM     30  P1  GG9 d          61.572   8.514  30.435  0.00  0.00     0.422 P 
ATOM     31  O6  GG9 d          62.021   7.565  31.550  0.00  0.00    -0.617 OA
ATOM     32  O7  GG9 d          61.083   9.929  30.961  0.00  0.00    -0.617 OA
ATOM     33  O8  GG9 d          62.537   8.527  29.222  0.00  0.00    -0.617 OA
ENDBRANCH  29  30
ENDBRANCH   3  29
BRANCH   1  34
ATOM     34  C7  GG9 d          61.620  10.715  26.293  0.00  0.00     0.205 C 
ATOM     35  O4  GG9 d          61.360  11.891  26.121  0.00  0.00    -0.644 OA
ATOM     36  O5  GG9 d          62.642  10.178  25.974  0.00  0.00    -0.644 OA
ENDBRANCH   1  34
TORSDOF 10
ENDMDL
MODEL 3
REMARK VINA RESULT:      -2.2      2.580      3.761
REMARK  10 active torsions:
REMARK  status: ('A' for Active; 'I' for Inactive)
REMARK    1  A    between atoms: C1_1  and  C7_7 
REMARK    2  A    between atoms: C3_3  and  O1_8 
REMARK    3  A    between atoms: C4_4  and  O2_9 
REMARK    4  A    between atoms: O3_10  and  C5_5 
REMARK    5  A    between atoms: O1_8  and  P1_13 
REMARK    6  A    between atoms: C8_17  and  O3_10 
REMARK    7  A    between atoms: C8_17  and  C9_18 
REMARK    8  A    between atoms: C8_17  and  C10_19 
REMARK    9  A    between atoms: O14_26  and  C8_17 
REMARK   10  A    between atoms: P2_22  and  O14_26 
ROOT
ATOM      1  C1  GG9 d          59.457   8.125  28.947  0.00  0.00     0.020 C 
ATOM      2  C2  GG9 d          59.881   9.478  29.142  0.00  0.00    -0.060 C 
ATOM      3  C3  GG9 d          59.119  10.613  28.461  0.00  0.00     0.096 C 
ATOM      4  C4  GG9 d          57.630  10.195  28.075  0.00  0.00     0.089 C 
ATOM      5  C5  GG9 d          57.661   8.910  27.197  0.00  0.00     0.074 C 
ATOM      6  C6  GG9 d          58.265   7.763  28.099  0.00  0.00    -0.008 C 
ATOM      7  H1  GG9 d          60.742   9.697  29.771  0.00  0.00     0.082 H 
ATOM      8  H2  GG9 d          59.047  11.450  29.171  0.00  0.00     0.095 H 
ATOM      9  H3  GG9 d          57.053   9.984  28.987  0.00  0.00     0.091 H 
ATOM     10  H4  GG9 d          58.285   9.066  26.305  0.00  0.00     0.088 H 
ATOM     11  H5  GG9 d          57.468   7.416  28.773  0.00  0.00     0.044 H 
ATOM     12  H6  GG9 d          58.566   6.940  27.433  0.00  0.00     0.044 H 
ENDROOT
BRANCH   5  13
ATOM     13  O3  GG9 d          56.324   8.574  26.804  0.00  0.00    -0.334 OA
BRANCH  13  14
ATOM     14  C8  GG9 d          55.416   7.818  27.645  0.00  0.00     0.326 C 
BRANCH  14  15
ATOM     15  C9  GG9 d          55.333   6.233  27.433  0.00  0.00     0.272 C 
ATOM     16  F1  GG9 d          54.146   5.813  27.161  0.00  0.00    -0.208 F 
ATOM     17  F2  GG9 d          56.214   5.814  26.548  0.00  0.00    -0.208 F 
ATOM     18  H8  GG9 d          55.610   5.776  28.394  0.00  0.00     0.155 H 
ENDBRANCH  14  15
BRANCH  14  19
ATOM     19  C10 GG9 d          54.031   8.379  27.438  0.00  0.00     0.245 C 
ATOM     20  O9  GG9 d          53.269   8.024  28.400  0.00  0.00    -0.644 OA
ATOM     21  O10 GG9 d          53.680   9.105  26.489  0.00  0.00    -0.644 OA
ENDBRANCH  14  19
BRANCH  14  22
ATOM     22  O14 GG9 d          55.735   8.079  29.073  0.00  0.00    -0.228 OA
BRANCH  22  23
ATOM     23  P2  GG9 d          55.444   9.291  30.149  0.00  0.00     0.425 P 
ATOM     24  O11 GG9 d          55.099  10.565  29.348  0.00  0.00    -0.617 OA
ATOM     25  O12 GG9 d          56.744   9.440  30.884  0.00  0.00    -0.617 OA
ATOM     26  O13 GG9 d          54.270   8.917  31.088  0.00  0.00    -0.617 OA
ENDBRANCH  22  23
ENDBRANCH  14  22
ENDBRANCH  13  14
ENDBRANCH   5  13
BRANCH   4  27
ATOM     27  O2  GG9 d          57.044  11.316  27.395  0.00  0.00    -0.390 OA
ATOM     28  H7  GG9 d          56.161  11.455  27.717  0.00  0.00     0.210 HD
ENDBRANCH   4  27
BRANCH   3  29
ATOM     29  O1  GG9 d          59.953  11.090  27.237  0.00  0.00    -0.271 OA
BRANCH  29  30
ATOM     30  P1  GG9 d          61.422  10.451  26.802  0.00  0.00     0.422 P 
ATOM     31  O6  GG9 d          62.122  10.075  28.111  0.00  0.00    -0.617 OA
ATOM     32  O7  GG9 d          62.157  11.602  25.993  0.00  0.00    -0.617 OA
ATOM     33  O8  GG9 d          60.965   9.217  25.981  0.00  0.00    -0.617 OA
ENDBRANCH  29  30
ENDBRANCH   3  29
BRANCH   1  34
ATOM     34  C7  GG9 d          60.214   7.029  29.636  0.00  0.00     0.205 C 
ATOM     35  O4  GG9 d          60.947   6.333  28.958  0.00  0.00    -0.644 OA
ATOM     36  O5  GG9 d          60.067   6.932  30.820  0.00  0.00    -0.644 OA
ENDBRANCH   1  34
TORSDOF 10
ENDMDL
MODEL 4
REMARK VINA RESULT:      -1.0      2.870      6.123
REMARK  10 active torsions:
REMARK  status: ('A' for Active; 'I' for Inactive)
REMARK    1  A    between atoms: C1_1  and  C7_7 
REMARK    2  A    between atoms: C3_3  and  O1_8 
REMARK    3  A    between atoms: C4_4  and  O2_9 
REMARK    4  A    between atoms: O3_10  and  C5_5 
REMARK    5  A    between atoms: O1_8  and  P1_13 
REMARK    6  A    between atoms: C8_17  and  O3_10 
REMARK    7  A    between atoms: C8_17  and  C9_18 
REMARK    8  A    between atoms: C8_17  and  C10_19 
REMARK    9  A    between atoms: O14_26  and  C8_17 
REMARK   10  A    between atoms: P2_22  and  O14_26 
ROOT
ATOM      1  C1  GG9 d          55.430   8.835  29.889  0.00  0.00     0.020 C 
ATOM      2  C2  GG9 d          55.075   9.017  28.514  0.00  0.00    -0.060 C 
ATOM      3  C3  GG9 d          56.151   8.911  27.436  0.00  0.00     0.096 C 
ATOM      4  C4  GG9 d          57.414   8.069  27.923  0.00  0.00     0.089 C 
ATOM      5  C5  GG9 d          57.973   8.684  29.239  0.00  0.00     0.074 C 
ATOM      6  C6  GG9 d          56.839   8.525  30.327  0.00  0.00    -0.008 C 
ATOM      7  H1  GG9 d          54.043   9.230  28.239  0.00  0.00     0.082 H 
ATOM      8  H2  GG9 d          55.720   8.380  26.575  0.00  0.00     0.095 H 
ATOM      9  H3  GG9 d          57.117   7.029  28.119  0.00  0.00     0.091 H 
ATOM     10  H4  GG9 d          58.221   9.746  29.096  0.00  0.00     0.088 H 
ATOM     11  H5  GG9 d          56.857   7.482  30.676  0.00  0.00     0.044 H 
ATOM     12  H6  GG9 d          57.083   9.196  31.164  0.00  0.00     0.044 H 
ENDROOT
BRANCH   5  13
ATOM     13  O3  GG9 d          59.143   7.960  29.639  0.00  0.00    -0.334 OA
BRANCH  13  14
ATOM     14  C8  GG9 d          60.491   8.438  29.406  0.00  0.00     0.326 C 
BRANCH  14  15
ATOM     15  C9  GG9 d          61.581   7.396  28.869  0.00  0.00     0.272 C 
ATOM     16  F1  GG9 d          62.643   7.342  29.596  0.00  0.00    -0.208 F 
ATOM     17  F2  GG9 d          61.059   6.202  28.678  0.00  0.00    -0.208 F 
ATOM     18  H8  GG9 d          61.901   7.762  27.882  0.00  0.00     0.155 H 
ENDBRANCH  14  15
BRANCH  14  19
ATOM     19  C10 GG9 d          61.004   9.005  30.707  0.00  0.00     0.245 C 
ATOM     20  O9  GG9 d          61.125   8.072  31.572  0.00  0.00    -0.644 OA
ATOM     21  O10 GG9 d          61.295  10.199  30.911  0.00  0.00    -0.644 OA
ENDBRANCH  14  19
BRANCH  14  22
ATOM     22  O14 GG9 d          60.449   9.590  28.467  0.00  0.00    -0.228 OA
BRANCH  22  23
ATOM     23  P2  GG9 d          60.978   9.889  26.936  0.00  0.00     0.425 P 
ATOM     24  O11 GG9 d          62.428  10.412  27.027  0.00  0.00    -0.617 OA
ATOM     25  O12 GG9 d          60.042  10.950  26.433  0.00  0.00    -0.617 OA
ATOM     26  O13 GG9 d          60.928   8.600  26.080  0.00  0.00    -0.617 OA
ENDBRANCH  22  23
ENDBRANCH  14  22
ENDBRANCH  13  14
ENDBRANCH   5  13
BRANCH   4  27
ATOM     27  O2  GG9 d          58.370   8.093  26.852  0.00  0.00    -0.390 OA
ATOM     28  H7  GG9 d          58.514   8.991  26.576  0.00  0.00     0.210 HD
ENDBRANCH   4  27
BRANCH   3  29
ATOM     29  O1  GG9 d          56.520  10.351  26.977  0.00  0.00    -0.271 OA
BRANCH  29  30
ATOM     30  P1  GG9 d          55.911  11.735  27.663  0.00  0.00     0.422 P 
ATOM     31  O6  GG9 d          56.464  12.896  26.832  0.00  0.00    -0.617 OA
ATOM     32  O7  GG9 d          56.429  11.720  29.163  0.00  0.00    -0.617 OA
ATOM     33  O8  GG9 d          54.390  11.510  27.459  0.00  0.00    -0.617 OA
ENDBRANCH  29  30
ENDBRANCH   3  29
BRANCH   1  34
ATOM     34  C7  GG9 d          54.354   8.932  30.928  0.00  0.00     0.205 C 
ATOM     35  O4  GG9 d          53.630   7.967  31.087  0.00  0.00    -0.644 OA
ATOM     36  O5  GG9 d          54.299   9.950  31.556  0.00  0.00    -0.644 OA
ENDBRANCH   1  34
TORSDOF 10
ENDMDL
MODEL 5
REMARK VINA RESULT:      -0.5      2.368      3.897
REMARK  10 active torsions:
REMARK  status: ('A' for Active; 'I' for Inactive)
REMARK    1  A    between atoms: C1_1  and  C7_7 
REMARK    2  A    between atoms: C3_3  and  O1_8 
REMARK    3  A    between atoms: C4_4  and  O2_9 
REMARK    4  A    between atoms: O3_10  and  C5_5 
REMARK    5  A    between atoms: O1_8  and  P1_13 
REMARK    6  A    between atoms: C8_17  and  O3_10 
REMARK    7  A    between atoms: C8_17  and  C9_18 
REMARK    8  A    between atoms: C8_17  and  C10_19 
REMARK    9  A    between atoms: O14_26  and  C8_17 
REMARK   10  A    between atoms: P2_22  and  O14_26 
ROOT
ATOM      1  C1  GG9 d          60.599   9.761  27.030  0.00  0.00     0.020 C 
ATOM      2  C2  GG9 d          60.910   8.492  27.613  0.00  0.00    -0.060 C 
ATOM      3  C3  GG9 d          59.822   7.713  28.350  0.00  0.00     0.096 C 
ATOM      4  C4  GG9 d          58.356   8.151  27.902  0.00  0.00     0.089 C 
ATOM      5  C5  GG9 d          58.193   9.687  28.084  0.00  0.00     0.074 C 
ATOM      6  C6  GG9 d          59.221  10.369  27.099  0.00  0.00    -0.008 C 
ATOM      7  H1  GG9 d          61.915   8.083  27.531  0.00  0.00     0.082 H 
ATOM      8  H2  GG9 d          59.934   6.649  28.100  0.00  0.00     0.095 H 
ATOM      9  H3  GG9 d          58.200   7.904  26.842  0.00  0.00     0.091 H 
ATOM     10  H4  GG9 d          58.405   9.979  29.124  0.00  0.00     0.088 H 
ATOM     11  H5  GG9 d          58.789  10.332  26.088  0.00  0.00     0.044 H 
ATOM     12  H6  GG9 d          59.336  11.419  27.411  0.00  0.00     0.044 H 
ENDROOT
BRANCH   5  13
ATOM     13  O3  GG9 d          56.855  10.065  27.736  0.00  0.00    -0.334 OA
BRANCH  13  14
ATOM     14  C8  GG9 d          56.152  11.167  28.363  0.00  0.00     0.326 C 
BRANCH  14  15
ATOM     15  C9  GG9 d          55.125  12.014  27.473  0.00  0.00     0.272 C 
ATOM     16  F1  GG9 d          55.687  12.642  26.499  0.00  0.00    -0.208 F 
ATOM     17  F2  GG9 d          54.115  11.275  27.060  0.00  0.00    -0.208 F 
ATOM     18  H8  GG9 d          54.703  12.784  28.134  0.00  0.00     0.155 H 
ENDBRANCH  14  15
BRANCH  14  19
ATOM     19  C10 GG9 d          57.189  12.123  28.897  0.00  0.00     0.245 C 
ATOM     20  O9  GG9 d          57.354  13.089  28.078  0.00  0.00    -0.644 OA
ATOM     21  O10 GG9 d          57.784  12.011  29.986  0.00  0.00    -0.644 OA
ENDBRANCH  14  19
BRANCH  14  22
ATOM     22  O14 GG9 d          55.426  10.669  29.561  0.00  0.00    -0.228 OA
BRANCH  22  23
ATOM     23  P2  GG9 d          55.125   9.197  30.236  0.00  0.00     0.425 P 
ATOM     24  O11 GG9 d          56.423   8.713  30.918  0.00  0.00    -0.617 OA
ATOM     25  O12 GG9 d          54.764   8.331  29.065  0.00  0.00    -0.617 OA
ATOM     26  O13 GG9 d          53.981   9.297  31.276  0.00  0.00    -0.617 OA
ENDBRANCH  22  23
ENDBRANCH  14  22
ENDBRANCH  13  14
ENDBRANCH   5  13
BRANCH   4  27
ATOM     27  O2  GG9 d          57.432   7.397  28.703  0.00  0.00    -0.390 OA
ATOM     28  H7  GG9 d          57.894   7.008  29.436  0.00  0.00     0.210 HD
ENDBRANCH   4  27
BRANCH   3  29
ATOM     29  O1  GG9 d          60.063   7.875  29.880  0.00  0.00    -0.271 OA
BRANCH  29  30
ATOM     30  P1  GG9 d          61.422   8.561  30.543  0.00  0.00     0.422 P 
ATOM     31  O6  GG9 d          62.119   9.305  29.399  0.00  0.00    -0.617 OA
ATOM     32  O7  GG9 d          62.265   7.346  31.120  0.00  0.00    -0.617 OA
ATOM     33  O8  GG9 d          60.782   9.511  31.587  0.00  0.00    -0.617 OA
ENDBRANCH  29  30
ENDBRANCH   3  29
BRANCH   1  34
ATOM     34  C7  GG9 d          61.681  10.500  26.301  0.00  0.00     0.205 C 
ATOM     35  O4  GG9 d          61.527  11.693  26.115  0.00  0.00    -0.644 OA
ATOM     36  O5  GG9 d          62.643   9.867  25.975  0.00  0.00    -0.644 OA
ENDBRANCH   1  34
TORSDOF 10
ENDMDL
MODEL 6
REMARK VINA RESULT:      -0.2      2.661      5.420
REMARK  10 active torsions:
REMARK  status: ('A' for Active; 'I' for Inactive)
REMARK    1  A    between atoms: C1_1  and  C7_7 
REMARK    2  A    between atoms: C3_3  and  O1_8 
REMARK    3  A    between atoms: C4_4  and  O2_9 
REMARK    4  A    between atoms: O3_10  and  C5_5 
REMARK    5  A    between atoms: O1_8  and  P1_13 
REMARK    6  A    between atoms: C8_17  and  O3_10 
REMARK    7  A    between atoms: C8_17  and  C9_18 
REMARK    8  A    between atoms: C8_17  and  C10_19 
REMARK    9  A    between atoms: O14_26  and  C8_17 
REMARK   10  A    between atoms: P2_22  and  O14_26 
ROOT
ATOM      1  C1  GG9 d          59.092   7.591  29.026  0.00  0.00     0.020 C 
ATOM      2  C2  GG9 d          58.194   7.059  28.046  0.00  0.00    -0.060 C 
ATOM      3  C3  GG9 d          56.939   7.842  27.669  0.00  0.00     0.096 C 
ATOM      4  C4  GG9 d          57.073   9.396  28.001  0.00  0.00     0.089 C 
ATOM      5  C5  GG9 d          57.438   9.577  29.503  0.00  0.00     0.074 C 
ATOM      6  C6  GG9 d          58.859   8.917  29.703  0.00  0.00    -0.008 C 
ATOM      7  H1  GG9 d          58.405   6.101  27.573  0.00  0.00     0.082 H 
ATOM      8  H2  GG9 d          56.795   7.754  26.582  0.00  0.00     0.095 H 
ATOM      9  H3  GG9 d          57.870   9.841  27.389  0.00  0.00     0.091 H 
ATOM     10  H4  GG9 d          56.693   9.085  30.145  0.00  0.00     0.088 H 
ATOM     11  H5  GG9 d          59.611   9.623  29.321  0.00  0.00     0.044 H 
ATOM     12  H6  GG9 d          59.009   8.770  30.783  0.00  0.00     0.044 H 
ENDROOT
BRANCH   5  13
ATOM     13  O3  GG9 d          57.499  10.976  29.809  0.00  0.00    -0.334 OA
BRANCH  13  14
ATOM     14  C8  GG9 d          58.638  11.811  29.482  0.00  0.00     0.326 C 
BRANCH  14  15
ATOM     15  C9  GG9 d          59.257  12.731  30.637  0.00  0.00     0.272 C 
ATOM     16  F1  GG9 d          58.368  13.360  31.324  0.00  0.00    -0.208 F 
ATOM     17  F2  GG9 d          60.083  12.054  31.408  0.00  0.00    -0.208 F 
ATOM     18  H8  GG9 d          59.858  13.501  30.131  0.00  0.00     0.155 H 
ENDBRANCH  14  15
BRANCH  14  19
ATOM     19  C10 GG9 d          58.227  12.717  28.348  0.00  0.00     0.245 C 
ATOM     20  O9  GG9 d          59.051  13.687  28.243  0.00  0.00    -0.644 OA
ATOM     21  O10 GG9 d          57.245  12.540  27.601  0.00  0.00    -0.644 OA
ENDBRANCH  14  19
BRANCH  14  22
ATOM     22  O14 GG9 d          59.728  10.964  28.930  0.00  0.00    -0.228 OA
BRANCH  22  23
ATOM     23  P2  GG9 d          60.378  10.693  27.441  0.00  0.00     0.425 P 
ATOM     24  O11 GG9 d          59.442   9.728  26.682  0.00  0.00    -0.617 OA
ATOM     25  O12 GG9 d          61.702  10.052  27.738  0.00  0.00    -0.617 OA
ATOM     26  O13 GG9 d          60.524  12.022  26.659  0.00  0.00    -0.617 OA
ENDBRANCH  22  23
ENDBRANCH  14  22
ENDBRANCH  13  14
ENDBRANCH   5  13
BRANCH   4  27
ATOM     27  O2  GG9 d          55.818  10.006  27.659  0.00  0.00    -0.390 OA
ATOM     28  H7  GG9 d          55.812  10.218  26.733  0.00  0.00     0.210 HD
ENDBRANCH   4  27
BRANCH   3  29
ATOM     29  O1  GG9 d          55.721   7.173  28.370  0.00  0.00    -0.271 OA
BRANCH  29  30
ATOM     30  P1  GG9 d          54.173   7.191  27.771  0.00  0.00     0.422 P 
ATOM     31  O6  GG9 d          53.950   5.813  27.140  0.00  0.00    -0.617 OA
ATOM     32  O7  GG9 d          54.143   8.383  26.724  0.00  0.00    -0.617 OA
ATOM     33  O8  GG9 d          53.363   7.401  29.076  0.00  0.00    -0.617 OA
ENDBRANCH  29  30
ENDBRANCH   3  29
BRANCH   1  34
ATOM     34  C7  GG9 d          60.324   6.808  29.370  0.00  0.00     0.205 C 
ATOM     35  O4  GG9 d          61.074   6.502  28.463  0.00  0.00    -0.644 OA
ATOM     36  O5  GG9 d          60.502   6.564  30.528  0.00  0.00    -0.644 OA
ENDBRANCH   1  34
TORSDOF 10
ENDMDL
MODEL 7
REMARK VINA RESULT:       0.1      1.912      3.119
REMARK  10 active torsions:
REMARK  status: ('A' for Active; 'I' for Inactive)
REMARK    1  A    between atoms: C1_1  and  C7_7 
REMARK    2  A    between atoms: C3_3  and  O1_8 
REMARK    3  A    between atoms: C4_4  and  O2_9 
REMARK    4  A    between atoms: O3_10  and  C5_5 
REMARK    5  A    between atoms: O1_8  and  P1_13 
REMARK    6  A    between atoms: C8_17  and  O3_10 
REMARK    7  A    between atoms: C8_17  and  C9_18 
REMARK    8  A    between atoms: C8_17  and  C10_19 
REMARK    9  A    between atoms: O14_26  and  C8_17 
REMARK   10  A    between atoms: P2_22  and  O14_26 
ROOT
ATOM      1  C1  GG9 d          60.666   9.728  27.139  0.00  0.00     0.020 C 
ATOM      2  C2  GG9 d          61.011   8.493  27.773  0.00  0.00    -0.060 C 
ATOM      3  C3  GG9 d          59.950   7.726  28.561  0.00  0.00     0.096 C 
ATOM      4  C4  GG9 d          58.469   8.114  28.116  0.00  0.00     0.089 C 
ATOM      5  C5  GG9 d          58.277   9.653  28.232  0.00  0.00     0.074 C 
ATOM      6  C6  GG9 d          59.277  10.311  27.202  0.00  0.00    -0.008 C 
ATOM      7  H1  GG9 d          62.024   8.101  27.694  0.00  0.00     0.082 H 
ATOM      8  H2  GG9 d          60.081   6.654  28.355  0.00  0.00     0.095 H 
ATOM      9  H3  GG9 d          58.304   7.817  27.070  0.00  0.00     0.091 H 
ATOM     10  H4  GG9 d          58.498   9.995  29.254  0.00  0.00     0.088 H 
ATOM     11  H5  GG9 d          58.831  10.221  26.201  0.00  0.00     0.044 H 
ATOM     12  H6  GG9 d          59.374  11.375  27.465  0.00  0.00     0.044 H 
ENDROOT
BRANCH   5  13
ATOM     13  O3  GG9 d          56.926   9.988  27.888  0.00  0.00    -0.334 OA
BRANCH  13  14
ATOM     14  C8  GG9 d          55.997  10.595  28.820  0.00  0.00     0.326 C 
BRANCH  14  15
ATOM     15  C9  GG9 d          55.404   9.686  29.998  0.00  0.00     0.272 C 
ATOM     16  F1  GG9 d          54.700   8.694  29.575  0.00  0.00    -0.208 F 
ATOM     17  F2  GG9 d          56.347   9.296  30.831  0.00  0.00    -0.208 F 
ATOM     18  H8  GG9 d          54.721  10.328  30.572  0.00  0.00     0.155 H 
ENDBRANCH  14  15
BRANCH  14  19
ATOM     19  C10 GG9 d          54.831  11.122  28.021  0.00  0.00     0.245 C 
ATOM     20  O9  GG9 d          55.248  11.923  27.117  0.00  0.00    -0.644 OA
ATOM     21  O10 GG9 d          53.637  10.808  28.190  0.00  0.00    -0.644 OA
ENDBRANCH  14  19
BRANCH  14  22
ATOM     22  O14 GG9 d          56.626  11.795  29.432  0.00  0.00    -0.228 OA
BRANCH  22  23
ATOM     23  P2  GG9 d          58.161  12.275  29.787  0.00  0.00     0.425 P 
ATOM     24  O11 GG9 d          58.100  13.174  31.040  0.00  0.00    -0.617 OA
ATOM     25  O12 GG9 d          58.585  13.051  28.574  0.00  0.00    -0.617 OA
ATOM     26  O13 GG9 d          59.069  11.049  30.053  0.00  0.00    -0.617 OA
ENDBRANCH  22  23
ENDBRANCH  14  22
ENDBRANCH  13  14
ENDBRANCH   5  13
BRANCH   4  27
ATOM     27  O2  GG9 d          57.573   7.378  28.963  0.00  0.00    -0.390 OA
ATOM     28  H7  GG9 d          57.339   7.911  29.713  0.00  0.00     0.210 HD
ENDBRANCH   4  27
BRANCH   3  29
ATOM     29  O1  GG9 d          60.210   7.960  30.077  0.00  0.00    -0.271 OA
BRANCH  29  30
ATOM     30  P1  GG9 d          61.590   8.650  30.692  0.00  0.00     0.422 P 
ATOM     31  O6  GG9 d          62.230   7.586  31.587  0.00  0.00    -0.617 OA
ATOM     32  O7  GG9 d          61.098   9.936  31.482  0.00  0.00    -0.617 OA
ATOM     33  O8  GG9 d          62.387   8.908  29.387  0.00  0.00    -0.617 OA
ENDBRANCH  29  30
ENDBRANCH   3  29
BRANCH   1  34
ATOM     34  C7  GG9 d          61.721  10.456  26.361  0.00  0.00     0.205 C 
ATOM     35  O4  GG9 d          61.590  11.656  26.213  0.00  0.00    -0.644 OA
ATOM     36  O5  GG9 d          62.643   9.805  25.963  0.00  0.00    -0.644 OA
ENDBRANCH   1  34
TORSDOF 10
ENDMDL
MODEL 8
REMARK VINA RESULT:       0.6      1.788      2.833
REMARK  10 active torsions:
REMARK  status: ('A' for Active; 'I' for Inactive)
REMARK    1  A    between atoms: C1_1  and  C7_7 
REMARK    2  A    between atoms: C3_3  and  O1_8 
REMARK    3  A    between atoms: C4_4  and  O2_9 
REMARK    4  A    between atoms: O3_10  and  C5_5 
REMARK    5  A    between atoms: O1_8  and  P1_13 
REMARK    6  A    between atoms: C8_17  and  O3_10 
REMARK    7  A    between atoms: C8_17  and  C9_18 
REMARK    8  A    between atoms: C8_17  and  C10_19 
REMARK    9  A    between atoms: O14_26  and  C8_17 
REMARK   10  A    between atoms: P2_22  and  O14_26 
ROOT
ATOM      1  C1  GG9 d          60.645   9.794  27.086  0.00  0.00     0.020 C 
ATOM      2  C2  GG9 d          61.113   8.576  27.674  0.00  0.00    -0.060 C 
ATOM      3  C3  GG9 d          60.127   7.659  28.395  0.00  0.00     0.096 C 
ATOM      4  C4  GG9 d          58.622   7.899  27.925  0.00  0.00     0.089 C 
ATOM      5  C5  GG9 d          58.255   9.401  28.104  0.00  0.00     0.074 C 
ATOM      6  C6  GG9 d          59.198  10.214  27.134  0.00  0.00    -0.008 C 
ATOM      7  H1  GG9 d          62.165   8.303  27.607  0.00  0.00     0.082 H 
ATOM      8  H2  GG9 d          60.382   6.619  28.146  0.00  0.00     0.095 H 
ATOM      9  H3  GG9 d          58.517   7.636  26.863  0.00  0.00     0.091 H 
ATOM     10  H4  GG9 d          58.411   9.716  29.146  0.00  0.00     0.088 H 
ATOM     11  H5  GG9 d          58.790  10.122  26.117  0.00  0.00     0.044 H 
ATOM     12  H6  GG9 d          59.168  11.269  27.447  0.00  0.00     0.044 H 
ENDROOT
BRANCH   5  13
ATOM     13  O3  GG9 d          56.884   9.598  27.736  0.00  0.00    -0.334 OA
BRANCH  13  14
ATOM     14  C8  GG9 d          55.850   9.957  28.687  0.00  0.00     0.326 C 
BRANCH  14  15
ATOM     15  C9  GG9 d          56.150   9.744  30.245  0.00  0.00     0.272 C 
ATOM     16  F1  GG9 d          57.100  10.491  30.692  0.00  0.00    -0.208 F 
ATOM     17  F2  GG9 d          55.056   9.860  30.971  0.00  0.00    -0.208 F 
ATOM     18  H8  GG9 d          56.494   8.706  30.356  0.00  0.00     0.155 H 
ENDBRANCH  14  15
BRANCH  14  19
ATOM     19  C10 GG9 d          54.620   9.153  28.346  0.00  0.00     0.245 C 
ATOM     20  O9  GG9 d          54.054   9.640  27.309  0.00  0.00    -0.644 OA
ATOM     21  O10 GG9 d          54.221   8.145  28.960  0.00  0.00    -0.644 OA
ENDBRANCH  14  19
BRANCH  14  22
ATOM     22  O14 GG9 d          55.460  11.376  28.479  0.00  0.00    -0.228 OA
BRANCH  22  23
ATOM     23  P2  GG9 d          55.859  12.570  27.416  0.00  0.00     0.425 P 
ATOM     24  O11 GG9 d          56.810  11.967  26.359  0.00  0.00    -0.617 OA
ATOM     25  O12 GG9 d          56.559  13.589  28.266  0.00  0.00    -0.617 OA
ATOM     26  O13 GG9 d          54.591  13.137  26.732  0.00  0.00    -0.617 OA
ENDBRANCH  22  23
ENDBRANCH  14  22
ENDBRANCH  13  14
ENDBRANCH   5  13
BRANCH   4  27
ATOM     27  O2  GG9 d          57.795   7.028  28.712  0.00  0.00    -0.390 OA
ATOM     28  H7  GG9 d          56.892   7.108  28.426  0.00  0.00     0.210 HD
ENDBRANCH   4  27
BRANCH   3  29
ATOM     29  O1  GG9 d          60.322   7.848  29.927  0.00  0.00    -0.271 OA
BRANCH  29  30
ATOM     30  P1  GG9 d          61.451   8.859  30.607  0.00  0.00     0.422 P 
ATOM     31  O6  GG9 d          62.262   9.430  29.439  0.00  0.00    -0.617 OA
ATOM     32  O7  GG9 d          62.300   7.941  31.584  0.00  0.00    -0.617 OA
ATOM     33  O8  GG9 d          60.528   9.909  31.277  0.00  0.00    -0.617 OA
ENDBRANCH  29  30
ENDBRANCH   3  29
BRANCH   1  34
ATOM     34  C7  GG9 d          61.630  10.671  26.372  0.00  0.00     0.205 C 
ATOM     35  O4  GG9 d          61.354  11.849  26.246  0.00  0.00    -0.644 OA
ATOM     36  O5  GG9 d          62.643  10.153  26.000  0.00  0.00    -0.644 OA
ENDBRANCH   1  34
TORSDOF 10
ENDMDL
