MODEL 1
REMARK VINA RESULT:     -10.5      0.000      0.000
REMARK  13 active torsions:
REMARK  status: ('A' for Active; 'I' for Inactive)
REMARK    1  A    between atoms: C_1  and  CA_4 
REMARK       I    between atoms: NAV_21  and  C_1 
REMARK    2  A    between atoms: CAH_9  and  CAL_13 
REMARK    3  A    between atoms: CAL_13  and  CAT_20 
REMARK    4  A    between atoms: CAL_13  and  CBZ_50 
REMARK    5  A    between atoms: CAL_13  and  CCA_51 
REMARK    6  A    between atoms: CAR_18  and  CAS_19 
REMARK    7  A    between atoms: CAZ_24  and  CAR_18 
REMARK    8  A    between atoms: CAX_22  and  NAV_21 
REMARK    9  A    between atoms: CAX_22  and  CAY_23 
REMARK       I    between atoms: CAY_23  and  NBK_35 
REMARK   10  A    between atoms: NBK_35  and  SBM_37 
REMARK   11  A    between atoms: SBM_37  and  CBN_38 
REMARK   12  A    between atoms: CBV_46  and  CBX_48 
REMARK   13  A    between atoms: CBV_46  and  CBY_49 
ROOT
ATOM      1  N   SU3 d         -15.057  -9.791  13.455  0.00  0.00    -0.334 N 
ATOM      2  CA  SU3 d         -13.638  -9.805  13.897  0.00  0.00     0.094 C 
ATOM      3  CB  SU3 d         -12.922 -10.611  12.852  0.00  0.00    -0.011 C 
ATOM      4  CG  SU3 d         -13.978 -11.637  12.464  0.00  0.00     0.067 C 
ATOM      5  CAF SU3 d         -16.012  -9.055  14.005  0.00  0.00     0.244 C 
ATOM      6  OAG SU3 d         -15.702  -8.308  14.943  0.00  0.00    -0.271 OA
ATOM      7  CAH SU3 d         -17.437  -9.051  13.449  0.00  0.00     0.098 C 
ATOM      8  NAI SU3 d         -18.362  -9.325  14.559  0.00  0.00    -0.323 N 
ATOM      9  CAJ SU3 d         -18.871 -10.525  14.746  0.00  0.00     0.361 C 
ATOM     10  OAK SU3 d         -19.667 -10.624  15.837  0.00  0.00    -0.303 OA
ATOM     11  OAM SU3 d         -18.723 -11.469  13.970  0.00  0.00    -0.238 OA
ATOM     12  CAO SU3 d         -13.429 -13.661  13.608  0.00  0.00     0.371 C 
ATOM     13  OAP SU3 d         -12.500 -13.839  12.805  0.00  0.00    -0.238 OA
ATOM     14  NAQ SU3 d         -13.604 -14.484  14.607  0.00  0.00    -0.278 N 
ATOM     15  CBB SU3 d         -12.782 -15.643  14.980  0.00  0.00     0.000 A 
ATOM     16  CBC SU3 d         -13.392 -16.170  16.258  0.00  0.00    -0.008 A 
ATOM     17  CBD SU3 d         -14.524 -15.432  16.594  0.00  0.00    -0.002 A 
ATOM     18  CBE SU3 d         -14.719 -14.318  15.564  0.00  0.00     0.001 A 
ATOM     19  CBF SU3 d         -13.008 -17.237  17.054  0.00  0.00    -0.071 A 
ATOM     20  CBG SU3 d         -13.732 -17.560  18.184  0.00  0.00    -0.082 A 
ATOM     21  CBH SU3 d         -14.853 -16.822  18.517  0.00  0.00    -0.076 A 
ATOM     22  CBI SU3 d         -15.263 -15.743  17.741  0.00  0.00    -0.046 A 
ATOM     23  CBJ SU3 d         -16.555 -15.100  18.251  0.00  0.00    -0.040 C 
ATOM     24  CBS SU3 d         -16.547 -13.647  18.606  0.00  0.00    -0.061 C 
ATOM     25  CBT SU3 d         -18.025 -13.257  18.761  0.00  0.00    -0.064 C 
ATOM     26  CBU SU3 d         -18.627 -12.942  17.389  0.00  0.00    -0.057 C 
ATOM     27  CBV SU3 d         -20.055 -12.412  17.454  0.00  0.00    -0.025 C 
ATOM     28  CBW SU3 d         -20.332 -11.872  16.070  0.00  0.00     0.037 C 
ATOM     29  CD1 SU3 d         -15.242 -10.776  12.372  0.00  0.00     0.023 C 
ATOM     30  OD2 SU3 d         -14.269 -12.609  13.501  0.00  0.00    -0.296 OA
ATOM     31  H1  SU3 d         -13.519 -10.257  14.892  0.00  0.00     0.088 H 
ATOM     32  H2  SU3 d         -12.027 -11.098  13.266  0.00  0.00     0.040 H 
ATOM     33  H3  SU3 d         -12.636  -9.988  11.992  0.00  0.00     0.040 H 
ATOM     34  H4  SU3 d         -13.722 -12.138  11.518  0.00  0.00     0.086 H 
ATOM     35  H5  SU3 d         -17.526  -9.860  12.709  0.00  0.00     0.088 H 
ATOM     36  H6  SU3 d         -18.608  -8.585  15.185  0.00  0.00     0.165 HD
ATOM     37  H19 SU3 d         -11.917 -16.038  14.449  0.00  0.00     0.113 H 
ATOM     38  H20 SU3 d         -15.508 -13.566  15.541  0.00  0.00     0.113 H 
ATOM     39  H21 SU3 d         -12.134 -17.822  16.788  0.00  0.00     0.084 H 
ATOM     40  H22 SU3 d         -13.422 -18.389  18.810  0.00  0.00     0.083 H 
ATOM     41  H23 SU3 d         -15.423 -17.089  19.399  0.00  0.00     0.084 H 
ATOM     42  H24 SU3 d         -16.856 -15.651  19.155  0.00  0.00     0.040 H 
ATOM     43  H25 SU3 d         -17.315 -15.237  17.468  0.00  0.00     0.040 H 
ATOM     44  H32 SU3 d         -16.075 -13.058  17.806  0.00  0.00     0.033 H 
ATOM     45  H33 SU3 d         -16.005 -13.484  19.550  0.00  0.00     0.033 H 
ATOM     46  H34 SU3 d         -18.102 -12.368  19.405  0.00  0.00     0.033 H 
ATOM     47  H35 SU3 d         -18.577 -14.091  19.218  0.00  0.00     0.033 H 
ATOM     48  H36 SU3 d         -18.626 -13.864  16.789  0.00  0.00     0.034 H 
ATOM     49  H37 SU3 d         -17.998 -12.184  16.899  0.00  0.00     0.034 H 
ATOM     50  H38 SU3 d         -19.983 -12.604  15.327  0.00  0.00     0.076 H 
ATOM     51  H39 SU3 d         -21.416 -11.724  15.958  0.00  0.00     0.076 H 
ATOM     52  H52 SU3 d         -15.311 -10.278  11.393  0.00  0.00     0.068 H 
ATOM     53  H53 SU3 d         -16.145 -11.382  12.539  0.00  0.00     0.068 H 
ENDROOT
BRANCH   2  54
ATOM     54  C   SU3 d         -13.180  -8.348  13.909  0.00  0.00     0.241 C 
ATOM     55  O   SU3 d         -13.172  -7.662  12.885  0.00  0.00    -0.271 OA
ATOM     56  NAV SU3 d         -12.746  -7.914  15.091  0.00  0.00    -0.341 N 
ATOM     57  H15 SU3 d         -12.596  -8.585  15.818  0.00  0.00     0.163 HD
BRANCH  56  58
ATOM     58  CAX SU3 d         -12.478  -6.516  15.377  0.00  0.00     0.119 A 
ATOM     59  CAZ SU3 d         -13.778  -5.671  15.383  0.00  0.00    -0.018 A 
ATOM     60  CBA SU3 d         -13.036  -5.968  16.685  0.00  0.00    -0.027 A 
ATOM     61  H16 SU3 d         -14.747  -6.136  15.153  0.00  0.00     0.044 H 
ATOM     62  H17 SU3 d         -12.506  -5.160  17.209  0.00  0.00     0.038 H 
ATOM     63  H18 SU3 d         -13.477  -6.654  17.422  0.00  0.00     0.038 H 
BRANCH  58  64
ATOM     64  CAY SU3 d         -11.151  -5.909  14.955  0.00  0.00     0.259 C 
ATOM     65  NBK SU3 d         -10.515  -6.542  13.995  0.00  0.00    -0.252 N 
ATOM     66  H26 SU3 d         -10.872  -7.380  13.582  0.00  0.00     0.181 HD
ATOM     67  OBL SU3 d         -10.720  -4.942  15.577  0.00  0.00    -0.270 OA
BRANCH  65  68
ATOM     68  SBM SU3 d          -9.138  -5.886  13.531  0.00  0.00     0.237 S 
ATOM     69  OBO SU3 d          -9.381  -4.706  12.653  0.00  0.00    -0.205 OA
ATOM     70  OBP SU3 d          -8.233  -5.594  14.663  0.00  0.00    -0.205 OA
BRANCH  68  71
ATOM     71  CBN SU3 d          -8.352  -7.138  12.518  0.00  0.00     0.063 A 
ATOM     72  CBQ SU3 d          -7.041  -6.683  11.897  0.00  0.00    -0.046 A 
ATOM     73  CBR SU3 d          -7.041  -7.662  13.084  0.00  0.00    -0.046 A 
ATOM     74  H28 SU3 d          -6.694  -5.648  12.037  0.00  0.00     0.035 H 
ATOM     75  H29 SU3 d          -6.755  -7.033  10.895  0.00  0.00     0.035 H 
ATOM     76  H30 SU3 d          -6.756  -8.713  12.932  0.00  0.00     0.035 H 
ATOM     77  H31 SU3 d          -6.696  -7.328  14.073  0.00  0.00     0.035 H 
ATOM     78  H27 SU3 d          -9.072  -7.781  11.991  0.00  0.00     0.066 H 
ENDBRANCH  68  71
ENDBRANCH  65  68
ENDBRANCH  58  64
BRANCH  59  79
ATOM     79  CAR SU3 d         -13.747  -4.220  14.894  0.00  0.00    -0.062 C 
ATOM     80  H7  SU3 d         -13.888  -3.549  15.755  0.00  0.00     0.033 H 
ATOM     81  H8  SU3 d         -12.771  -4.019  14.429  0.00  0.00     0.033 H 
BRANCH  79  82
ATOM     82  CAS SU3 d         -14.854  -3.953  13.866  0.00  0.00    -0.076 C 
ATOM     83  H9  SU3 d         -15.231  -2.927  13.991  0.00  0.00     0.027 H 
ATOM     84  H10 SU3 d         -15.677  -4.667  14.019  0.00  0.00     0.027 H 
ATOM     85  H11 SU3 d         -14.448  -4.074  12.851  0.00  0.00     0.027 H 
ENDBRANCH  79  82
ENDBRANCH  59  79
ENDBRANCH  56  58
ENDBRANCH   2  54
BRANCH   7  86
ATOM     86  CAL SU3 d         -17.777  -7.726  12.742  0.00  0.00    -0.022 C 
BRANCH  86  87
ATOM     87  CAT SU3 d         -18.150  -6.595  13.719  0.00  0.00    -0.067 C 
ATOM     88  H12 SU3 d         -17.654  -5.664  13.408  0.00  0.00     0.028 H 
ATOM     89  H13 SU3 d         -17.821  -6.864  14.733  0.00  0.00     0.028 H 
ATOM     90  H14 SU3 d         -19.240  -6.450  13.713  0.00  0.00     0.028 H 
ENDBRANCH  86  87
BRANCH  86  91
ATOM     91  CBZ SU3 d         -16.591  -7.298  11.890  0.00  0.00    -0.067 C 
ATOM     92  H46 SU3 d         -16.907  -6.508  11.193  0.00  0.00     0.028 H 
ATOM     93  H47 SU3 d         -16.218  -8.162  11.321  0.00  0.00     0.028 H 
ATOM     94  H48 SU3 d         -15.792  -6.913  12.541  0.00  0.00     0.028 H 
ENDBRANCH  86  91
BRANCH  86  95
ATOM     95  CCA SU3 d         -18.976  -7.957  11.818  0.00  0.00    -0.067 C 
ATOM     96  H49 SU3 d         -19.582  -8.790  12.205  0.00  0.00     0.028 H 
ATOM     97  H50 SU3 d         -18.619  -8.204  10.807  0.00  0.00     0.028 H 
ATOM     98  H51 SU3 d         -19.589  -7.045  11.777  0.00  0.00     0.028 H 
ENDBRANCH  86  95
ENDBRANCH   7  86
BRANCH  27  99
ATOM     99  CBX SU3 d         -21.069 -13.528  17.726  0.00  0.00    -0.067 C 
ATOM    100  H40 SU3 d         -21.752 -13.215  18.530  0.00  0.00     0.028 H 
ATOM    101  H41 SU3 d         -20.537 -14.441  18.033  0.00  0.00     0.028 H 
ATOM    102  H42 SU3 d         -21.646 -13.729  16.812  0.00  0.00     0.028 H 
ENDBRANCH  27  99
BRANCH  27 103
ATOM    103  CBY SU3 d         -20.180 -11.311  18.522  0.00  0.00    -0.067 C 
ATOM    104  H43 SU3 d         -21.135 -11.425  19.057  0.00  0.00     0.028 H 
ATOM    105  H44 SU3 d         -20.147 -10.324  18.036  0.00  0.00     0.028 H 
ATOM    106  H45 SU3 d         -19.347 -11.396  19.236  0.00  0.00     0.028 H 
ENDBRANCH  27 103
TORSDOF 13
ENDMDL
