MODEL 1
REMARK VINA RESULT:      -8.8      0.000      0.000
REMARK  11 active torsions:
REMARK  status: ('A' for Active; 'I' for Inactive)
REMARK    1  A    between atoms: C20_3  and  C36_4 
REMARK    2  A    between atoms: C16_8  and  C35_9 
REMARK    3  A    between atoms: C5_13  and  O36_14 
REMARK    4  A    between atoms: C8_19  and  C25_20 
REMARK    5  A    between atoms: C10_22  and  O26_23 
REMARK    6  A    between atoms: O26_23  and  C27_24 
REMARK    7  A    between atoms: C11_25  and  O28_26 
REMARK    8  A    between atoms: C12_27  and  C29_28 
REMARK    9  A    between atoms: C14_30  and  C30_31 
REMARK   10  A    between atoms: C15_32  and  O31_33 
REMARK   11  A    between atoms: O31_33  and  C32_34 
REMARK       I    between atoms: C32_34  and  N34_36 
ROOT
ATOM      1  O37 BC6 d          41.343  -5.582  41.924  0.00  0.00    -0.268 OA
ATOM      2  C21 BC6 d          41.290  -6.017  40.777  0.00  0.00     0.251 C 
ATOM      3  C20 BC6 d          41.772  -7.376  40.583  0.00  0.00     0.002 C 
ATOM      4  C19 BC6 d          40.929  -8.312  40.049  0.00  0.00    -0.092 C 
ATOM      5  C18 BC6 d          41.216  -9.755  39.785  0.00  0.00    -0.049 C 
ATOM      6  C17 BC6 d          40.388 -10.151  38.559  0.00  0.00    -0.057 C 
ATOM      7  C16 BC6 d          38.905 -10.388  38.833  0.00  0.00    -0.028 C 
ATOM      8  N22 BC6 d          40.812  -5.227  39.803  0.00  0.00    -0.323 N 
ATOM      9  C3  BC6 d          40.959  -5.421  38.450  0.00  0.00     0.038 A 
ATOM     10  C4  BC6 d          39.878  -5.138  37.634  0.00  0.00    -0.025 A 
ATOM     11  C5  BC6 d          39.953  -5.306  36.249  0.00  0.00     0.068 A 
ATOM     12  C6  BC6 d          41.123  -5.773  35.653  0.00  0.00    -0.045 A 
ATOM     13  C1  BC6 d          42.227  -6.077  36.477  0.00  0.00    -0.053 A 
ATOM     14  C2  BC6 d          42.139  -5.876  37.860  0.00  0.00    -0.051 A 
ATOM     15  C7  BC6 d          43.521  -6.627  35.912  0.00  0.00    -0.038 C 
ATOM     16  C8  BC6 d          43.513  -8.168  35.753  0.00  0.00    -0.051 C 
ATOM     17  C9  BC6 d          42.373  -8.640  34.805  0.00  0.00    -0.035 C 
ATOM     18  C10 BC6 d          42.210 -10.146  34.624  0.00  0.00     0.063 C 
ATOM     19  C11 BC6 d          41.120 -10.496  33.611  0.00  0.00     0.067 C 
ATOM     20  C12 BC6 d          39.755  -9.936  34.029  0.00  0.00    -0.014 C 
ATOM     21  C13 BC6 d          39.279 -10.559  35.337  0.00  0.00    -0.092 C 
ATOM     22  C14 BC6 d          38.576  -9.958  36.341  0.00  0.00    -0.058 C 
ATOM     23  C15 BC6 d          38.188 -10.814  37.526  0.00  0.00     0.074 C 
ATOM     24  H4  BC6 d          39.932  -7.965  39.785  0.00  0.00     0.077 H 
ATOM     25  H5  BC6 d          40.924 -10.365  40.652  0.00  0.00     0.038 H 
ATOM     26  H6  BC6 d          42.287  -9.898  39.580  0.00  0.00     0.038 H 
ATOM     27  H7  BC6 d          40.810 -11.078  38.146  0.00  0.00     0.034 H 
ATOM     28  H8  BC6 d          40.472  -9.346  37.815  0.00  0.00     0.034 H 
ATOM     29  H9  BC6 d          38.467  -9.438  39.174  0.00  0.00     0.043 H 
ATOM     30  H13 BC6 d          40.300  -4.417  40.089  0.00  0.00     0.169 HD
ATOM     31  H14 BC6 d          38.955  -4.779  38.077  0.00  0.00     0.091 H 
ATOM     32  H16 BC6 d          41.183  -5.901  34.579  0.00  0.00     0.088 H 
ATOM     33  H17 BC6 d          43.003  -6.078  38.483  0.00  0.00     0.087 H 
ATOM     34  H18 BC6 d          44.343  -6.350  36.588  0.00  0.00     0.040 H 
ATOM     35  H19 BC6 d          43.690  -6.174  34.924  0.00  0.00     0.040 H 
ATOM     36  H20 BC6 d          44.462  -8.433  35.265  0.00  0.00     0.040 H 
ATOM     37  H24 BC6 d          42.562  -8.204  33.813  0.00  0.00     0.037 H 
ATOM     38  H25 BC6 d          41.425  -8.249  35.203  0.00  0.00     0.037 H 
ATOM     39  H26 BC6 d          41.942 -10.583  35.597  0.00  0.00     0.087 H 
ATOM     40  H30 BC6 d          41.038 -11.589  33.517  0.00  0.00     0.087 H 
ATOM     41  H32 BC6 d          39.802  -8.840  34.114  0.00  0.00     0.049 H 
ATOM     42  H36 BC6 d          39.528 -11.608  35.488  0.00  0.00     0.078 H 
ATOM     43  H40 BC6 d          38.409 -11.869  37.306  0.00  0.00     0.092 H 
ENDROOT
BRANCH  23  44
ATOM     44  O31 BC6 d          36.798 -10.626  37.753  0.00  0.00    -0.294 OA
BRANCH  44  45
ATOM     45  C32 BC6 d          35.895 -11.144  36.764  0.00  0.00     0.358 C 
ATOM     46  O33 BC6 d          36.041 -12.294  36.385  0.00  0.00    -0.239 OA
ATOM     47  N34 BC6 d          34.969 -10.284  36.369  0.00  0.00    -0.346 N 
ATOM     48  H41 BC6 d          34.295 -10.555  35.682  0.00  0.00     0.161 HD
ATOM     49  H42 BC6 d          34.945  -9.363  36.757  0.00  0.00     0.161 HD
ENDBRANCH  44  45
ENDBRANCH  23  44
BRANCH   7  50
ATOM     50  C35 BC6 d          38.677 -11.436  39.936  0.00  0.00    -0.070 C 
ATOM     51  H10 BC6 d          38.513 -12.422  39.476  0.00  0.00     0.028 H 
ATOM     52  H11 BC6 d          37.794 -11.157  40.529  0.00  0.00     0.028 H 
ATOM     53  H12 BC6 d          39.559 -11.478  40.590  0.00  0.00     0.028 H 
ENDBRANCH   7  50
BRANCH  22  54
ATOM     54  C30 BC6 d          38.137  -8.516  36.303  0.00  0.00    -0.052 C 
ATOM     55  H37 BC6 d          38.483  -8.003  37.212  0.00  0.00     0.033 H 
ATOM     56  H38 BC6 d          37.039  -8.469  36.251  0.00  0.00     0.033 H 
ATOM     57  H39 BC6 d          38.568  -8.025  35.418  0.00  0.00     0.033 H 
ENDBRANCH  22  54
BRANCH  20  58
ATOM     58  C29 BC6 d          38.739 -10.374  32.980  0.00  0.00    -0.067 C 
ATOM     59  H33 BC6 d          39.262 -10.618  32.043  0.00  0.00     0.028 H 
ATOM     60  H34 BC6 d          38.023  -9.560  32.799  0.00  0.00     0.028 H 
ATOM     61  H35 BC6 d          38.200 -11.262  33.340  0.00  0.00     0.028 H 
ENDBRANCH  20  58
BRANCH  19  62
ATOM     62  O28 BC6 d          41.545  -9.926  32.353  0.00  0.00    -0.392 OA
ATOM     63  H31 BC6 d          42.477  -9.749  32.386  0.00  0.00     0.210 HD
ENDBRANCH  19  62
BRANCH   3  64
ATOM     64  C36 BC6 d          43.160  -7.683  41.063  0.00  0.00    -0.046 C 
ATOM     65  H1  BC6 d          43.123  -7.988  42.120  0.00  0.00     0.033 H 
ATOM     66  H2  BC6 d          43.789  -6.786  40.963  0.00  0.00     0.033 H 
ATOM     67  H3  BC6 d          43.585  -8.498  40.460  0.00  0.00     0.033 H 
ENDBRANCH   3  64
BRANCH  18  68
ATOM     68  O26 BC6 d          43.446 -10.735  34.165  0.00  0.00    -0.388 OA
BRANCH  68  69
ATOM     69  C27 BC6 d          43.583 -12.104  34.473  0.00  0.00     0.005 C 
ATOM     70  H27 BC6 d          42.732 -12.428  35.089  0.00  0.00     0.066 H 
ATOM     71  H28 BC6 d          44.519 -12.263  35.027  0.00  0.00     0.066 H 
ATOM     72  H29 BC6 d          43.605 -12.690  33.541  0.00  0.00     0.066 H 
ENDBRANCH  68  69
ENDBRANCH  18  68
BRANCH  16  73
ATOM     73  C25 BC6 d          43.486  -8.926  37.092  0.00  0.00    -0.073 C 
ATOM     74  H21 BC6 d          42.612  -9.592  37.119  0.00  0.00     0.028 H 
ATOM     75  H22 BC6 d          43.424  -8.205  37.921  0.00  0.00     0.028 H 
ATOM     76  H23 BC6 d          44.405  -9.522  37.195  0.00  0.00     0.028 H 
ENDBRANCH  16  73
BRANCH  11  77
ATOM     77  O36 BC6 d          38.829  -5.054  35.515  0.00  0.00    -0.361 OA
ATOM     78  H15 BC6 d          39.072  -4.621  34.705  0.00  0.00     0.217 HD
ENDBRANCH  11  77
TORSDOF 11
ENDMDL
