MODEL 1
REMARK VINA RESULT:      -8.5      0.000      0.000
REMARK  17 active torsions:
REMARK  status: ('A' for Active; 'I' for Inactive)
REMARK    1  A    between atoms: C_1  and  OA_3 
REMARK       I    between atoms: N_11  and  C_1 
REMARK    2  A    between atoms: OA_3  and  CB_4 
REMARK    3  A    between atoms: CB_4  and  CG_5 
REMARK    4  A    between atoms: CA_12  and  N_11 
REMARK    5  A    between atoms: P_13  and  CA_12 
REMARK    6  A    between atoms: CA_12  and  CB_16 
REMARK    7  A    between atoms: P_13  and  N_23 
REMARK    8  A    between atoms: CB_16  and  CG_17 
REMARK    9  A    between atoms: N_23  and  CA_24 
REMARK   10  A    between atoms: CA_24  and  CB_27 
REMARK   11  A    between atoms: CA_24  and  C_25 
REMARK       I    between atoms: C_25  and  N_31 
REMARK   12  A    between atoms: CB_27  and  CG_28 
REMARK   13  A    between atoms: CG_28  and  CD1_29 
REMARK   14  A    between atoms: CG_28  and  CD2_30 
REMARK   15  A    between atoms: N_31  and  CA_32 
REMARK   16  A    between atoms: CA_32  and  CB_35 
REMARK   17  A    between atoms: CA_32  and  C_33 
ROOT
ATOM      1  CA  MOL d          50.604  18.536  -6.976  0.00  0.00     0.112 C 
ATOM      2  H9  MOL d          49.705  19.020  -6.568  0.00  0.00     0.092 H 
ENDROOT
BRANCH   1   3
ATOM      3  N   MOL d          50.833  18.865  -8.411  0.00  0.00    -0.321 N 
ATOM      4  C   MOL d          50.335  19.983  -8.962  0.00  0.00     0.361 C 
ATOM      5  O   MOL d          49.569  20.829  -8.385  0.00  0.00    -0.238 OA
ATOM      6  H8  MOL d          51.370  18.239  -8.976  0.00  0.00     0.165 HD
BRANCH   4   7
ATOM      7  OA  MOL d          50.844  20.076 -10.240  0.00  0.00    -0.299 OA
BRANCH   7   8
ATOM      8  CB  MOL d          51.346  21.325 -10.743  0.00  0.00     0.054 C 
ATOM      9  H1  MOL d          52.443  21.367 -10.688  0.00  0.00     0.082 H 
ATOM     10  H2  MOL d          50.918  22.179 -10.197  0.00  0.00     0.082 H 
BRANCH   8  11
ATOM     11  CG  MOL d          50.874  21.292 -12.153  0.00  0.00    -0.034 A 
ATOM     12  CD1 MOL d          49.961  20.421 -12.757  0.00  0.00    -0.075 A 
ATOM     13  CE1 MOL d          49.551  20.526 -14.113  0.00  0.00    -0.082 A 
ATOM     14  H3  MOL d          49.543  19.621 -12.157  0.00  0.00     0.084 H 
ATOM     15  CZ  MOL d          49.975  21.495 -14.916  0.00  0.00    -0.083 A 
ATOM     16  H5  MOL d          48.864  19.786 -14.507  0.00  0.00     0.083 H 
ATOM     17  CE2 MOL d          50.851  22.273 -14.273  0.00  0.00    -0.082 A 
ATOM     18  H7  MOL d          49.657  21.635 -15.943  0.00  0.00     0.083 H 
ATOM     19  CD2 MOL d          51.332  22.271 -12.947  0.00  0.00    -0.075 A 
ATOM     20  H6  MOL d          51.275  23.058 -14.890  0.00  0.00     0.083 H 
ATOM     21  H4  MOL d          52.032  23.018 -12.590  0.00  0.00     0.084 H 
ENDBRANCH   8  11
ENDBRANCH   7   8
ENDBRANCH   4   7
ENDBRANCH   1   3
BRANCH   1  22
ATOM     22  P   MOL d          51.967  19.019  -6.177  0.00  0.00     0.229 P 
ATOM     23  OP1 MOL d          53.261  18.334  -6.761  0.00  0.00    -0.650 OA
ATOM     24  OP2 MOL d          52.102  20.597  -6.104  0.00  0.00    -0.650 OA
BRANCH  22  25
ATOM     25  N   MOL d          51.564  18.444  -4.413  0.00  0.00    -0.334 N 
ATOM     26  H17 MOL d          50.630  18.260  -4.109  0.00  0.00     0.164 HD
BRANCH  25  27
ATOM     27  CA  MOL d          52.727  18.287  -3.527  0.00  0.00     0.091 C 
ATOM     28  H18 MOL d          53.427  19.096  -3.785  0.00  0.00     0.087 H 
BRANCH  27  29
ATOM     29  CB  MOL d          52.361  18.422  -2.044  0.00  0.00    -0.035 C 
ATOM     30  H19 MOL d          51.877  17.489  -1.718  0.00  0.00     0.037 H 
ATOM     31  H20 MOL d          51.655  19.258  -1.933  0.00  0.00     0.037 H 
BRANCH  29  32
ATOM     32  CG  MOL d          53.552  18.680  -1.151  0.00  0.00    -0.059 C 
ATOM     33  H21 MOL d          54.381  17.990  -1.366  0.00  0.00     0.038 H 
BRANCH  32  34
ATOM     34  CD1 MOL d          54.048  20.127  -1.323  0.00  0.00    -0.073 C 
ATOM     35  H22 MOL d          54.915  20.298  -0.668  0.00  0.00     0.028 H 
ATOM     36  H23 MOL d          53.242  20.825  -1.055  0.00  0.00     0.028 H 
ATOM     37  H24 MOL d          54.343  20.291  -2.370  0.00  0.00     0.028 H 
ENDBRANCH  32  34
BRANCH  32  38
ATOM     38  CD2 MOL d          52.937  18.381   0.199  0.00  0.00    -0.073 C 
ATOM     39  H25 MOL d          52.613  17.330   0.230  0.00  0.00     0.028 H 
ATOM     40  H26 MOL d          52.068  19.036   0.360  0.00  0.00     0.028 H 
ATOM     41  H27 MOL d          53.682  18.559   0.989  0.00  0.00     0.028 H 
ENDBRANCH  32  38
ENDBRANCH  29  32
ENDBRANCH  27  29
BRANCH  27  42
ATOM     42  C   MOL d          53.481  16.954  -3.662  0.00  0.00     0.241 C 
ATOM     43  O   MOL d          54.717  16.913  -3.687  0.00  0.00    -0.271 OA
ATOM     44  N   MOL d          52.732  15.870  -3.671  0.00  0.00    -0.345 N 
ATOM     45  H28 MOL d          51.740  15.995  -3.633  0.00  0.00     0.163 HD
BRANCH  44  46
ATOM     46  CA  MOL d          53.238  14.483  -3.735  0.00  0.00     0.093 C 
ATOM     47  H29 MOL d          54.334  14.503  -3.819  0.00  0.00     0.089 H 
BRANCH  46  48
ATOM     48  CB  MOL d          52.849  13.773  -2.451  0.00  0.00    -0.048 C 
ATOM     49  H30 MOL d          53.218  12.737  -2.479  0.00  0.00     0.030 H 
ATOM     50  H31 MOL d          51.754  13.770  -2.350  0.00  0.00     0.030 H 
ATOM     51  H32 MOL d          53.295  14.298  -1.592  0.00  0.00     0.030 H 
ENDBRANCH  46  48
BRANCH  46  52
ATOM     52  C   MOL d          52.658  13.743  -4.966  0.00  0.00     0.196 C 
ATOM     53  O   MOL d          51.606  14.142  -5.509  0.00  0.00    -0.646 OA
ATOM     54  OXT MOL d          53.214  12.768  -5.589  0.00  0.00    -0.646 OA
ENDBRANCH  46  52
ENDBRANCH  44  46
ENDBRANCH  27  42
ENDBRANCH  25  27
ENDBRANCH  22  25
ENDBRANCH   1  22
BRANCH   1  55
ATOM     55  CB  MOL d          50.491  17.048  -6.956  0.00  0.00    -0.011 C 
ATOM     56  H10 MOL d          50.574  16.672  -5.926  0.00  0.00     0.044 H 
ATOM     57  H11 MOL d          51.281  16.597  -7.575  0.00  0.00     0.044 H 
BRANCH  55  58
ATOM     58  CG  MOL d          49.126  16.725  -7.527  0.00  0.00    -0.056 A 
ATOM     59  CD1 MOL d          48.031  16.899  -6.671  0.00  0.00    -0.077 A 
ATOM     60  CE1 MOL d          46.730  16.644  -7.123  0.00  0.00    -0.082 A 
ATOM     61  H12 MOL d          48.191  17.233  -5.652  0.00  0.00     0.084 H 
ATOM     62  CZ  MOL d          46.556  16.225  -8.436  0.00  0.00    -0.083 A 
ATOM     63  H14 MOL d          45.879  16.771  -6.463  0.00  0.00     0.083 H 
ATOM     64  CE2 MOL d          47.674  16.076  -9.307  0.00  0.00    -0.082 A 
ATOM     65  H16 MOL d          45.559  16.009  -8.802  0.00  0.00     0.083 H 
ATOM     66  CD2 MOL d          48.968  16.347  -8.837  0.00  0.00    -0.077 A 
ATOM     67  H15 MOL d          47.526  15.754 -10.331  0.00  0.00     0.083 H 
ATOM     68  H13 MOL d          49.825  16.259  -9.495  0.00  0.00     0.084 H 
ENDBRANCH  55  58
ENDBRANCH   1  55
TORSDOF 17
ENDMDL
