MODEL 1
REMARK VINA RESULT:      -6.5      0.000      0.000
REMARK  17 active torsions:
REMARK  status: ('A' for Active; 'I' for Inactive)
REMARK    1  A    between atoms: C_1  and  OA_3 
REMARK       I    between atoms: N_11  and  C_1 
REMARK    2  A    between atoms: OA_3  and  CB_4 
REMARK    3  A    between atoms: CB_4  and  CG_5 
REMARK    4  A    between atoms: CA_12  and  N_11 
REMARK    5  A    between atoms: P_13  and  CA_12 
REMARK    6  A    between atoms: CA_12  and  CB_16 
REMARK    7  A    between atoms: P_13  and  N_23 
REMARK    8  A    between atoms: CB_16  and  CG_17 
REMARK    9  A    between atoms: N_23  and  CA_24 
REMARK   10  A    between atoms: CA_24  and  CB_27 
REMARK   11  A    between atoms: CA_24  and  C_25 
REMARK       I    between atoms: C_25  and  N_31 
REMARK   12  A    between atoms: CB_27  and  CG_28 
REMARK   13  A    between atoms: CG_28  and  CD1_29 
REMARK   14  A    between atoms: CG_28  and  CD2_30 
REMARK   15  A    between atoms: N_31  and  CA_32 
REMARK   16  A    between atoms: CA_32  and  CB_35 
REMARK   17  A    between atoms: CA_32  and  C_33 
ROOT
ATOM      1  CA  MOL d          49.790  19.978 -10.797  0.00  0.00     0.112 C 
ATOM      2  H9  MOL d          50.481  19.571 -11.550  0.00  0.00     0.092 H 
ENDROOT
BRANCH   1   3
ATOM      3  N   MOL d          48.634  19.077 -10.531  0.00  0.00    -0.321 N 
ATOM      4  C   MOL d          48.185  18.220 -11.460  0.00  0.00     0.361 C 
ATOM      5  O   MOL d          48.610  18.122 -12.661  0.00  0.00    -0.238 OA
ATOM      6  H8  MOL d          48.183  19.113  -9.639  0.00  0.00     0.165 HD
BRANCH   4   7
ATOM      7  OA  MOL d          47.223  17.432 -10.864  0.00  0.00    -0.299 OA
BRANCH   7   8
ATOM      8  CB  MOL d          46.514  16.437 -11.621  0.00  0.00     0.054 C 
ATOM      9  H1  MOL d          46.789  16.471 -12.685  0.00  0.00     0.082 H 
ATOM     10  H2  MOL d          45.425  16.556 -11.519  0.00  0.00     0.082 H 
BRANCH   8  11
ATOM     11  CG  MOL d          46.984  15.180 -10.980  0.00  0.00    -0.034 A 
ATOM     12  CD1 MOL d          46.437  14.486  -9.895  0.00  0.00    -0.075 A 
ATOM     13  CE1 MOL d          46.953  13.258  -9.404  0.00  0.00    -0.082 A 
ATOM     14  H3  MOL d          45.569  14.910  -9.401  0.00  0.00     0.084 H 
ATOM     15  CZ  MOL d          47.987  12.640  -9.966  0.00  0.00    -0.083 A 
ATOM     16  H5  MOL d          46.486  12.806  -8.536  0.00  0.00     0.083 H 
ATOM     17  CE2 MOL d          48.460  13.370 -10.981  0.00  0.00    -0.082 A 
ATOM     18  H7  MOL d          48.387  11.684  -9.648  0.00  0.00     0.083 H 
ATOM     19  CD2 MOL d          48.039  14.587 -11.555  0.00  0.00    -0.075 A 
ATOM     20  H6  MOL d          49.338  12.944 -11.454  0.00  0.00     0.083 H 
ATOM     21  H4  MOL d          48.541  15.019 -12.414  0.00  0.00     0.084 H 
ENDBRANCH   8  11
ENDBRANCH   7   8
ENDBRANCH   4   7
ENDBRANCH   1   3
BRANCH   1  22
ATOM     22  P   MOL d          50.542  20.195  -9.342  0.00  0.00     0.229 P 
ATOM     23  OP1 MOL d          52.061  20.577  -9.519  0.00  0.00    -0.650 OA
ATOM     24  OP2 MOL d          49.770  21.215  -8.405  0.00  0.00    -0.650 OA
BRANCH  22  25
ATOM     25  N   MOL d          50.303  18.480  -8.562  0.00  0.00    -0.334 N 
ATOM     26  H17 MOL d          50.198  17.652  -9.111  0.00  0.00     0.164 HD
BRANCH  25  27
ATOM     27  CA  MOL d          50.284  18.460  -7.093  0.00  0.00     0.091 C 
ATOM     28  H18 MOL d          49.839  19.414  -6.773  0.00  0.00     0.087 H 
BRANCH  27  29
ATOM     29  CB  MOL d          49.431  17.317  -6.529  0.00  0.00    -0.035 C 
ATOM     30  H19 MOL d          48.636  17.751  -5.904  0.00  0.00     0.037 H 
ATOM     31  H20 MOL d          50.074  16.675  -5.910  0.00  0.00     0.037 H 
BRANCH  29  32
ATOM     32  CG  MOL d          48.787  16.464  -7.597  0.00  0.00    -0.059 C 
ATOM     33  H21 MOL d          48.778  16.969  -8.574  0.00  0.00     0.038 H 
BRANCH  32  34
ATOM     34  CD1 MOL d          49.532  15.123  -7.733  0.00  0.00    -0.073 C 
ATOM     35  H22 MOL d          49.399  14.732  -8.752  0.00  0.00     0.028 H 
ATOM     36  H23 MOL d          49.126  14.403  -7.008  0.00  0.00     0.028 H 
ATOM     37  H24 MOL d          50.603  15.277  -7.536  0.00  0.00     0.028 H 
ENDBRANCH  32  34
BRANCH  32  38
ATOM     38  CD2 MOL d          47.386  16.352  -7.033  0.00  0.00    -0.073 C 
ATOM     39  H25 MOL d          46.771  17.179  -7.415  0.00  0.00     0.028 H 
ATOM     40  H26 MOL d          47.427  16.402  -5.935  0.00  0.00     0.028 H 
ATOM     41  H27 MOL d          46.944  15.392  -7.340  0.00  0.00     0.028 H 
ENDBRANCH  32  38
ENDBRANCH  29  32
ENDBRANCH  27  29
BRANCH  27  42
ATOM     42  C   MOL d          51.661  18.338  -6.420  0.00  0.00     0.241 C 
ATOM     43  O   MOL d          52.671  18.848  -6.919  0.00  0.00    -0.271 OA
ATOM     44  N   MOL d          51.677  17.726  -5.252  0.00  0.00    -0.345 N 
ATOM     45  H28 MOL d          50.811  17.356  -4.916  0.00  0.00     0.163 HD
BRANCH  44  46
ATOM     46  CA  MOL d          52.869  17.542  -4.400  0.00  0.00     0.093 C 
ATOM     47  H29 MOL d          53.765  17.842  -4.964  0.00  0.00     0.089 H 
BRANCH  46  48
ATOM     48  CB  MOL d          52.727  18.433  -3.180  0.00  0.00    -0.048 C 
ATOM     49  H30 MOL d          53.307  19.355  -3.330  0.00  0.00     0.030 H 
ATOM     50  H31 MOL d          53.104  17.903  -2.293  0.00  0.00     0.030 H 
ATOM     51  H32 MOL d          51.667  18.686  -3.032  0.00  0.00     0.030 H 
ENDBRANCH  46  48
BRANCH  46  52
ATOM     52  C   MOL d          53.020  16.058  -3.980  0.00  0.00     0.196 C 
ATOM     53  O   MOL d          53.450  15.760  -2.847  0.00  0.00    -0.646 OA
ATOM     54  OXT MOL d          52.643  15.040  -4.666  0.00  0.00    -0.646 OA
ENDBRANCH  46  52
ENDBRANCH  44  46
ENDBRANCH  27  42
ENDBRANCH  25  27
ENDBRANCH  22  25
ENDBRANCH   1  22
BRANCH   1  55
ATOM     55  CB  MOL d          49.163  21.253 -11.252  0.00  0.00    -0.011 C 
ATOM     56  H10 MOL d          49.140  21.983 -10.429  0.00  0.00     0.044 H 
ATOM     57  H11 MOL d          48.138  21.070 -11.607  0.00  0.00     0.044 H 
BRANCH  55  58
ATOM     58  CG  MOL d          50.029  21.765 -12.385  0.00  0.00    -0.056 A 
ATOM     59  CD1 MOL d          51.008  22.709 -12.049  0.00  0.00    -0.077 A 
ATOM     60  CE1 MOL d          51.867  23.219 -13.031  0.00  0.00    -0.082 A 
ATOM     61  H12 MOL d          51.101  23.048 -11.023  0.00  0.00     0.084 H 
ATOM     62  CZ  MOL d          51.728  22.760 -14.335  0.00  0.00    -0.083 A 
ATOM     63  H14 MOL d          52.622  23.955 -12.778  0.00  0.00     0.083 H 
ATOM     64  CE2 MOL d          50.747  21.779 -14.660  0.00  0.00    -0.082 A 
ATOM     65  H16 MOL d          52.373  23.152 -15.113  0.00  0.00     0.083 H 
ATOM     66  CD2 MOL d          49.903  21.274 -13.660  0.00  0.00    -0.077 A 
ATOM     67  H15 MOL d          50.651  21.425 -15.680  0.00  0.00     0.083 H 
ATOM     68  H13 MOL d          49.168  20.511 -13.890  0.00  0.00     0.084 H 
ENDBRANCH  55  58
ENDBRANCH   1  55
TORSDOF 17
ENDMDL
MODEL 2
REMARK VINA RESULT:      -6.3      2.106      6.143
REMARK  17 active torsions:
REMARK  status: ('A' for Active; 'I' for Inactive)
REMARK    1  A    between atoms: C_1  and  OA_3 
REMARK       I    between atoms: N_11  and  C_1 
REMARK    2  A    between atoms: OA_3  and  CB_4 
REMARK    3  A    between atoms: CB_4  and  CG_5 
REMARK    4  A    between atoms: CA_12  and  N_11 
REMARK    5  A    between atoms: P_13  and  CA_12 
REMARK    6  A    between atoms: CA_12  and  CB_16 
REMARK    7  A    between atoms: P_13  and  N_23 
REMARK    8  A    between atoms: CB_16  and  CG_17 
REMARK    9  A    between atoms: N_23  and  CA_24 
REMARK   10  A    between atoms: CA_24  and  CB_27 
REMARK   11  A    between atoms: CA_24  and  C_25 
REMARK       I    between atoms: C_25  and  N_31 
REMARK   12  A    between atoms: CB_27  and  CG_28 
REMARK   13  A    between atoms: CG_28  and  CD1_29 
REMARK   14  A    between atoms: CG_28  and  CD2_30 
REMARK   15  A    between atoms: N_31  and  CA_32 
REMARK   16  A    between atoms: CA_32  and  CB_35 
REMARK   17  A    between atoms: CA_32  and  C_33 
ROOT
ATOM      1  CA  MOL d          49.230  20.030 -10.348  0.00  0.00     0.112 C 
ATOM      2  H9  MOL d          48.970  21.098 -10.385  0.00  0.00     0.092 H 
ENDROOT
BRANCH   1   3
ATOM      3  N   MOL d          49.945  19.655  -9.095  0.00  0.00    -0.321 N 
ATOM      4  C   MOL d          50.309  20.580  -8.194  0.00  0.00     0.361 C 
ATOM      5  O   MOL d          50.175  21.845  -8.317  0.00  0.00    -0.238 OA
ATOM      6  H8  MOL d          50.158  18.694  -8.923  0.00  0.00     0.165 HD
BRANCH   4   7
ATOM      7  OA  MOL d          50.803  19.912  -7.093  0.00  0.00    -0.299 OA
BRANCH   7   8
ATOM      8  CB  MOL d          50.739  18.478  -7.012  0.00  0.00     0.054 C 
ATOM      9  H1  MOL d          51.041  18.009  -7.960  0.00  0.00     0.082 H 
ATOM     10  H2  MOL d          49.730  18.136  -6.739  0.00  0.00     0.082 H 
BRANCH   8  11
ATOM     11  CG  MOL d          51.719  18.194  -5.930  0.00  0.00    -0.034 A 
ATOM     12  CD1 MOL d          52.488  19.090  -5.180  0.00  0.00    -0.075 A 
ATOM     13  CE1 MOL d          53.358  18.694  -4.130  0.00  0.00    -0.082 A 
ATOM     14  H3  MOL d          52.415  20.147  -5.413  0.00  0.00     0.084 H 
ATOM     15  CZ  MOL d          53.485  17.429  -3.744  0.00  0.00    -0.083 A 
ATOM     16  H5  MOL d          53.942  19.454  -3.623  0.00  0.00     0.083 H 
ATOM     17  CE2 MOL d          52.734  16.637  -4.516  0.00  0.00    -0.082 A 
ATOM     18  H7  MOL d          54.107  17.089  -2.924  0.00  0.00     0.083 H 
ATOM     19  CD2 MOL d          51.842  16.908  -5.573  0.00  0.00    -0.075 A 
ATOM     20  H6  MOL d          52.830  15.582  -4.284  0.00  0.00     0.083 H 
ATOM     21  H4  MOL d          51.285  16.120  -6.069  0.00  0.00     0.084 H 
ENDBRANCH   8  11
ENDBRANCH   7   8
ENDBRANCH   4   7
ENDBRANCH   1   3
BRANCH   1  22
ATOM     22  P   MOL d          47.882  19.076 -10.402  0.00  0.00     0.229 P 
ATOM     23  OP1 MOL d          47.464  18.572  -8.969  0.00  0.00    -0.650 OA
ATOM     24  OP2 MOL d          46.679  19.767 -11.172  0.00  0.00    -0.650 OA
BRANCH  22  25
ATOM     25  N   MOL d          48.488  17.671 -11.526  0.00  0.00    -0.334 N 
ATOM     26  H17 MOL d          49.453  17.543 -11.751  0.00  0.00     0.164 HD
BRANCH  25  27
ATOM     27  CA  MOL d          47.434  16.786 -12.042  0.00  0.00     0.091 C 
ATOM     28  H18 MOL d          46.527  17.402 -12.135  0.00  0.00     0.087 H 
BRANCH  27  29
ATOM     29  CB  MOL d          47.769  16.212 -13.425  0.00  0.00    -0.035 C 
ATOM     30  H19 MOL d          47.141  15.326 -13.595  0.00  0.00     0.037 H 
ATOM     31  H20 MOL d          48.829  15.917 -13.432  0.00  0.00     0.037 H 
BRANCH  29  32
ATOM     32  CG  MOL d          47.536  17.189 -14.554  0.00  0.00    -0.059 C 
ATOM     33  H21 MOL d          47.246  16.676 -15.483  0.00  0.00     0.038 H 
BRANCH  32  34
ATOM     34  CD1 MOL d          46.437  18.197 -14.174  0.00  0.00    -0.073 C 
ATOM     35  H22 MOL d          45.533  17.995 -14.768  0.00  0.00     0.028 H 
ATOM     36  H23 MOL d          46.789  19.218 -14.377  0.00  0.00     0.028 H 
ATOM     37  H24 MOL d          46.201  18.096 -13.104  0.00  0.00     0.028 H 
ENDBRANCH  32  34
BRANCH  32  38
ATOM     38  CD2 MOL d          48.923  17.784 -14.676  0.00  0.00    -0.073 C 
ATOM     39  H25 MOL d          49.060  18.554 -13.902  0.00  0.00     0.028 H 
ATOM     40  H26 MOL d          49.041  18.239 -15.670  0.00  0.00     0.028 H 
ATOM     41  H27 MOL d          49.674  16.992 -14.544  0.00  0.00     0.028 H 
ENDBRANCH  32  38
ENDBRANCH  29  32
ENDBRANCH  27  29
BRANCH  27  42
ATOM     42  C   MOL d          47.093  15.581 -11.151  0.00  0.00     0.241 C 
ATOM     43  O   MOL d          46.522  14.583 -11.606  0.00  0.00    -0.271 OA
ATOM     44  N   MOL d          47.513  15.653  -9.903  0.00  0.00    -0.345 N 
ATOM     45  H28 MOL d          47.979  16.493  -9.623  0.00  0.00     0.163 HD
BRANCH  44  46
ATOM     46  CA  MOL d          47.351  14.596  -8.885  0.00  0.00     0.093 C 
ATOM     47  H29 MOL d          46.300  14.274  -8.863  0.00  0.00     0.089 H 
BRANCH  46  48
ATOM     48  CB  MOL d          48.224  13.417  -9.276  0.00  0.00    -0.048 C 
ATOM     49  H30 MOL d          49.005  13.271  -8.516  0.00  0.00     0.030 H 
ATOM     50  H31 MOL d          48.694  13.616 -10.251  0.00  0.00     0.030 H 
ATOM     51  H32 MOL d          47.606  12.510  -9.346  0.00  0.00     0.030 H 
ENDBRANCH  46  48
BRANCH  46  52
ATOM     52  C   MOL d          47.739  15.122  -7.481  0.00  0.00     0.196 C 
ATOM     53  O   MOL d          46.935  15.043  -6.529  0.00  0.00    -0.646 OA
ATOM     54  OXT MOL d          48.893  15.570  -7.137  0.00  0.00    -0.646 OA
ENDBRANCH  46  52
ENDBRANCH  44  46
ENDBRANCH  27  42
ENDBRANCH  25  27
ENDBRANCH  22  25
ENDBRANCH   1  22
BRANCH   1  55
ATOM     55  CB  MOL d          50.177  19.650 -11.436  0.00  0.00    -0.011 C 
ATOM     56  H10 MOL d          49.742  18.858 -12.063  0.00  0.00     0.044 H 
ATOM     57  H11 MOL d          51.129  19.300 -11.010  0.00  0.00     0.044 H 
BRANCH  55  58
ATOM     58  CG  MOL d          50.398  20.906 -12.254  0.00  0.00    -0.056 A 
ATOM     59  CD1 MOL d          51.287  21.851 -11.726  0.00  0.00    -0.077 A 
ATOM     60  CE1 MOL d          51.566  23.032 -12.426  0.00  0.00    -0.082 A 
ATOM     61  H12 MOL d          51.762  21.668 -10.769  0.00  0.00     0.084 H 
ATOM     62  CZ  MOL d          50.948  23.234 -13.654  0.00  0.00    -0.083 A 
ATOM     63  H14 MOL d          52.248  23.769 -12.019  0.00  0.00     0.083 H 
ATOM     64  CE2 MOL d          50.065  22.255 -14.195  0.00  0.00    -0.082 A 
ATOM     65  H16 MOL d          51.139  24.147 -14.206  0.00  0.00     0.083 H 
ATOM     66  CD2 MOL d          49.808  21.074 -13.482  0.00  0.00    -0.077 A 
ATOM     67  H15 MOL d          49.593  22.421 -15.156  0.00  0.00     0.083 H 
ATOM     68  H13 MOL d          49.156  20.311 -13.893  0.00  0.00     0.084 H 
ENDBRANCH  55  58
ENDBRANCH   1  55
TORSDOF 17
ENDMDL
MODEL 3
REMARK VINA RESULT:      -5.9      2.279      7.942
REMARK  17 active torsions:
REMARK  status: ('A' for Active; 'I' for Inactive)
REMARK    1  A    between atoms: C_1  and  OA_3 
REMARK       I    between atoms: N_11  and  C_1 
REMARK    2  A    between atoms: OA_3  and  CB_4 
REMARK    3  A    between atoms: CB_4  and  CG_5 
REMARK    4  A    between atoms: CA_12  and  N_11 
REMARK    5  A    between atoms: P_13  and  CA_12 
REMARK    6  A    between atoms: CA_12  and  CB_16 
REMARK    7  A    between atoms: P_13  and  N_23 
REMARK    8  A    between atoms: CB_16  and  CG_17 
REMARK    9  A    between atoms: N_23  and  CA_24 
REMARK   10  A    between atoms: CA_24  and  CB_27 
REMARK   11  A    between atoms: CA_24  and  C_25 
REMARK       I    between atoms: C_25  and  N_31 
REMARK   12  A    between atoms: CB_27  and  CG_28 
REMARK   13  A    between atoms: CG_28  and  CD1_29 
REMARK   14  A    between atoms: CG_28  and  CD2_30 
REMARK   15  A    between atoms: N_31  and  CA_32 
REMARK   16  A    between atoms: CA_32  and  CB_35 
REMARK   17  A    between atoms: CA_32  and  C_33 
ROOT
ATOM      1  CA  MOL d          48.942  15.411  -7.833  0.00  0.00     0.112 C 
ATOM      2  H9  MOL d          49.080  15.817  -8.846  0.00  0.00     0.092 H 
ENDROOT
BRANCH   1   3
ATOM      3  N   MOL d          50.042  15.795  -6.905  0.00  0.00    -0.321 N 
ATOM      4  C   MOL d          50.903  16.779  -7.207  0.00  0.00     0.361 C 
ATOM      5  O   MOL d          50.946  17.429  -8.307  0.00  0.00    -0.238 OA
ATOM      6  H8  MOL d          50.141  15.309  -6.037  0.00  0.00     0.165 HD
BRANCH   4   7
ATOM      7  OA  MOL d          51.692  16.993  -6.097  0.00  0.00    -0.299 OA
BRANCH   7   8
ATOM      8  CB  MOL d          52.239  18.293  -5.822  0.00  0.00     0.054 C 
ATOM      9  H1  MOL d          51.448  19.056  -5.762  0.00  0.00     0.082 H 
ATOM     10  H2  MOL d          52.976  18.588  -6.583  0.00  0.00     0.082 H 
BRANCH   8  11
ATOM     11  CG  MOL d          52.883  18.075  -4.500  0.00  0.00    -0.034 A 
ATOM     12  CD1 MOL d          53.283  16.875  -3.901  0.00  0.00    -0.075 A 
ATOM     13  CE1 MOL d          53.940  16.803  -2.644  0.00  0.00    -0.082 A 
ATOM     14  H3  MOL d          53.079  15.949  -4.426  0.00  0.00     0.084 H 
ATOM     15  CZ  MOL d          54.269  17.883  -1.944  0.00  0.00    -0.083 A 
ATOM     16  H5  MOL d          54.184  15.827  -2.240  0.00  0.00     0.083 H 
ATOM     17  CE2 MOL d          53.841  18.984  -2.572  0.00  0.00    -0.082 A 
ATOM     18  H7  MOL d          54.804  17.874  -1.002  0.00  0.00     0.083 H 
ATOM     19  CD2 MOL d          53.187  19.181  -3.806  0.00  0.00    -0.075 A 
ATOM     20  H6  MOL d          54.035  19.901  -2.028  0.00  0.00     0.083 H 
ATOM     21  H4  MOL d          52.944  20.172  -4.173  0.00  0.00     0.084 H 
ENDBRANCH   8  11
ENDBRANCH   7   8
ENDBRANCH   4   7
ENDBRANCH   1   3
BRANCH   1  22
ATOM     22  P   MOL d          47.550  15.972  -7.142  0.00  0.00     0.229 P 
ATOM     23  OP1 MOL d          46.680  14.800  -6.547  0.00  0.00    -0.650 OA
ATOM     24  OP2 MOL d          47.816  17.122  -6.083  0.00  0.00    -0.650 OA
BRANCH  22  25
ATOM     25  N   MOL d          46.728  16.810  -8.634  0.00  0.00    -0.334 N 
ATOM     26  H17 MOL d          45.740  16.957  -8.690  0.00  0.00     0.164 HD
BRANCH  25  27
ATOM     27  CA  MOL d          47.649  17.230  -9.700  0.00  0.00     0.091 C 
ATOM     28  H18 MOL d          48.619  16.763  -9.476  0.00  0.00     0.087 H 
BRANCH  27  29
ATOM     29  CB  MOL d          47.198  16.759 -11.088  0.00  0.00    -0.035 C 
ATOM     30  H19 MOL d          46.175  17.123 -11.264  0.00  0.00     0.037 H 
ATOM     31  H20 MOL d          47.203  15.659 -11.102  0.00  0.00     0.037 H 
BRANCH  29  32
ATOM     32  CG  MOL d          48.081  17.256 -12.209  0.00  0.00    -0.059 C 
ATOM     33  H21 MOL d          48.668  18.136 -11.906  0.00  0.00     0.038 H 
BRANCH  32  34
ATOM     34  CD1 MOL d          49.044  16.146 -12.665  0.00  0.00    -0.073 C 
ATOM     35  H22 MOL d          49.265  16.269 -13.735  0.00  0.00     0.028 H 
ATOM     36  H23 MOL d          48.578  15.164 -12.498  0.00  0.00     0.028 H 
ATOM     37  H24 MOL d          49.979  16.211 -12.088  0.00  0.00     0.028 H 
ENDBRANCH  32  34
BRANCH  32  38
ATOM     38  CD2 MOL d          47.026  17.633 -13.227  0.00  0.00    -0.073 C 
ATOM     39  H25 MOL d          46.219  16.886 -13.212  0.00  0.00     0.028 H 
ATOM     40  H26 MOL d          47.478  17.665 -14.229  0.00  0.00     0.028 H 
ATOM     41  H27 MOL d          46.614  18.623 -12.978  0.00  0.00     0.028 H 
ENDBRANCH  32  38
ENDBRANCH  29  32
ENDBRANCH  27  29
BRANCH  27  42
ATOM     42  C   MOL d          47.874  18.746  -9.815  0.00  0.00     0.241 C 
ATOM     43  O   MOL d          46.926  19.532  -9.928  0.00  0.00    -0.271 OA
ATOM     44  N   MOL d          49.124  19.150  -9.708  0.00  0.00    -0.345 N 
ATOM     45  H28 MOL d          49.827  18.446  -9.604  0.00  0.00     0.163 HD
BRANCH  44  46
ATOM     46  CA  MOL d          49.572  20.557  -9.731  0.00  0.00     0.093 C 
ATOM     47  H29 MOL d          48.691  21.216  -9.749  0.00  0.00     0.089 H 
BRANCH  46  48
ATOM     48  CB  MOL d          50.369  20.827  -8.468  0.00  0.00    -0.048 C 
ATOM     49  H30 MOL d          51.372  20.387  -8.567  0.00  0.00     0.030 H 
ATOM     50  H31 MOL d          49.855  20.376  -7.606  0.00  0.00     0.030 H 
ATOM     51  H32 MOL d          50.458  21.913  -8.315  0.00  0.00     0.030 H 
ENDBRANCH  46  48
BRANCH  46  52
ATOM     52  C   MOL d          50.429  20.840 -10.990  0.00  0.00     0.196 C 
ATOM     53  O   MOL d          51.448  21.558 -10.917  0.00  0.00    -0.646 OA
ATOM     54  OXT MOL d          50.258  20.315 -12.150  0.00  0.00    -0.646 OA
ENDBRANCH  46  52
ENDBRANCH  44  46
ENDBRANCH  27  42
ENDBRANCH  25  27
ENDBRANCH  22  25
ENDBRANCH   1  22
BRANCH   1  55
ATOM     55  CB  MOL d          48.961  13.919  -7.825  0.00  0.00    -0.011 C 
ATOM     56  H10 MOL d          48.192  13.531  -7.140  0.00  0.00     0.044 H 
ATOM     57  H11 MOL d          49.949  13.551  -7.513  0.00  0.00     0.044 H 
BRANCH  55  58
ATOM     58  CG  MOL d          48.663  13.491  -9.247  0.00  0.00    -0.056 A 
ATOM     59  CD1 MOL d          49.767  13.179 -10.052  0.00  0.00    -0.077 A 
ATOM     60  CE1 MOL d          49.583  12.753 -11.374  0.00  0.00    -0.082 A 
ATOM     61  H12 MOL d          50.770  13.269  -9.650  0.00  0.00     0.084 H 
ATOM     62  CZ  MOL d          48.286  12.641 -11.858  0.00  0.00    -0.083 A 
ATOM     63  H14 MOL d          50.433  12.517 -12.003  0.00  0.00     0.083 H 
ATOM     64  CE2 MOL d          47.169  12.935 -11.023  0.00  0.00    -0.082 A 
ATOM     65  H16 MOL d          48.121  12.326 -12.882  0.00  0.00     0.083 H 
ATOM     66  CD2 MOL d          47.375  13.350  -9.699  0.00  0.00    -0.077 A 
ATOM     67  H15 MOL d          46.161  12.838 -11.410  0.00  0.00     0.083 H 
ATOM     68  H13 MOL d          46.534  13.555  -9.046  0.00  0.00     0.084 H 
ENDBRANCH  55  58
ENDBRANCH   1  55
TORSDOF 17
ENDMDL
MODEL 4
REMARK VINA RESULT:      -5.6      2.657      4.201
REMARK  17 active torsions:
REMARK  status: ('A' for Active; 'I' for Inactive)
REMARK    1  A    between atoms: C_1  and  OA_3 
REMARK       I    between atoms: N_11  and  C_1 
REMARK    2  A    between atoms: OA_3  and  CB_4 
REMARK    3  A    between atoms: CB_4  and  CG_5 
REMARK    4  A    between atoms: CA_12  and  N_11 
REMARK    5  A    between atoms: P_13  and  CA_12 
REMARK    6  A    between atoms: CA_12  and  CB_16 
REMARK    7  A    between atoms: P_13  and  N_23 
REMARK    8  A    between atoms: CB_16  and  CG_17 
REMARK    9  A    between atoms: N_23  and  CA_24 
REMARK   10  A    between atoms: CA_24  and  CB_27 
REMARK   11  A    between atoms: CA_24  and  C_25 
REMARK       I    between atoms: C_25  and  N_31 
REMARK   12  A    between atoms: CB_27  and  CG_28 
REMARK   13  A    between atoms: CG_28  and  CD1_29 
REMARK   14  A    between atoms: CG_28  and  CD2_30 
REMARK   15  A    between atoms: N_31  and  CA_32 
REMARK   16  A    between atoms: CA_32  and  CB_35 
REMARK   17  A    between atoms: CA_32  and  C_33 
ROOT
ATOM      1  CA  MOL d          48.105  16.766  -8.625  0.00  0.00     0.112 C 
ATOM      2  H9  MOL d          48.837  17.322  -9.229  0.00  0.00     0.092 H 
ENDROOT
BRANCH   1   3
ATOM      3  N   MOL d          47.887  15.378  -9.120  0.00  0.00    -0.321 N 
ATOM      4  C   MOL d          48.811  14.744  -9.859  0.00  0.00     0.361 C 
ATOM      5  O   MOL d          49.907  15.246 -10.285  0.00  0.00    -0.238 OA
ATOM      6  H8  MOL d          47.034  14.907  -8.897  0.00  0.00     0.165 HD
BRANCH   4   7
ATOM      7  OA  MOL d          48.386  13.443 -10.025  0.00  0.00    -0.299 OA
BRANCH   7   8
ATOM      8  CB  MOL d          48.880  12.640 -11.110  0.00  0.00     0.054 C 
ATOM      9  H1  MOL d          48.629  11.578 -10.970  0.00  0.00     0.082 H 
ATOM     10  H2  MOL d          49.968  12.748 -11.226  0.00  0.00     0.082 H 
BRANCH   8  11
ATOM     11  CG  MOL d          48.151  13.221 -12.269  0.00  0.00    -0.034 A 
ATOM     12  CD1 MOL d          47.030  14.058 -12.277  0.00  0.00    -0.075 A 
ATOM     13  CE1 MOL d          46.453  14.591 -13.459  0.00  0.00    -0.082 A 
ATOM     14  H3  MOL d          46.577  14.314 -11.325  0.00  0.00     0.084 H 
ATOM     15  CZ  MOL d          46.960  14.368 -14.667  0.00  0.00    -0.083 A 
ATOM     16  H5  MOL d          45.563  15.205 -13.373  0.00  0.00     0.083 H 
ATOM     17  CE2 MOL d          48.014  13.551 -14.578  0.00  0.00    -0.082 A 
ATOM     18  H7  MOL d          46.575  14.787 -15.590  0.00  0.00     0.083 H 
ATOM     19  CD2 MOL d          48.673  12.965 -13.478  0.00  0.00    -0.075 A 
ATOM     20  H6  MOL d          48.447  13.289 -15.537  0.00  0.00     0.083 H 
ATOM     21  H4  MOL d          49.552  12.342 -13.601  0.00  0.00     0.084 H 
ENDBRANCH   8  11
ENDBRANCH   7   8
ENDBRANCH   4   7
ENDBRANCH   1   3
BRANCH   1  22
ATOM     22  P   MOL d          48.603  16.615  -7.057  0.00  0.00     0.229 P 
ATOM     23  OP1 MOL d          47.385  16.448  -6.071  0.00  0.00    -0.650 OA
ATOM     24  OP2 MOL d          49.690  15.476  -6.871  0.00  0.00    -0.650 OA
BRANCH  22  25
ATOM     25  N   MOL d          49.519  18.261  -6.818  0.00  0.00    -0.334 N 
ATOM     26  H17 MOL d          49.075  19.072  -6.439  0.00  0.00     0.164 HD
BRANCH  25  27
ATOM     27  CA  MOL d          50.930  18.255  -7.231  0.00  0.00     0.091 C 
ATOM     28  H18 MOL d          51.158  17.227  -7.550  0.00  0.00     0.087 H 
BRANCH  27  29
ATOM     29  CB  MOL d          51.203  19.196  -8.412  0.00  0.00    -0.035 C 
ATOM     30  H19 MOL d          51.578  18.598  -9.255  0.00  0.00     0.037 H 
ATOM     31  H20 MOL d          51.970  19.923  -8.108  0.00  0.00     0.037 H 
BRANCH  29  32
ATOM     32  CG  MOL d          49.980  19.956  -8.871  0.00  0.00    -0.059 C 
ATOM     33  H21 MOL d          49.060  19.568  -8.409  0.00  0.00     0.038 H 
BRANCH  32  34
ATOM     34  CD1 MOL d          50.119  21.451  -8.531  0.00  0.00    -0.073 C 
ATOM     35  H22 MOL d          49.127  21.926  -8.556  0.00  0.00     0.028 H 
ATOM     36  H23 MOL d          50.775  21.935  -9.268  0.00  0.00     0.028 H 
ATOM     37  H24 MOL d          50.552  21.560  -7.526  0.00  0.00     0.028 H 
ENDBRANCH  32  34
BRANCH  32  38
ATOM     38  CD2 MOL d          50.017  19.640 -10.351  0.00  0.00    -0.073 C 
ATOM     39  H25 MOL d          49.000  19.408 -10.702  0.00  0.00     0.028 H 
ATOM     40  H26 MOL d          50.670  18.773 -10.526  0.00  0.00     0.028 H 
ATOM     41  H27 MOL d          50.406  20.509 -10.902  0.00  0.00     0.028 H 
ENDBRANCH  32  38
ENDBRANCH  29  32
ENDBRANCH  27  29
BRANCH  27  42
ATOM     42  C   MOL d          51.937  18.640  -6.136  0.00  0.00     0.241 C 
ATOM     43  O   MOL d          52.442  19.768  -6.093  0.00  0.00    -0.271 OA
ATOM     44  N   MOL d          52.162  17.724  -5.215  0.00  0.00    -0.345 N 
ATOM     45  H28 MOL d          51.699  16.844  -5.320  0.00  0.00     0.163 HD
BRANCH  44  46
ATOM     46  CA  MOL d          53.043  17.891  -4.042  0.00  0.00     0.093 C 
ATOM     47  H29 MOL d          53.874  18.561  -4.307  0.00  0.00     0.089 H 
BRANCH  46  48
ATOM     48  CB  MOL d          52.235  18.520  -2.922  0.00  0.00    -0.048 C 
ATOM     49  H30 MOL d          52.304  17.891  -2.022  0.00  0.00     0.030 H 
ATOM     50  H31 MOL d          51.182  18.603  -3.231  0.00  0.00     0.030 H 
ATOM     51  H32 MOL d          52.631  19.522  -2.701  0.00  0.00     0.030 H 
ENDBRANCH  46  48
BRANCH  46  52
ATOM     52  C   MOL d          53.628  16.527  -3.596  0.00  0.00     0.196 C 
ATOM     53  O   MOL d          52.959  15.480  -3.718  0.00  0.00    -0.646 OA
ATOM     54  OXT MOL d          54.825  16.321  -3.179  0.00  0.00    -0.646 OA
ENDBRANCH  46  52
ENDBRANCH  44  46
ENDBRANCH  27  42
ENDBRANCH  25  27
ENDBRANCH  22  25
ENDBRANCH   1  22
BRANCH   1  55
ATOM     55  CB  MOL d          46.751  17.390  -8.681  0.00  0.00    -0.011 C 
ATOM     56  H10 MOL d          46.606  18.067  -7.826  0.00  0.00     0.044 H 
ATOM     57  H11 MOL d          45.971  16.614  -8.670  0.00  0.00     0.044 H 
BRANCH  55  58
ATOM     58  CG  MOL d          46.702  18.166  -9.981  0.00  0.00    -0.056 A 
ATOM     59  CD1 MOL d          46.475  19.545  -9.881  0.00  0.00    -0.077 A 
ATOM     60  CE1 MOL d          46.437  20.343 -11.031  0.00  0.00    -0.082 A 
ATOM     61  H12 MOL d          46.329  19.997  -8.906  0.00  0.00     0.084 H 
ATOM     62  CZ  MOL d          46.636  19.736 -12.264  0.00  0.00    -0.083 A 
ATOM     63  H14 MOL d          46.255  21.409 -10.960  0.00  0.00     0.083 H 
ATOM     64  CE2 MOL d          46.893  18.337 -12.354  0.00  0.00    -0.082 A 
ATOM     65  H16 MOL d          46.596  20.332 -13.169  0.00  0.00     0.083 H 
ATOM     66  CD2 MOL d          46.938  17.558 -11.189  0.00  0.00    -0.077 A 
ATOM     67  H15 MOL d          47.052  17.875 -13.322  0.00  0.00     0.083 H 
ATOM     68  H13 MOL d          47.154  16.496 -11.241  0.00  0.00     0.084 H 
ENDBRANCH  55  58
ENDBRANCH   1  55
TORSDOF 17
ENDMDL
MODEL 5
REMARK VINA RESULT:      -5.5      2.033      7.765
REMARK  17 active torsions:
REMARK  status: ('A' for Active; 'I' for Inactive)
REMARK    1  A    between atoms: C_1  and  OA_3 
REMARK       I    between atoms: N_11  and  C_1 
REMARK    2  A    between atoms: OA_3  and  CB_4 
REMARK    3  A    between atoms: CB_4  and  CG_5 
REMARK    4  A    between atoms: CA_12  and  N_11 
REMARK    5  A    between atoms: P_13  and  CA_12 
REMARK    6  A    between atoms: CA_12  and  CB_16 
REMARK    7  A    between atoms: P_13  and  N_23 
REMARK    8  A    between atoms: CB_16  and  CG_17 
REMARK    9  A    between atoms: N_23  and  CA_24 
REMARK   10  A    between atoms: CA_24  and  CB_27 
REMARK   11  A    between atoms: CA_24  and  C_25 
REMARK       I    between atoms: C_25  and  N_31 
REMARK   12  A    between atoms: CB_27  and  CG_28 
REMARK   13  A    between atoms: CG_28  and  CD1_29 
REMARK   14  A    between atoms: CG_28  and  CD2_30 
REMARK   15  A    between atoms: N_31  and  CA_32 
REMARK   16  A    between atoms: CA_32  and  CB_35 
REMARK   17  A    between atoms: CA_32  and  C_33 
ROOT
ATOM      1  CA  MOL d          52.070  17.610  -4.796  0.00  0.00     0.112 C 
ATOM      2  H9  MOL d          51.384  17.904  -3.987  0.00  0.00     0.092 H 
ENDROOT
BRANCH   1   3
ATOM      3  N   MOL d          51.635  16.368  -5.495  0.00  0.00    -0.321 N 
ATOM      4  C   MOL d          52.053  15.157  -5.096  0.00  0.00     0.361 C 
ATOM      5  O   MOL d          52.899  14.921  -4.168  0.00  0.00    -0.238 OA
ATOM      6  H8  MOL d          51.017  16.439  -6.278  0.00  0.00     0.165 HD
BRANCH   4   7
ATOM      7  OA  MOL d          51.362  14.219  -5.834  0.00  0.00    -0.299 OA
BRANCH   7   8
ATOM      8  CB  MOL d          52.059  13.282  -6.671  0.00  0.00     0.054 C 
ATOM      9  H1  MOL d          52.228  12.327  -6.151  0.00  0.00     0.082 H 
ATOM     10  H2  MOL d          53.023  13.688  -7.012  0.00  0.00     0.082 H 
BRANCH   8  11
ATOM     11  CG  MOL d          51.107  13.123  -7.803  0.00  0.00    -0.034 A 
ATOM     12  CD1 MOL d          51.359  13.157  -9.178  0.00  0.00    -0.075 A 
ATOM     13  CE1 MOL d          50.364  12.939 -10.167  0.00  0.00    -0.082 A 
ATOM     14  H3  MOL d          52.372  13.361  -9.508  0.00  0.00     0.084 H 
ATOM     15  CZ  MOL d          49.104  12.643  -9.863  0.00  0.00    -0.083 A 
ATOM     16  H5  MOL d          50.642  13.017 -11.212  0.00  0.00     0.083 H 
ATOM     17  CE2 MOL d          48.941  12.645  -8.536  0.00  0.00    -0.082 A 
ATOM     18  H7  MOL d          48.324  12.431 -10.584  0.00  0.00     0.083 H 
ATOM     19  CD2 MOL d          49.839  12.843  -7.467  0.00  0.00    -0.075 A 
ATOM     20  H6  MOL d          47.921  12.458  -8.221  0.00  0.00     0.083 H 
ATOM     21  H4  MOL d          49.523  12.774  -6.432  0.00  0.00     0.084 H 
ENDBRANCH   8  11
ENDBRANCH   7   8
ENDBRANCH   4   7
ENDBRANCH   1   3
BRANCH   1  22
ATOM     22  P   MOL d          52.166  18.777  -5.962  0.00  0.00     0.229 P 
ATOM     23  OP1 MOL d          52.697  20.142  -5.380  0.00  0.00    -0.650 OA
ATOM     24  OP2 MOL d          52.990  18.302  -7.231  0.00  0.00    -0.650 OA
BRANCH  22  25
ATOM     25  N   MOL d          50.353  18.872  -6.517  0.00  0.00    -0.334 N 
ATOM     26  H17 MOL d          49.599  18.975  -5.870  0.00  0.00     0.164 HD
BRANCH  25  27
ATOM     27  CA  MOL d          50.140  18.784  -7.969  0.00  0.00     0.091 C 
ATOM     28  H18 MOL d          50.990  18.217  -8.376  0.00  0.00     0.087 H 
BRANCH  27  29
ATOM     29  CB  MOL d          48.848  18.039  -8.331  0.00  0.00    -0.035 C 
ATOM     30  H19 MOL d          48.535  18.356  -9.337  0.00  0.00     0.037 H 
ATOM     31  H20 MOL d          48.072  18.313  -7.602  0.00  0.00     0.037 H 
BRANCH  29  32
ATOM     32  CG  MOL d          48.999  16.536  -8.328  0.00  0.00    -0.059 C 
ATOM     33  H21 MOL d          49.953  16.222  -7.879  0.00  0.00     0.038 H 
BRANCH  32  34
ATOM     34  CD1 MOL d          47.841  15.882  -7.552  0.00  0.00    -0.073 C 
ATOM     35  H22 MOL d          46.891  16.100  -8.061  0.00  0.00     0.028 H 
ATOM     36  H23 MOL d          47.811  16.286  -6.530  0.00  0.00     0.028 H 
ATOM     37  H24 MOL d          47.995  14.794  -7.513  0.00  0.00     0.028 H 
ENDBRANCH  32  34
BRANCH  32  38
ATOM     38  CD2 MOL d          48.989  16.269  -9.818  0.00  0.00    -0.073 C 
ATOM     39  H25 MOL d          49.756  15.519 -10.061  0.00  0.00     0.028 H 
ATOM     40  H26 MOL d          49.205  17.202 -10.360  0.00  0.00     0.028 H 
ATOM     41  H27 MOL d          48.000  15.892 -10.116  0.00  0.00     0.028 H 
ENDBRANCH  32  38
ENDBRANCH  29  32
ENDBRANCH  27  29
BRANCH  27  42
ATOM     42  C   MOL d          50.078  20.131  -8.707  0.00  0.00     0.241 C 
ATOM     43  O   MOL d          50.146  21.204  -8.096  0.00  0.00    -0.271 OA
ATOM     44  N   MOL d          50.025  20.062 -10.022  0.00  0.00    -0.345 N 
ATOM     45  H28 MOL d          49.987  19.152 -10.434  0.00  0.00     0.163 HD
BRANCH  44  46
ATOM     46  CA  MOL d          50.016  21.221 -10.938  0.00  0.00     0.093 C 
ATOM     47  H29 MOL d          49.522  22.069 -10.442  0.00  0.00     0.089 H 
BRANCH  46  48
ATOM     48  CB  MOL d          51.453  21.596 -11.250  0.00  0.00    -0.048 C 
ATOM     49  H30 MOL d          51.666  22.598 -10.849  0.00  0.00     0.030 H 
ATOM     50  H31 MOL d          51.604  21.597 -12.339  0.00  0.00     0.030 H 
ATOM     51  H32 MOL d          52.132  20.864 -10.787  0.00  0.00     0.030 H 
ENDBRANCH  46  48
BRANCH  46  52
ATOM     52  C   MOL d          49.243  20.887 -12.238  0.00  0.00     0.196 C 
ATOM     53  O   MOL d          49.266  19.732 -12.712  0.00  0.00    -0.646 OA
ATOM     54  OXT MOL d          48.457  21.682 -12.872  0.00  0.00    -0.646 OA
ENDBRANCH  46  52
ENDBRANCH  44  46
ENDBRANCH  27  42
ENDBRANCH  25  27
ENDBRANCH  22  25
ENDBRANCH   1  22
BRANCH   1  55
ATOM     55  CB  MOL d          53.430  17.281  -4.278  0.00  0.00    -0.011 C 
ATOM     56  H10 MOL d          54.202  17.734  -4.918  0.00  0.00     0.044 H 
ATOM     57  H11 MOL d          53.573  16.191  -4.248  0.00  0.00     0.044 H 
BRANCH  55  58
ATOM     58  CG  MOL d          53.497  17.861  -2.881  0.00  0.00    -0.056 A 
ATOM     59  CD1 MOL d          54.320  18.980  -2.704  0.00  0.00    -0.077 A 
ATOM     60  CE1 MOL d          54.425  19.593  -1.449  0.00  0.00    -0.082 A 
ATOM     61  H12 MOL d          54.881  19.374  -3.545  0.00  0.00     0.084 H 
ATOM     62  CZ  MOL d          53.688  19.070  -0.394  0.00  0.00    -0.083 A 
ATOM     63  H14 MOL d          55.066  20.455  -1.305  0.00  0.00     0.083 H 
ATOM     64  CE2 MOL d          52.832  17.947  -0.590  0.00  0.00    -0.082 A 
ATOM     65  H16 MOL d          53.764  19.520   0.589  0.00  0.00     0.083 H 
ATOM     66  CD2 MOL d          52.734  17.355  -1.858  0.00  0.00    -0.077 A 
ATOM     67  H15 MOL d          52.258  17.551   0.239  0.00  0.00     0.083 H 
ATOM     68  H13 MOL d          52.070  16.514  -2.026  0.00  0.00     0.084 H 
ENDBRANCH  55  58
ENDBRANCH   1  55
TORSDOF 17
ENDMDL
MODEL 6
REMARK VINA RESULT:      -5.4      2.449      8.098
REMARK  17 active torsions:
REMARK  status: ('A' for Active; 'I' for Inactive)
REMARK    1  A    between atoms: C_1  and  OA_3 
REMARK       I    between atoms: N_11  and  C_1 
REMARK    2  A    between atoms: OA_3  and  CB_4 
REMARK    3  A    between atoms: CB_4  and  CG_5 
REMARK    4  A    between atoms: CA_12  and  N_11 
REMARK    5  A    between atoms: P_13  and  CA_12 
REMARK    6  A    between atoms: CA_12  and  CB_16 
REMARK    7  A    between atoms: P_13  and  N_23 
REMARK    8  A    between atoms: CB_16  and  CG_17 
REMARK    9  A    between atoms: N_23  and  CA_24 
REMARK   10  A    between atoms: CA_24  and  CB_27 
REMARK   11  A    between atoms: CA_24  and  C_25 
REMARK       I    between atoms: C_25  and  N_31 
REMARK   12  A    between atoms: CB_27  and  CG_28 
REMARK   13  A    between atoms: CG_28  and  CD1_29 
REMARK   14  A    between atoms: CG_28  and  CD2_30 
REMARK   15  A    between atoms: N_31  and  CA_32 
REMARK   16  A    between atoms: CA_32  and  CB_35 
REMARK   17  A    between atoms: CA_32  and  C_33 
ROOT
ATOM      1  CA  MOL d          50.164  18.199  -7.173  0.00  0.00     0.112 C 
ATOM      2  H9  MOL d          49.606  19.118  -6.938  0.00  0.00     0.092 H 
ENDROOT
BRANCH   1   3
ATOM      3  N   MOL d          51.041  17.756  -6.054  0.00  0.00    -0.321 N 
ATOM      4  C   MOL d          51.973  18.567  -5.530  0.00  0.00     0.361 C 
ATOM      5  O   MOL d          52.275  19.736  -5.951  0.00  0.00    -0.238 OA
ATOM      6  H8  MOL d          50.932  16.834  -5.684  0.00  0.00     0.165 HD
BRANCH   4   7
ATOM      7  OA  MOL d          52.501  17.932  -4.427  0.00  0.00    -0.299 OA
BRANCH   7   8
ATOM      8  CB  MOL d          53.835  18.223  -3.977  0.00  0.00     0.054 C 
ATOM      9  H1  MOL d          54.189  19.188  -4.370  0.00  0.00     0.082 H 
ATOM     10  H2  MOL d          54.539  17.429  -4.267  0.00  0.00     0.082 H 
BRANCH   8  11
ATOM     11  CG  MOL d          53.651  18.273  -2.502  0.00  0.00    -0.034 A 
ATOM     12  CD1 MOL d          54.559  18.667  -1.514  0.00  0.00    -0.075 A 
ATOM     13  CE1 MOL d          54.243  18.719  -0.130  0.00  0.00    -0.082 A 
ATOM     14  H3  MOL d          55.560  18.950  -1.821  0.00  0.00     0.084 H 
ATOM     15  CZ  MOL d          53.035  18.431   0.340  0.00  0.00    -0.083 A 
ATOM     16  H5  MOL d          55.020  19.005   0.570  0.00  0.00     0.083 H 
ATOM     17  CE2 MOL d          52.233  18.050  -0.660  0.00  0.00    -0.082 A 
ATOM     18  H7  MOL d          52.741  18.495   1.382  0.00  0.00     0.083 H 
ATOM     19  CD2 MOL d          52.427  17.959  -2.053  0.00  0.00    -0.075 A 
ATOM     20  H6  MOL d          51.242  17.752  -0.336  0.00  0.00     0.083 H 
ATOM     21  H4  MOL d          51.632  17.654  -2.724  0.00  0.00     0.084 H 
ENDBRANCH   8  11
ENDBRANCH   7   8
ENDBRANCH   4   7
ENDBRANCH   1   3
BRANCH   1  22
ATOM     22  P   MOL d          49.145  16.935  -7.479  0.00  0.00     0.229 P 
ATOM     23  OP1 MOL d          49.555  15.645  -6.671  0.00  0.00    -0.650 OA
ATOM     24  OP2 MOL d          47.621  17.318  -7.270  0.00  0.00    -0.650 OA
BRANCH  22  25
ATOM     25  N   MOL d          49.384  16.734  -9.352  0.00  0.00    -0.334 N 
ATOM     26  H17 MOL d          50.276  16.542  -9.761  0.00  0.00     0.164 HD
BRANCH  25  27
ATOM     27  CA  MOL d          48.163  16.880 -10.156  0.00  0.00     0.091 C 
ATOM     28  H18 MOL d          47.384  17.255  -9.476  0.00  0.00     0.087 H 
BRANCH  27  29
ATOM     29  CB  MOL d          48.327  17.888 -11.301  0.00  0.00    -0.035 C 
ATOM     30  H19 MOL d          48.333  17.337 -12.252  0.00  0.00     0.037 H 
ATOM     31  H20 MOL d          49.288  18.408 -11.172  0.00  0.00     0.037 H 
BRANCH  29  32
ATOM     32  CG  MOL d          47.227  18.923 -11.354  0.00  0.00    -0.059 C 
ATOM     33  H21 MOL d          46.267  18.482 -11.659  0.00  0.00     0.038 H 
BRANCH  32  34
ATOM     34  CD1 MOL d          47.056  19.595  -9.980  0.00  0.00    -0.073 C 
ATOM     35  H22 MOL d          47.406  20.636 -10.035  0.00  0.00     0.028 H 
ATOM     36  H23 MOL d          47.645  19.049  -9.229  0.00  0.00     0.028 H 
ATOM     37  H24 MOL d          45.994  19.580  -9.694  0.00  0.00     0.028 H 
ENDBRANCH  32  34
BRANCH  32  38
ATOM     38  CD2 MOL d          47.774  19.830 -12.436  0.00  0.00    -0.073 C 
ATOM     39  H25 MOL d          48.642  19.351 -12.912  0.00  0.00     0.028 H 
ATOM     40  H26 MOL d          48.082  20.787 -11.991  0.00  0.00     0.028 H 
ATOM     41  H27 MOL d          46.994  20.011 -13.191  0.00  0.00     0.028 H 
ENDBRANCH  32  38
ENDBRANCH  29  32
ENDBRANCH  27  29
BRANCH  27  42
ATOM     42  C   MOL d          47.640  15.585 -10.799  0.00  0.00     0.241 C 
ATOM     43  O   MOL d          46.436  15.419 -11.026  0.00  0.00    -0.271 OA
ATOM     44  N   MOL d          48.559  14.710 -11.157  0.00  0.00    -0.345 N 
ATOM     45  H28 MOL d          49.512  14.933 -10.948  0.00  0.00     0.163 HD
BRANCH  44  46
ATOM     46  CA  MOL d          48.297  13.428 -11.840  0.00  0.00     0.093 C 
ATOM     47  H29 MOL d          49.232  12.852 -11.898  0.00  0.00     0.089 H 
BRANCH  46  48
ATOM     48  CB  MOL d          47.283  12.648 -11.023  0.00  0.00    -0.048 C 
ATOM     49  H30 MOL d          46.344  12.564 -11.589  0.00  0.00     0.030 H 
ATOM     50  H31 MOL d          47.094  13.174 -10.075  0.00  0.00     0.030 H 
ATOM     51  H32 MOL d          47.676  11.643 -10.812  0.00  0.00     0.030 H 
ENDBRANCH  46  48
BRANCH  46  52
ATOM     52  C   MOL d          47.773  13.669 -13.278  0.00  0.00     0.196 C 
ATOM     53  O   MOL d          46.661  13.224 -13.631  0.00  0.00    -0.646 OA
ATOM     54  OXT MOL d          48.338  14.397 -14.173  0.00  0.00    -0.646 OA
ENDBRANCH  46  52
ENDBRANCH  44  46
ENDBRANCH  27  42
ENDBRANCH  25  27
ENDBRANCH  22  25
ENDBRANCH   1  22
BRANCH   1  55
ATOM     55  CB  MOL d          51.102  18.397  -8.316  0.00  0.00    -0.011 C 
ATOM     56  H10 MOL d          50.938  17.625  -9.083  0.00  0.00     0.044 H 
ATOM     57  H11 MOL d          52.144  18.350  -7.967  0.00  0.00     0.044 H 
BRANCH  55  58
ATOM     58  CG  MOL d          50.795  19.770  -8.877  0.00  0.00    -0.056 A 
ATOM     59  CD1 MOL d          50.931  19.927 -10.262  0.00  0.00    -0.077 A 
ATOM     60  CE1 MOL d          50.646  21.158 -10.867  0.00  0.00    -0.082 A 
ATOM     61  H12 MOL d          51.257  19.091 -10.870  0.00  0.00     0.084 H 
ATOM     62  CZ  MOL d          50.222  22.208 -10.063  0.00  0.00    -0.083 A 
ATOM     63  H14 MOL d          50.755  21.288 -11.938  0.00  0.00     0.083 H 
ATOM     64  CE2 MOL d          50.062  22.031  -8.658  0.00  0.00    -0.082 A 
ATOM     65  H16 MOL d          50.010  23.174 -10.508  0.00  0.00     0.083 H 
ATOM     66  CD2 MOL d          50.342  20.787  -8.073  0.00  0.00    -0.077 A 
ATOM     67  H15 MOL d          49.725  22.856  -8.041  0.00  0.00     0.083 H 
ATOM     68  H13 MOL d          50.204  20.632  -7.009  0.00  0.00     0.084 H 
ENDBRANCH  55  58
ENDBRANCH   1  55
TORSDOF 17
ENDMDL
MODEL 7
REMARK VINA RESULT:      -5.4      2.184      6.255
REMARK  17 active torsions:
REMARK  status: ('A' for Active; 'I' for Inactive)
REMARK    1  A    between atoms: C_1  and  OA_3 
REMARK       I    between atoms: N_11  and  C_1 
REMARK    2  A    between atoms: OA_3  and  CB_4 
REMARK    3  A    between atoms: CB_4  and  CG_5 
REMARK    4  A    between atoms: CA_12  and  N_11 
REMARK    5  A    between atoms: P_13  and  CA_12 
REMARK    6  A    between atoms: CA_12  and  CB_16 
REMARK    7  A    between atoms: P_13  and  N_23 
REMARK    8  A    between atoms: CB_16  and  CG_17 
REMARK    9  A    between atoms: N_23  and  CA_24 
REMARK   10  A    between atoms: CA_24  and  CB_27 
REMARK   11  A    between atoms: CA_24  and  C_25 
REMARK       I    between atoms: C_25  and  N_31 
REMARK   12  A    between atoms: CB_27  and  CG_28 
REMARK   13  A    between atoms: CG_28  and  CD1_29 
REMARK   14  A    between atoms: CG_28  and  CD2_30 
REMARK   15  A    between atoms: N_31  and  CA_32 
REMARK   16  A    between atoms: CA_32  and  CB_35 
REMARK   17  A    between atoms: CA_32  and  C_33 
ROOT
ATOM      1  CA  MOL d          49.196  19.291  -9.280  0.00  0.00     0.112 C 
ATOM      2  H9  MOL d          48.959  20.343  -9.063  0.00  0.00     0.092 H 
ENDROOT
BRANCH   1   3
ATOM      3  N   MOL d          49.903  18.617  -8.155  0.00  0.00    -0.321 N 
ATOM      4  C   MOL d          51.044  19.110  -7.649  0.00  0.00     0.361 C 
ATOM      5  O   MOL d          51.689  20.121  -8.092  0.00  0.00    -0.238 OA
ATOM      6  H8  MOL d          49.519  17.780  -7.768  0.00  0.00     0.165 HD
BRANCH   4   7
ATOM      7  OA  MOL d          51.361  18.360  -6.536  0.00  0.00    -0.299 OA
BRANCH   7   8
ATOM      8  CB  MOL d          52.151  18.917  -5.473  0.00  0.00     0.054 C 
ATOM      9  H1  MOL d          51.551  19.581  -4.833  0.00  0.00     0.082 H 
ATOM     10  H2  MOL d          53.018  19.470  -5.865  0.00  0.00     0.082 H 
BRANCH   8  11
ATOM     11  CG  MOL d          52.575  17.694  -4.740  0.00  0.00    -0.034 A 
ATOM     12  CD1 MOL d          52.324  16.352  -5.046  0.00  0.00    -0.075 A 
ATOM     13  CE1 MOL d          52.831  15.264  -4.289  0.00  0.00    -0.082 A 
ATOM     14  H3  MOL d          51.707  16.131  -5.911  0.00  0.00     0.084 H 
ATOM     15  CZ  MOL d          53.627  15.431  -3.238  0.00  0.00    -0.083 A 
ATOM     16  H5  MOL d          52.558  14.255  -4.579  0.00  0.00     0.083 H 
ATOM     17  CE2 MOL d          53.806  16.735  -3.002  0.00  0.00    -0.082 A 
ATOM     18  H7  MOL d          54.067  14.629  -2.657  0.00  0.00     0.083 H 
ATOM     19  CD2 MOL d          53.362  17.893  -3.673  0.00  0.00    -0.075 A 
ATOM     20  H6  MOL d          54.408  16.942  -2.125  0.00  0.00     0.083 H 
ATOM     21  H4  MOL d          53.641  18.888  -3.346  0.00  0.00     0.084 H 
ENDBRANCH   8  11
ENDBRANCH   7   8
ENDBRANCH   4   7
ENDBRANCH   1   3
BRANCH   1  22
ATOM     22  P   MOL d          47.828  18.405  -9.551  0.00  0.00     0.229 P 
ATOM     23  OP1 MOL d          47.519  17.426  -8.355  0.00  0.00    -0.650 OA
ATOM     24  OP2 MOL d          46.581  19.311  -9.925  0.00  0.00    -0.650 OA
BRANCH  22  25
ATOM     25  N   MOL d          48.310  17.490 -11.143  0.00  0.00    -0.334 N 
ATOM     26  H17 MOL d          49.076  17.778 -11.716  0.00  0.00     0.164 HD
BRANCH  25  27
ATOM     27  CA  MOL d          47.473  16.327 -11.471  0.00  0.00     0.091 C 
ATOM     28  H18 MOL d          46.560  16.417 -10.864  0.00  0.00     0.087 H 
BRANCH  27  29
ATOM     29  CB  MOL d          47.066  16.291 -12.950  0.00  0.00    -0.035 C 
ATOM     30  H19 MOL d          45.976  16.419 -13.014  0.00  0.00     0.037 H 
ATOM     31  H20 MOL d          47.345  15.311 -13.364  0.00  0.00     0.037 H 
BRANCH  29  32
ATOM     32  CG  MOL d          47.724  17.367 -13.781  0.00  0.00    -0.059 C 
ATOM     33  H21 MOL d          48.183  18.146 -13.154  0.00  0.00     0.038 H 
BRANCH  32  34
ATOM     34  CD1 MOL d          48.806  16.756 -14.691  0.00  0.00    -0.073 C 
ATOM     35  H22 MOL d          49.271  15.899 -14.182  0.00  0.00     0.028 H 
ATOM     36  H23 MOL d          49.572  17.514 -14.910  0.00  0.00     0.028 H 
ATOM     37  H24 MOL d          48.346  16.418 -15.631  0.00  0.00     0.028 H 
ENDBRANCH  32  34
BRANCH  32  38
ATOM     38  CD2 MOL d          46.515  17.907 -14.515  0.00  0.00    -0.073 C 
ATOM     39  H25 MOL d          46.270  17.242 -15.356  0.00  0.00     0.028 H 
ATOM     40  H26 MOL d          46.737  18.914 -14.898  0.00  0.00     0.028 H 
ATOM     41  H27 MOL d          45.660  17.957 -13.825  0.00  0.00     0.028 H 
ENDBRANCH  32  38
ENDBRANCH  29  32
ENDBRANCH  27  29
BRANCH  27  42
ATOM     42  C   MOL d          48.104  14.958 -11.168  0.00  0.00     0.241 C 
ATOM     43  O   MOL d          48.231  14.098 -12.048  0.00  0.00    -0.271 OA
ATOM     44  N   MOL d          48.562  14.796  -9.943  0.00  0.00    -0.345 N 
ATOM     45  H28 MOL d          48.430  15.550  -9.299  0.00  0.00     0.163 HD
BRANCH  44  46
ATOM     46  CA  MOL d          49.255  13.591  -9.443  0.00  0.00     0.093 C 
ATOM     47  H29 MOL d          48.717  12.696  -9.787  0.00  0.00     0.089 H 
BRANCH  46  48
ATOM     48  CB  MOL d          50.662  13.576 -10.013  0.00  0.00    -0.048 C 
ATOM     49  H30 MOL d          50.614  13.661 -11.109  0.00  0.00     0.030 H 
ATOM     50  H31 MOL d          51.159  12.634  -9.739  0.00  0.00     0.030 H 
ATOM     51  H32 MOL d          51.232  14.423  -9.604  0.00  0.00     0.030 H 
ENDBRANCH  46  48
BRANCH  46  52
ATOM     52  C   MOL d          49.293  13.583  -7.894  0.00  0.00     0.196 C 
ATOM     53  O   MOL d          50.364  13.380  -7.286  0.00  0.00    -0.646 OA
ATOM     54  OXT MOL d          48.312  13.871  -7.116  0.00  0.00    -0.646 OA
ENDBRANCH  46  52
ENDBRANCH  44  46
ENDBRANCH  27  42
ENDBRANCH  25  27
ENDBRANCH  22  25
ENDBRANCH   1  22
BRANCH   1  55
ATOM     55  CB  MOL d          50.135  19.160 -10.432  0.00  0.00    -0.011 C 
ATOM     56  H10 MOL d          49.793  18.369 -11.115  0.00  0.00     0.044 H 
ATOM     57  H11 MOL d          51.148  18.924 -10.075  0.00  0.00     0.044 H 
BRANCH  55  58
ATOM     58  CG  MOL d          50.124  20.503 -11.134  0.00  0.00    -0.056 A 
ATOM     59  CD1 MOL d          49.174  20.673 -12.148  0.00  0.00    -0.077 A 
ATOM     60  CE1 MOL d          49.079  21.890 -12.835  0.00  0.00    -0.082 A 
ATOM     61  H12 MOL d          48.507  19.857 -12.404  0.00  0.00     0.084 H 
ATOM     62  CZ  MOL d          49.943  22.919 -12.479  0.00  0.00    -0.083 A 
ATOM     63  H14 MOL d          48.350  22.026 -13.625  0.00  0.00     0.083 H 
ATOM     64  CE2 MOL d          50.888  22.745 -11.427  0.00  0.00    -0.082 A 
ATOM     65  H16 MOL d          49.896  23.865 -13.007  0.00  0.00     0.083 H 
ATOM     66  CD2 MOL d          50.959  21.521 -10.745  0.00  0.00    -0.077 A 
ATOM     67  H15 MOL d          51.553  23.556 -11.155  0.00  0.00     0.083 H 
ATOM     68  H13 MOL d          51.658  21.383  -9.929  0.00  0.00     0.084 H 
ENDBRANCH  55  58
ENDBRANCH   1  55
TORSDOF 17
ENDMDL
MODEL 8
REMARK VINA RESULT:      -5.2      2.172      4.486
REMARK  17 active torsions:
REMARK  status: ('A' for Active; 'I' for Inactive)
REMARK    1  A    between atoms: C_1  and  OA_3 
REMARK       I    between atoms: N_11  and  C_1 
REMARK    2  A    between atoms: OA_3  and  CB_4 
REMARK    3  A    between atoms: CB_4  and  CG_5 
REMARK    4  A    between atoms: CA_12  and  N_11 
REMARK    5  A    between atoms: P_13  and  CA_12 
REMARK    6  A    between atoms: CA_12  and  CB_16 
REMARK    7  A    between atoms: P_13  and  N_23 
REMARK    8  A    between atoms: CB_16  and  CG_17 
REMARK    9  A    between atoms: N_23  and  CA_24 
REMARK   10  A    between atoms: CA_24  and  CB_27 
REMARK   11  A    between atoms: CA_24  and  C_25 
REMARK       I    between atoms: C_25  and  N_31 
REMARK   12  A    between atoms: CB_27  and  CG_28 
REMARK   13  A    between atoms: CG_28  and  CD1_29 
REMARK   14  A    between atoms: CG_28  and  CD2_30 
REMARK   15  A    between atoms: N_31  and  CA_32 
REMARK   16  A    between atoms: CA_32  and  CB_35 
REMARK   17  A    between atoms: CA_32  and  C_33 
ROOT
ATOM      1  CA  MOL d          48.884  18.291  -9.689  0.00  0.00     0.112 C 
ATOM      2  H9  MOL d          49.822  17.789  -9.969  0.00  0.00     0.092 H 
ENDROOT
BRANCH   1   3
ATOM      3  N   MOL d          48.099  18.745 -10.870  0.00  0.00    -0.321 N 
ATOM      4  C   MOL d          48.123  18.069 -12.029  0.00  0.00     0.361 C 
ATOM      5  O   MOL d          48.847  17.048 -12.290  0.00  0.00    -0.238 OA
ATOM      6  H8  MOL d          47.540  19.571 -10.798  0.00  0.00     0.165 HD
BRANCH   4   7
ATOM      7  OA  MOL d          47.187  18.643 -12.863  0.00  0.00    -0.299 OA
BRANCH   7   8
ATOM      8  CB  MOL d          46.595  19.913 -12.541  0.00  0.00     0.054 C 
ATOM      9  H1  MOL d          46.520  20.056 -11.453  0.00  0.00     0.082 H 
ATOM     10  H2  MOL d          45.598  20.017 -12.994  0.00  0.00     0.082 H 
BRANCH   8  11
ATOM     11  CG  MOL d          47.567  20.861 -13.147  0.00  0.00    -0.034 A 
ATOM     12  CD1 MOL d          48.588  20.606 -14.069  0.00  0.00    -0.075 A 
ATOM     13  CE1 MOL d          49.425  21.615 -14.616  0.00  0.00    -0.082 A 
ATOM     14  H3  MOL d          48.750  19.581 -14.384  0.00  0.00     0.084 H 
ATOM     15  CZ  MOL d          49.279  22.903 -14.324  0.00  0.00    -0.083 A 
ATOM     16  H5  MOL d          50.214  21.323 -15.300  0.00  0.00     0.083 H 
ATOM     17  CE2 MOL d          48.298  23.061 -13.429  0.00  0.00    -0.082 A 
ATOM     18  H7  MOL d          49.869  23.707 -14.748  0.00  0.00     0.083 H 
ATOM     19  CD2 MOL d          47.410  22.151 -12.821  0.00  0.00    -0.075 A 
ATOM     20  H6  MOL d          48.160  24.088 -13.109  0.00  0.00     0.083 H 
ATOM     21  H4  MOL d          46.642  22.477 -12.128  0.00  0.00     0.084 H 
ENDBRANCH   8  11
ENDBRANCH   7   8
ENDBRANCH   4   7
ENDBRANCH   1   3
BRANCH   1  22
ATOM     22  P   MOL d          47.888  17.283  -8.841  0.00  0.00     0.229 P 
ATOM     23  OP1 MOL d          46.436  17.881  -8.697  0.00  0.00    -0.650 OA
ATOM     24  OP2 MOL d          47.877  15.808  -9.422  0.00  0.00    -0.650 OA
BRANCH  22  25
ATOM     25  N   MOL d          48.809  17.188  -7.183  0.00  0.00    -0.334 N 
ATOM     26  H17 MOL d          48.436  17.574  -6.340  0.00  0.00     0.164 HD
BRANCH  25  27
ATOM     27  CA  MOL d          50.109  16.504  -7.230  0.00  0.00     0.091 C 
ATOM     28  H18 MOL d          50.003  15.589  -6.628  0.00  0.00     0.087 H 
BRANCH  27  29
ATOM     29  CB  MOL d          50.511  16.098  -8.654  0.00  0.00    -0.035 C 
ATOM     30  H19 MOL d          51.306  16.776  -8.998  0.00  0.00     0.037 H 
ATOM     31  H20 MOL d          49.632  16.202  -9.307  0.00  0.00     0.037 H 
BRANCH  29  32
ATOM     32  CG  MOL d          51.017  14.678  -8.755  0.00  0.00    -0.059 C 
ATOM     33  H21 MOL d          52.101  14.617  -8.576  0.00  0.00     0.038 H 
BRANCH  32  34
ATOM     34  CD1 MOL d          50.291  13.777  -7.739  0.00  0.00    -0.073 C 
ATOM     35  H22 MOL d          49.561  14.375  -7.175  0.00  0.00     0.028 H 
ATOM     36  H23 MOL d          51.025  13.342  -7.045  0.00  0.00     0.028 H 
ATOM     37  H24 MOL d          49.769  12.969  -8.273  0.00  0.00     0.028 H 
ENDBRANCH  32  34
BRANCH  32  38
ATOM     38  CD2 MOL d          50.690  14.386 -10.203  0.00  0.00    -0.073 C 
ATOM     39  H25 MOL d          49.601  14.293 -10.322  0.00  0.00     0.028 H 
ATOM     40  H26 MOL d          51.173  13.444 -10.506  0.00  0.00     0.028 H 
ATOM     41  H27 MOL d          51.060  15.207 -10.835  0.00  0.00     0.028 H 
ENDBRANCH  32  38
ENDBRANCH  29  32
ENDBRANCH  27  29
BRANCH  27  42
ATOM     42  C   MOL d          51.293  17.303  -6.663  0.00  0.00     0.241 C 
ATOM     43  O   MOL d          51.682  18.347  -7.200  0.00  0.00    -0.271 OA
ATOM     44  N   MOL d          51.807  16.847  -5.538  0.00  0.00    -0.345 N 
ATOM     45  H28 MOL d          51.421  16.004  -5.165  0.00  0.00     0.163 HD
BRANCH  44  46
ATOM     46  CA  MOL d          52.908  17.481  -4.784  0.00  0.00     0.093 C 
ATOM     47  H29 MOL d          53.666  17.847  -5.491  0.00  0.00     0.089 H 
BRANCH  46  48
ATOM     48  CB  MOL d          52.342  18.656  -4.008  0.00  0.00    -0.048 C 
ATOM     49  H30 MOL d          52.890  18.768  -3.061  0.00  0.00     0.030 H 
ATOM     50  H31 MOL d          51.277  18.477  -3.796  0.00  0.00     0.030 H 
ATOM     51  H32 MOL d          52.448  19.575  -4.604  0.00  0.00     0.030 H 
ENDBRANCH  46  48
BRANCH  46  52
ATOM     52  C   MOL d          53.574  16.462  -3.826  0.00  0.00     0.196 C 
ATOM     53  O   MOL d          54.621  16.757  -3.214  0.00  0.00    -0.646 OA
ATOM     54  OXT MOL d          53.096  15.316  -3.495  0.00  0.00    -0.646 OA
ENDBRANCH  46  52
ENDBRANCH  44  46
ENDBRANCH  27  42
ENDBRANCH  25  27
ENDBRANCH  22  25
ENDBRANCH   1  22
BRANCH   1  55
ATOM     55  CB  MOL d          49.136  19.542  -8.915  0.00  0.00    -0.011 C 
ATOM     56  H10 MOL d          49.751  19.327  -8.029  0.00  0.00     0.044 H 
ATOM     57  H11 MOL d          48.184  19.994  -8.599  0.00  0.00     0.044 H 
BRANCH  55  58
ATOM     58  CG  MOL d          49.874  20.473  -9.855  0.00  0.00    -0.056 A 
ATOM     59  CD1 MOL d          49.878  21.833  -9.517  0.00  0.00    -0.077 A 
ATOM     60  CE1 MOL d          50.554  22.761 -10.318  0.00  0.00    -0.082 A 
ATOM     61  H12 MOL d          49.354  22.168  -8.629  0.00  0.00     0.084 H 
ATOM     62  CZ  MOL d          51.222  22.299 -11.445  0.00  0.00    -0.083 A 
ATOM     63  H14 MOL d          50.556  23.815 -10.065  0.00  0.00     0.083 H 
ATOM     64  CE2 MOL d          51.234  20.910 -11.766  0.00  0.00    -0.082 A 
ATOM     65  H16 MOL d          51.741  23.002 -12.087  0.00  0.00     0.083 H 
ATOM     66  CD2 MOL d          50.559  19.996 -10.944  0.00  0.00    -0.077 A 
ATOM     67  H15 MOL d          51.764  20.561 -12.645  0.00  0.00     0.083 H 
ATOM     68  H13 MOL d          50.579  18.935 -11.164  0.00  0.00     0.084 H 
ENDBRANCH  55  58
ENDBRANCH   1  55
TORSDOF 17
ENDMDL
MODEL 9
REMARK VINA RESULT:      -5.1      1.908      2.962
REMARK  17 active torsions:
REMARK  status: ('A' for Active; 'I' for Inactive)
REMARK    1  A    between atoms: C_1  and  OA_3 
REMARK       I    between atoms: N_11  and  C_1 
REMARK    2  A    between atoms: OA_3  and  CB_4 
REMARK    3  A    between atoms: CB_4  and  CG_5 
REMARK    4  A    between atoms: CA_12  and  N_11 
REMARK    5  A    between atoms: P_13  and  CA_12 
REMARK    6  A    between atoms: CA_12  and  CB_16 
REMARK    7  A    between atoms: P_13  and  N_23 
REMARK    8  A    between atoms: CB_16  and  CG_17 
REMARK    9  A    between atoms: N_23  and  CA_24 
REMARK   10  A    between atoms: CA_24  and  CB_27 
REMARK   11  A    between atoms: CA_24  and  C_25 
REMARK       I    between atoms: C_25  and  N_31 
REMARK   12  A    between atoms: CB_27  and  CG_28 
REMARK   13  A    between atoms: CG_28  and  CD1_29 
REMARK   14  A    between atoms: CG_28  and  CD2_30 
REMARK   15  A    between atoms: N_31  and  CA_32 
REMARK   16  A    between atoms: CA_32  and  CB_35 
REMARK   17  A    between atoms: CA_32  and  C_33 
ROOT
ATOM      1  CA  MOL d          49.382  19.349 -11.474  0.00  0.00     0.112 C 
ATOM      2  H9  MOL d          50.480  19.393 -11.514  0.00  0.00     0.092 H 
ENDROOT
BRANCH   1   3
ATOM      3  N   MOL d          48.817  18.277 -12.341  0.00  0.00    -0.321 N 
ATOM      4  C   MOL d          47.742  18.494 -13.114  0.00  0.00     0.361 C 
ATOM      5  O   MOL d          47.043  19.564 -13.147  0.00  0.00    -0.238 OA
ATOM      6  H8  MOL d          49.250  17.376 -12.348  0.00  0.00     0.165 HD
BRANCH   4   7
ATOM      7  OA  MOL d          47.565  17.375 -13.899  0.00  0.00    -0.299 OA
BRANCH   7   8
ATOM      8  CB  MOL d          48.633  16.434 -14.093  0.00  0.00     0.054 C 
ATOM      9  H1  MOL d          49.413  16.550 -13.326  0.00  0.00     0.082 H 
ATOM     10  H2  MOL d          49.083  16.537 -15.091  0.00  0.00     0.082 H 
BRANCH   8  11
ATOM     11  CG  MOL d          47.921  15.136 -13.950  0.00  0.00    -0.034 A 
ATOM     12  CD1 MOL d          48.047  13.973 -14.716  0.00  0.00    -0.075 A 
ATOM     13  CE1 MOL d          47.342  12.771 -14.446  0.00  0.00    -0.082 A 
ATOM     14  H3  MOL d          48.723  13.989 -15.565  0.00  0.00     0.084 H 
ATOM     15  CZ  MOL d          46.523  12.639 -13.407  0.00  0.00    -0.083 A 
ATOM     16  H5  MOL d          47.476  11.927 -15.113  0.00  0.00     0.083 H 
ATOM     17  CE2 MOL d          46.444  13.793 -12.737  0.00  0.00    -0.082 A 
ATOM     18  H7  MOL d          45.996  11.730 -13.143  0.00  0.00     0.083 H 
ATOM     19  CD2 MOL d          47.087  15.037 -12.905  0.00  0.00    -0.075 A 
ATOM     20  H6  MOL d          45.752  13.768 -11.903  0.00  0.00     0.083 H 
ATOM     21  H4  MOL d          46.917  15.866 -12.227  0.00  0.00     0.084 H 
ENDBRANCH   8  11
ENDBRANCH   7   8
ENDBRANCH   4   7
ENDBRANCH   1   3
BRANCH   1  22
ATOM     22  P   MOL d          48.845  19.025  -9.946  0.00  0.00     0.229 P 
ATOM     23  OP1 MOL d          49.470  20.010  -8.886  0.00  0.00    -0.650 OA
ATOM     24  OP2 MOL d          47.262  18.970  -9.856  0.00  0.00    -0.650 OA
BRANCH  22  25
ATOM     25  N   MOL d          49.447  17.238  -9.731  0.00  0.00    -0.334 N 
ATOM     26  H17 MOL d          50.082  16.805 -10.370  0.00  0.00     0.164 HD
BRANCH  25  27
ATOM     27  CA  MOL d          48.912  16.536  -8.555  0.00  0.00     0.091 C 
ATOM     28  H18 MOL d          47.819  16.661  -8.588  0.00  0.00     0.087 H 
BRANCH  27  29
ATOM     29  CB  MOL d          49.225  15.035  -8.571  0.00  0.00    -0.035 C 
ATOM     30  H19 MOL d          48.638  14.548  -7.778  0.00  0.00     0.037 H 
ATOM     31  H20 MOL d          50.298  14.900  -8.367  0.00  0.00     0.037 H 
BRANCH  29  32
ATOM     32  CG  MOL d          48.900  14.365  -9.886  0.00  0.00    -0.059 C 
ATOM     33  H21 MOL d          48.404  15.055 -10.584  0.00  0.00     0.038 H 
BRANCH  32  34
ATOM     34  CD1 MOL d          50.183  13.825 -10.544  0.00  0.00    -0.073 C 
ATOM     35  H22 MOL d          51.040  14.004  -9.878  0.00  0.00     0.028 H 
ATOM     36  H23 MOL d          50.349  14.340 -11.501  0.00  0.00     0.028 H 
ATOM     37  H24 MOL d          50.077  12.745 -10.722  0.00  0.00     0.028 H 
ENDBRANCH  32  34
BRANCH  32  38
ATOM     38  CD2 MOL d          47.941  13.297  -9.406  0.00  0.00    -0.073 C 
ATOM     39  H25 MOL d          47.647  12.661 -10.253  0.00  0.00     0.028 H 
ATOM     40  H26 MOL d          47.046  13.774  -8.978  0.00  0.00     0.028 H 
ATOM     41  H27 MOL d          48.432  12.682  -8.637  0.00  0.00     0.028 H 
ENDBRANCH  32  38
ENDBRANCH  29  32
ENDBRANCH  27  29
BRANCH  27  42
ATOM     42  C   MOL d          49.403  17.061  -7.196  0.00  0.00     0.241 C 
ATOM     43  O   MOL d          48.610  17.457  -6.334  0.00  0.00    -0.271 OA
ATOM     44  N   MOL d          50.703  16.990  -6.989  0.00  0.00    -0.345 N 
ATOM     45  H28 MOL d          51.269  16.643  -7.737  0.00  0.00     0.163 HD
BRANCH  44  46
ATOM     46  CA  MOL d          51.391  17.381  -5.742  0.00  0.00     0.093 C 
ATOM     47  H29 MOL d          50.643  17.685  -4.997  0.00  0.00     0.089 H 
BRANCH  46  48
ATOM     48  CB  MOL d          52.154  16.177  -5.219  0.00  0.00    -0.048 C 
ATOM     49  H30 MOL d          51.621  15.256  -5.498  0.00  0.00     0.030 H 
ATOM     50  H31 MOL d          52.230  16.240  -4.123  0.00  0.00     0.030 H 
ATOM     51  H32 MOL d          53.163  16.164  -5.656  0.00  0.00     0.030 H 
ENDBRANCH  46  48
BRANCH  46  52
ATOM     52  C   MOL d          52.352  18.569  -5.996  0.00  0.00     0.196 C 
ATOM     53  O   MOL d          53.204  18.890  -5.142  0.00  0.00    -0.646 OA
ATOM     54  OXT MOL d          52.444  19.243  -7.086  0.00  0.00    -0.646 OA
ENDBRANCH  46  52
ENDBRANCH  44  46
ENDBRANCH  27  42
ENDBRANCH  25  27
ENDBRANCH  22  25
ENDBRANCH   1  22
BRANCH   1  55
ATOM     55  CB  MOL d          48.757  20.602 -11.989  0.00  0.00    -0.011 C 
ATOM     56  H10 MOL d          48.258  21.144 -11.172  0.00  0.00     0.044 H 
ATOM     57  H11 MOL d          48.024  20.369 -12.775  0.00  0.00     0.044 H 
BRANCH  55  58
ATOM     58  CG  MOL d          49.890  21.432 -12.556  0.00  0.00    -0.056 A 
ATOM     59  CD1 MOL d          49.666  22.033 -13.801  0.00  0.00    -0.077 A 
ATOM     60  CE1 MOL d          50.652  22.835 -14.389  0.00  0.00    -0.082 A 
ATOM     61  H12 MOL d          48.723  21.876 -14.313  0.00  0.00     0.084 H 
ATOM     62  CZ  MOL d          51.846  23.023 -13.705  0.00  0.00    -0.083 A 
ATOM     63  H14 MOL d          50.487  23.297 -15.356  0.00  0.00     0.083 H 
ATOM     64  CE2 MOL d          52.054  22.429 -12.427  0.00  0.00    -0.082 A 
ATOM     65  H16 MOL d          52.629  23.629 -14.148  0.00  0.00     0.083 H 
ATOM     66  CD2 MOL d          51.050  21.638 -11.851  0.00  0.00    -0.077 A 
ATOM     67  H15 MOL d          52.988  22.587 -11.900  0.00  0.00     0.083 H 
ATOM     68  H13 MOL d          51.186  21.198 -10.869  0.00  0.00     0.084 H 
ENDBRANCH  55  58
ENDBRANCH   1  55
TORSDOF 17
ENDMDL
MODEL 10
REMARK VINA RESULT:      -5.1      2.143      5.463
REMARK  17 active torsions:
REMARK  status: ('A' for Active; 'I' for Inactive)
REMARK    1  A    between atoms: C_1  and  OA_3 
REMARK       I    between atoms: N_11  and  C_1 
REMARK    2  A    between atoms: OA_3  and  CB_4 
REMARK    3  A    between atoms: CB_4  and  CG_5 
REMARK    4  A    between atoms: CA_12  and  N_11 
REMARK    5  A    between atoms: P_13  and  CA_12 
REMARK    6  A    between atoms: CA_12  and  CB_16 
REMARK    7  A    between atoms: P_13  and  N_23 
REMARK    8  A    between atoms: CB_16  and  CG_17 
REMARK    9  A    between atoms: N_23  and  CA_24 
REMARK   10  A    between atoms: CA_24  and  CB_27 
REMARK   11  A    between atoms: CA_24  and  C_25 
REMARK       I    between atoms: C_25  and  N_31 
REMARK   12  A    between atoms: CB_27  and  CG_28 
REMARK   13  A    between atoms: CG_28  and  CD1_29 
REMARK   14  A    between atoms: CG_28  and  CD2_30 
REMARK   15  A    between atoms: N_31  and  CA_32 
REMARK   16  A    between atoms: CA_32  and  CB_35 
REMARK   17  A    between atoms: CA_32  and  C_33 
ROOT
ATOM      1  CA  MOL d          48.262  17.814  -8.912  0.00  0.00     0.112 C 
ATOM      2  H9  MOL d          48.399  18.058  -7.848  0.00  0.00     0.092 H 
ENDROOT
BRANCH   1   3
ATOM      3  N   MOL d          48.973  18.761  -9.815  0.00  0.00    -0.321 N 
ATOM      4  C   MOL d          50.051  19.446  -9.404  0.00  0.00     0.361 C 
ATOM      5  O   MOL d          50.538  19.443  -8.222  0.00  0.00    -0.238 OA
ATOM      6  H8  MOL d          48.640  18.889 -10.749  0.00  0.00     0.165 HD
BRANCH   4   7
ATOM      7  OA  MOL d          50.564  20.106 -10.500  0.00  0.00    -0.299 OA
BRANCH   7   8
ATOM      8  CB  MOL d          50.668  21.539 -10.514  0.00  0.00     0.054 C 
ATOM      9  H1  MOL d          51.698  21.869 -10.315  0.00  0.00     0.082 H 
ATOM     10  H2  MOL d          49.988  21.998  -9.781  0.00  0.00     0.082 H 
BRANCH   8  11
ATOM     11  CG  MOL d          50.257  21.857 -11.907  0.00  0.00    -0.034 A 
ATOM     12  CD1 MOL d          49.734  23.049 -12.422  0.00  0.00    -0.075 A 
ATOM     13  CE1 MOL d          49.425  23.245 -13.794  0.00  0.00    -0.082 A 
ATOM     14  H3  MOL d          49.555  23.868 -11.735  0.00  0.00     0.084 H 
ATOM     15  CZ  MOL d          49.647  22.317 -14.719  0.00  0.00    -0.083 A 
ATOM     16  H5  MOL d          48.992  24.191 -14.100  0.00  0.00     0.083 H 
ATOM     17  CE2 MOL d          50.130  21.208 -14.148  0.00  0.00    -0.082 A 
ATOM     18  H7  MOL d          49.462  22.440 -15.780  0.00  0.00     0.083 H 
ATOM     19  CD2 MOL d          50.474  20.896 -12.817  0.00  0.00    -0.075 A 
ATOM     20  H6  MOL d          50.287  20.391 -14.843  0.00  0.00     0.083 H 
ATOM     21  H4  MOL d          50.891  19.933 -12.544  0.00  0.00     0.084 H 
ENDBRANCH   8  11
ENDBRANCH   7   8
ENDBRANCH   4   7
ENDBRANCH   1   3
BRANCH   1  22
ATOM     22  P   MOL d          48.854  16.314  -9.270  0.00  0.00     0.229 P 
ATOM     23  OP1 MOL d          47.803  15.181  -8.959  0.00  0.00    -0.650 OA
ATOM     24  OP2 MOL d          49.420  16.220 -10.748  0.00  0.00    -0.650 OA
BRANCH  22  25
ATOM     25  N   MOL d          50.365  16.247  -8.123  0.00  0.00    -0.334 N 
ATOM     26  H17 MOL d          51.004  17.011  -8.033  0.00  0.00     0.164 HD
BRANCH  25  27
ATOM     27  CA  MOL d          50.526  14.992  -7.375  0.00  0.00     0.091 C 
ATOM     28  H18 MOL d          49.513  14.638  -7.137  0.00  0.00     0.087 H 
BRANCH  27  29
ATOM     29  CB  MOL d          51.235  13.905  -8.193  0.00  0.00    -0.035 C 
ATOM     30  H19 MOL d          52.182  13.654  -7.693  0.00  0.00     0.037 H 
ATOM     31  H20 MOL d          51.445  14.305  -9.196  0.00  0.00     0.037 H 
BRANCH  29  32
ATOM     32  CG  MOL d          50.424  12.639  -8.343  0.00  0.00    -0.059 C 
ATOM     33  H21 MOL d          51.011  11.745  -8.087  0.00  0.00     0.038 H 
BRANCH  32  34
ATOM     34  CD1 MOL d          49.176  12.693  -7.443  0.00  0.00    -0.073 C 
ATOM     35  H22 MOL d          49.411  12.250  -6.464  0.00  0.00     0.028 H 
ATOM     36  H23 MOL d          48.359  12.128  -7.914  0.00  0.00     0.028 H 
ATOM     37  H24 MOL d          48.867  13.740  -7.306  0.00  0.00     0.028 H 
ENDBRANCH  32  34
BRANCH  32  38
ATOM     38  CD2 MOL d          50.132  12.689  -9.827  0.00  0.00    -0.073 C 
ATOM     39  H25 MOL d          49.175  13.202  -9.996  0.00  0.00     0.028 H 
ATOM     40  H26 MOL d          50.073  11.664 -10.224  0.00  0.00     0.028 H 
ATOM     41  H27 MOL d          50.938  13.234 -10.341  0.00  0.00     0.028 H 
ENDBRANCH  32  38
ENDBRANCH  29  32
ENDBRANCH  27  29
BRANCH  27  42
ATOM     42  C   MOL d          51.305  15.109  -6.055  0.00  0.00     0.241 C 
ATOM     43  O   MOL d          51.631  14.107  -5.408  0.00  0.00    -0.271 OA
ATOM     44  N   MOL d          51.663  16.329  -5.705  0.00  0.00    -0.345 N 
ATOM     45  H28 MOL d          51.369  17.081  -6.296  0.00  0.00     0.163 HD
BRANCH  44  46
ATOM     46  CA  MOL d          52.462  16.675  -4.513  0.00  0.00     0.093 C 
ATOM     47  H29 MOL d          51.784  16.874  -3.670  0.00  0.00     0.089 H 
BRANCH  46  48
ATOM     48  CB  MOL d          53.349  15.492  -4.170  0.00  0.00    -0.048 C 
ATOM     49  H30 MOL d          52.763  14.742  -3.619  0.00  0.00     0.030 H 
ATOM     50  H31 MOL d          54.189  15.832  -3.547  0.00  0.00     0.030 H 
ATOM     51  H32 MOL d          53.738  15.046  -5.097  0.00  0.00     0.030 H 
ENDBRANCH  46  48
BRANCH  46  52
ATOM     52  C   MOL d          53.315  17.942  -4.773  0.00  0.00     0.196 C 
ATOM     53  O   MOL d          52.873  18.871  -5.481  0.00  0.00    -0.646 OA
ATOM     54  OXT MOL d          54.452  18.207  -4.238  0.00  0.00    -0.646 OA
ENDBRANCH  46  52
ENDBRANCH  44  46
ENDBRANCH  27  42
ENDBRANCH  25  27
ENDBRANCH  22  25
ENDBRANCH   1  22
BRANCH   1  55
ATOM     55  CB  MOL d          46.832  17.919  -9.325  0.00  0.00    -0.011 C 
ATOM     56  H10 MOL d          46.256  18.475  -8.571  0.00  0.00     0.044 H 
ATOM     57  H11 MOL d          46.397  16.917  -9.453  0.00  0.00     0.044 H 
BRANCH  55  58
ATOM     58  CG  MOL d          46.832  18.665 -10.643  0.00  0.00    -0.056 A 
ATOM     59  CD1 MOL d          46.653  20.053 -10.579  0.00  0.00    -0.077 A 
ATOM     60  CE1 MOL d          46.660  20.824 -11.748  0.00  0.00    -0.082 A 
ATOM     61  H12 MOL d          46.506  20.533  -9.618  0.00  0.00     0.084 H 
ATOM     62  CZ  MOL d          46.858  20.181 -12.963  0.00  0.00    -0.083 A 
ATOM     63  H14 MOL d          46.516  21.898 -11.705  0.00  0.00     0.083 H 
ATOM     64  CE2 MOL d          47.066  18.772 -13.016  0.00  0.00    -0.082 A 
ATOM     65  H16 MOL d          46.854  20.757 -13.882  0.00  0.00     0.083 H 
ATOM     66  CD2 MOL d          47.065  18.020 -11.832  0.00  0.00    -0.077 A 
ATOM     67  H15 MOL d          47.224  18.282 -13.970  0.00  0.00     0.083 H 
ATOM     68  H13 MOL d          47.244  16.951 -11.856  0.00  0.00     0.084 H 
ENDBRANCH  55  58
ENDBRANCH   1  55
TORSDOF 17
ENDMDL
