MODEL 1
REMARK VINA RESULT:      -9.2      0.000      0.000
REMARK  7 active torsions:
REMARK  status: ('A' for Active; 'I' for Inactive)
REMARK    1  A    between atoms: C8_6  and  C7_7 
REMARK       I    between atoms: C7_7  and  N1_9 
REMARK    2  A    between atoms: N1_9  and  C1_10 
REMARK    3  A    between atoms: C5_12  and  C6_13 
REMARK    4  A    between atoms: C6_13  and  O6_14 
REMARK    5  A    between atoms: C4_15  and  O4_16 
REMARK    6  A    between atoms: C3_17  and  O3_18 
REMARK    7  A    between atoms: C2_19  and  O2_20 
ROOT
ATOM      1  C1  OAK d          33.847  22.751  27.851  0.00  0.00     0.134 C 
ATOM      2  O5  OAK d          33.585  21.335  28.144  0.00  0.00    -0.354 OA
ATOM      3  C5  OAK d          32.406  20.847  27.498  0.00  0.00     0.088 C 
ATOM      4  C4  OAK d          32.575  20.988  25.964  0.00  0.00     0.089 C 
ATOM      5  C3  OAK d          32.872  22.440  25.555  0.00  0.00     0.091 C 
ATOM      6  C2  OAK d          34.067  22.995  26.348  0.00  0.00     0.104 C 
ATOM      7  H7  OAK d          32.981  23.342  28.180  0.00  0.00     0.122 H 
ATOM      8  H8  OAK d          31.532  21.438  27.811  0.00  0.00     0.090 H 
ATOM      9  H12 OAK d          33.413  20.352  25.642  0.00  0.00     0.091 H 
ATOM     10  H14 OAK d          31.987  23.057  25.768  0.00  0.00     0.091 H 
ATOM     11  H16 OAK d          34.974  22.459  26.033  0.00  0.00     0.093 H 
ENDROOT
BRANCH   1  12
ATOM     12  N1  OAK d          35.053  23.196  28.598  0.00  0.00    -0.328 N 
ATOM     13  C7  OAK d          34.909  23.876  29.733  0.00  0.00     0.253 C 
ATOM     14  O7  OAK d          33.821  24.168  30.226  0.00  0.00    -0.268 OA
ATOM     15  H6  OAK d          35.966  22.986  28.250  0.00  0.00     0.165 HD
BRANCH  13  16
ATOM     16  C8  OAK d          36.211  24.285  30.432  0.00  0.00     0.032 A 
ATOM     17  C9  OAK d          37.262  23.381  30.540  0.00  0.00    -0.068 A 
ATOM     18  C10 OAK d          38.444  23.748  31.181  0.00  0.00    -0.082 A 
ATOM     19  H1  OAK d          37.162  22.385  30.124  0.00  0.00     0.085 H 
ATOM     20  C11 OAK d          38.581  25.025  31.718  0.00  0.00    -0.083 A 
ATOM     21  H2  OAK d          39.259  23.037  31.262  0.00  0.00     0.083 H 
ATOM     22  C12 OAK d          37.528  25.936  31.613  0.00  0.00    -0.082 A 
ATOM     23  H3  OAK d          39.501  25.311  32.215  0.00  0.00     0.083 H 
ATOM     24  C13 OAK d          36.341  25.566  30.969  0.00  0.00    -0.068 A 
ATOM     25  H4  OAK d          37.630  26.931  32.031  0.00  0.00     0.083 H 
ATOM     26  H5  OAK d          35.524  26.274  30.888  0.00  0.00     0.085 H 
ENDBRANCH  13  16
ENDBRANCH   1  12
BRANCH   6  27
ATOM     27  O2  OAK d          34.256  24.396  26.088  0.00  0.00    -0.389 OA
ATOM     28  H17 OAK d          34.871  24.504  25.373  0.00  0.00     0.210 HD
ENDBRANCH   6  27
BRANCH   3  29
ATOM     29  C6  OAK d          32.226  19.392  27.967  0.00  0.00     0.043 C 
ATOM     30  H9  OAK d          32.397  19.333  29.051  0.00  0.00     0.078 H 
ATOM     31  H10 OAK d          32.951  18.747  27.446  0.00  0.00     0.078 H 
BRANCH  29  32
ATOM     32  O6  OAK d          30.900  18.949  27.670  0.00  0.00    -0.398 OA
ATOM     33  H11 OAK d          30.415  19.656  27.260  0.00  0.00     0.209 HD
ENDBRANCH  29  32
ENDBRANCH   3  29
BRANCH   5  34
ATOM     34  O3  OAK d          33.155  22.499  24.157  0.00  0.00    -0.390 OA
ATOM     35  H15 OAK d          34.015  22.132  23.993  0.00  0.00     0.210 HD
ENDBRANCH   5  34
BRANCH   4  36
ATOM     36  O4  OAK d          31.386  20.553  25.321  0.00  0.00    -0.390 OA
ATOM     37  H13 OAK d          31.587  20.289  24.431  0.00  0.00     0.210 HD
ENDBRANCH   4  36
TORSDOF 7
ENDMDL
MODEL 2
REMARK VINA RESULT:      -8.5      1.803      2.853
REMARK  7 active torsions:
REMARK  status: ('A' for Active; 'I' for Inactive)
REMARK    1  A    between atoms: C8_6  and  C7_7 
REMARK       I    between atoms: C7_7  and  N1_9 
REMARK    2  A    between atoms: N1_9  and  C1_10 
REMARK    3  A    between atoms: C5_12  and  C6_13 
REMARK    4  A    between atoms: C6_13  and  O6_14 
REMARK    5  A    between atoms: C4_15  and  O4_16 
REMARK    6  A    between atoms: C3_17  and  O3_18 
REMARK    7  A    between atoms: C2_19  and  O2_20 
ROOT
ATOM      1  C1  OAK d          33.085  23.281  28.675  0.00  0.00     0.134 C 
ATOM      2  O5  OAK d          33.566  22.660  27.433  0.00  0.00    -0.354 OA
ATOM      3  C5  OAK d          32.504  22.340  26.529  0.00  0.00     0.088 C 
ATOM      4  C4  OAK d          31.757  23.642  26.147  0.00  0.00     0.089 C 
ATOM      5  C3  OAK d          31.226  24.380  27.387  0.00  0.00     0.091 C 
ATOM      6  C2  OAK d          32.354  24.608  28.407  0.00  0.00     0.104 C 
ATOM      7  H7  OAK d          32.386  22.588  29.165  0.00  0.00     0.122 H 
ATOM      8  H8  OAK d          31.792  21.654  27.011  0.00  0.00     0.090 H 
ATOM      9  H12 OAK d          32.454  24.305  25.613  0.00  0.00     0.091 H 
ATOM     10  H14 OAK d          30.442  23.768  27.855  0.00  0.00     0.091 H 
ATOM     11  H16 OAK d          33.071  25.325  27.981  0.00  0.00     0.093 H 
ENDROOT
BRANCH   1  12
ATOM     12  N1  OAK d          34.236  23.533  29.581  0.00  0.00    -0.328 N 
ATOM     13  C7  OAK d          35.361  24.045  29.088  0.00  0.00     0.253 C 
ATOM     14  O7  OAK d          35.522  24.336  27.905  0.00  0.00    -0.268 OA
ATOM     15  H6  OAK d          34.165  23.320  30.555  0.00  0.00     0.165 HD
BRANCH  13  16
ATOM     16  C8  OAK d          36.488  24.273  30.103  0.00  0.00     0.032 A 
ATOM     17  C9  OAK d          36.593  25.489  30.771  0.00  0.00    -0.068 A 
ATOM     18  C10 OAK d          37.620  25.701  31.688  0.00  0.00    -0.082 A 
ATOM     19  H1  OAK d          35.874  26.276  30.576  0.00  0.00     0.085 H 
ATOM     20  C11 OAK d          38.549  24.696  31.945  0.00  0.00    -0.083 A 
ATOM     21  H2  OAK d          37.697  26.652  32.204  0.00  0.00     0.083 H 
ATOM     22  C12 OAK d          38.447  23.474  31.276  0.00  0.00    -0.082 A 
ATOM     23  H3  OAK d          39.346  24.861  32.660  0.00  0.00     0.083 H 
ATOM     24  C13 OAK d          37.415  23.262  30.354  0.00  0.00    -0.068 A 
ATOM     25  H4  OAK d          39.169  22.689  31.472  0.00  0.00     0.083 H 
ATOM     26  H5  OAK d          37.338  22.313  29.836  0.00  0.00     0.085 H 
ENDBRANCH  13  16
ENDBRANCH   1  12
BRANCH   6  27
ATOM     27  O2  OAK d          31.841  25.156  29.633  0.00  0.00    -0.389 OA
ATOM     28  H17 OAK d          32.240  26.003  29.791  0.00  0.00     0.210 HD
ENDBRANCH   6  27
BRANCH   3  29
ATOM     29  C6  OAK d          33.157  21.629  25.329  0.00  0.00     0.043 C 
ATOM     30  H9  OAK d          32.591  20.716  25.093  0.00  0.00     0.078 H 
ATOM     31  H10 OAK d          34.194  21.361  25.582  0.00  0.00     0.078 H 
BRANCH  29  32
ATOM     32  O6  OAK d          33.155  22.497  24.194  0.00  0.00    -0.398 OA
ATOM     33  H11 OAK d          32.345  22.995  24.179  0.00  0.00     0.209 HD
ENDBRANCH  29  32
ENDBRANCH   3  29
BRANCH   5  34
ATOM     34  O3  OAK d          30.668  25.635  26.998  0.00  0.00    -0.390 OA
ATOM     35  H15 OAK d          30.489  26.154  27.774  0.00  0.00     0.210 HD
ENDBRANCH   5  34
BRANCH   4  36
ATOM     36  O4  OAK d          30.670  23.322  25.290  0.00  0.00    -0.390 OA
ATOM     37  H13 OAK d          30.939  23.428  24.385  0.00  0.00     0.210 HD
ENDBRANCH   4  36
TORSDOF 7
ENDMDL
MODEL 3
REMARK VINA RESULT:      -7.6      2.191      7.091
REMARK  7 active torsions:
REMARK  status: ('A' for Active; 'I' for Inactive)
REMARK    1  A    between atoms: C8_6  and  C7_7 
REMARK       I    between atoms: C7_7  and  N1_9 
REMARK    2  A    between atoms: N1_9  and  C1_10 
REMARK    3  A    between atoms: C5_12  and  C6_13 
REMARK    4  A    between atoms: C6_13  and  O6_14 
REMARK    5  A    between atoms: C4_15  and  O4_16 
REMARK    6  A    between atoms: C3_17  and  O3_18 
REMARK    7  A    between atoms: C2_19  and  O2_20 
ROOT
ATOM      1  C1  OAK d          34.978  24.053  29.575  0.00  0.00     0.134 C 
ATOM      2  O5  OAK d          36.210  23.401  30.043  0.00  0.00    -0.354 OA
ATOM      3  C5  OAK d          37.197  24.339  30.481  0.00  0.00     0.088 C 
ATOM      4  C4  OAK d          36.623  25.163  31.661  0.00  0.00     0.089 C 
ATOM      5  C3  OAK d          35.315  25.875  31.275  0.00  0.00     0.091 C 
ATOM      6  C2  OAK d          34.305  24.874  30.688  0.00  0.00     0.104 C 
ATOM      7  H7  OAK d          35.233  24.728  28.746  0.00  0.00     0.122 H 
ATOM      8  H8  OAK d          37.454  25.028  29.663  0.00  0.00     0.090 H 
ATOM      9  H12 OAK d          36.419  24.483  32.501  0.00  0.00     0.091 H 
ATOM     10  H14 OAK d          35.537  26.640  30.518  0.00  0.00     0.091 H 
ATOM     11  H16 OAK d          33.988  24.189  31.488  0.00  0.00     0.093 H 
ENDROOT
BRANCH   1  12
ATOM     12  N1  OAK d          34.026  23.021  29.087  0.00  0.00    -0.328 N 
ATOM     13  C7  OAK d          33.563  23.090  27.842  0.00  0.00     0.253 C 
ATOM     14  O7  OAK d          33.877  23.967  27.040  0.00  0.00    -0.268 OA
ATOM     15  H6  OAK d          33.736  22.279  29.692  0.00  0.00     0.165 HD
BRANCH  13  16
ATOM     16  C8  OAK d          32.593  21.976  27.432  0.00  0.00     0.032 A 
ATOM     17  C9  OAK d          32.762  20.684  27.918  0.00  0.00    -0.068 A 
ATOM     18  C10 OAK d          31.885  19.669  27.541  0.00  0.00    -0.082 A 
ATOM     19  H1  OAK d          33.580  20.465  28.594  0.00  0.00     0.085 H 
ATOM     20  C11 OAK d          30.831  19.941  26.674  0.00  0.00    -0.083 A 
ATOM     21  H2  OAK d          32.024  18.664  27.924  0.00  0.00     0.083 H 
ATOM     22  C12 OAK d          30.657  21.237  26.182  0.00  0.00    -0.082 A 
ATOM     23  H3  OAK d          30.148  19.152  26.382  0.00  0.00     0.083 H 
ATOM     24  C13 OAK d          31.539  22.256  26.561  0.00  0.00    -0.068 A 
ATOM     25  H4  OAK d          29.839  21.453  25.505  0.00  0.00     0.083 H 
ATOM     26  H5  OAK d          31.403  23.261  26.178  0.00  0.00     0.085 H 
ENDBRANCH  13  16
ENDBRANCH   1  12
BRANCH   6  27
ATOM     27  O2  OAK d          33.141  25.549  30.182  0.00  0.00    -0.389 OA
ATOM     28  H17 OAK d          33.298  26.485  30.173  0.00  0.00     0.210 HD
ENDBRANCH   6  27
BRANCH   3  29
ATOM     29  C6  OAK d          38.442  23.513  30.856  0.00  0.00     0.043 C 
ATOM     30  H9  OAK d          39.336  23.979  30.417  0.00  0.00     0.078 H 
ATOM     31  H10 OAK d          38.333  22.490  30.466  0.00  0.00     0.078 H 
BRANCH  29  32
ATOM     32  O6  OAK d          38.581  23.467  32.278  0.00  0.00    -0.398 OA
ATOM     33  H11 OAK d          39.131  24.186  32.565  0.00  0.00     0.209 HD
ENDBRANCH  29  32
ENDBRANCH   3  29
BRANCH   5  34
ATOM     34  O3  OAK d          34.752  26.506  32.425  0.00  0.00    -0.390 OA
ATOM     35  H15 OAK d          35.340  26.398  33.164  0.00  0.00     0.210 HD
ENDBRANCH   5  34
BRANCH   4  36
ATOM     36  O4  OAK d          37.581  26.130  32.066  0.00  0.00    -0.390 OA
ATOM     37  H13 OAK d          37.446  26.933  31.576  0.00  0.00     0.210 HD
ENDBRANCH   4  36
TORSDOF 7
ENDMDL
MODEL 4
REMARK VINA RESULT:      -7.0      1.675      2.953
REMARK  7 active torsions:
REMARK  status: ('A' for Active; 'I' for Inactive)
REMARK    1  A    between atoms: C8_6  and  C7_7 
REMARK       I    between atoms: C7_7  and  N1_9 
REMARK    2  A    between atoms: N1_9  and  C1_10 
REMARK    3  A    between atoms: C5_12  and  C6_13 
REMARK    4  A    between atoms: C6_13  and  O6_14 
REMARK    5  A    between atoms: C4_15  and  O4_16 
REMARK    6  A    between atoms: C3_17  and  O3_18 
REMARK    7  A    between atoms: C2_19  and  O2_20 
ROOT
ATOM      1  C1  OAK d          34.206  23.385  27.467  0.00  0.00     0.134 C 
ATOM      2  O5  OAK d          33.226  24.471  27.615  0.00  0.00    -0.354 OA
ATOM      3  C5  OAK d          32.127  24.349  26.708  0.00  0.00     0.088 C 
ATOM      4  C4  OAK d          31.394  23.011  26.979  0.00  0.00     0.089 C 
ATOM      5  C3  OAK d          32.344  21.807  26.864  0.00  0.00     0.091 C 
ATOM      6  C2  OAK d          33.584  22.007  27.751  0.00  0.00     0.104 C 
ATOM      7  H7  OAK d          34.584  23.393  26.434  0.00  0.00     0.122 H 
ATOM      8  H8  OAK d          32.493  24.345  25.670  0.00  0.00     0.090 H 
ATOM      9  H12 OAK d          30.978  23.037  27.997  0.00  0.00     0.091 H 
ATOM     10  H14 OAK d          32.668  21.709  25.818  0.00  0.00     0.091 H 
ATOM     11  H16 OAK d          33.269  21.975  28.805  0.00  0.00     0.093 H 
ENDROOT
BRANCH   1  12
ATOM     12  N1  OAK d          35.340  23.611  28.402  0.00  0.00    -0.328 N 
ATOM     13  C7  OAK d          35.106  24.121  29.608  0.00  0.00     0.253 C 
ATOM     14  O7  OAK d          33.989  24.425  30.020  0.00  0.00    -0.268 OA
ATOM     15  H6  OAK d          36.273  23.380  28.125  0.00  0.00     0.165 HD
BRANCH  13  16
ATOM     16  C8  OAK d          36.339  24.310  30.500  0.00  0.00     0.032 A 
ATOM     17  C9  OAK d          37.357  23.362  30.497  0.00  0.00    -0.068 A 
ATOM     18  C10 OAK d          38.476  23.528  31.312  0.00  0.00    -0.082 A 
ATOM     19  H1  OAK d          37.281  22.489  29.859  0.00  0.00     0.085 H 
ATOM     20  C11 OAK d          38.583  24.646  32.135  0.00  0.00    -0.083 A 
ATOM     21  H2  OAK d          39.265  22.784  31.305  0.00  0.00     0.083 H 
ATOM     22  C12 OAK d          37.563  25.600  32.141  0.00  0.00    -0.082 A 
ATOM     23  H3  OAK d          39.453  24.775  32.767  0.00  0.00     0.083 H 
ATOM     24  C13 OAK d          36.439  25.432  31.323  0.00  0.00    -0.068 A 
ATOM     25  H4  OAK d          37.641  26.470  32.782  0.00  0.00     0.083 H 
ATOM     26  H5  OAK d          35.648  26.173  31.328  0.00  0.00     0.085 H 
ENDBRANCH  13  16
ENDBRANCH   1  12
BRANCH   6  27
ATOM     27  O2  OAK d          34.550  20.965  27.535  0.00  0.00    -0.389 OA
ATOM     28  H17 OAK d          35.259  21.057  28.161  0.00  0.00     0.210 HD
ENDBRANCH   6  27
BRANCH   3  29
ATOM     29  C6  OAK d          31.244  25.591  26.929  0.00  0.00     0.043 C 
ATOM     30  H9  OAK d          30.398  25.327  27.579  0.00  0.00     0.078 H 
ATOM     31  H10 OAK d          30.864  25.947  25.959  0.00  0.00     0.078 H 
BRANCH  29  32
ATOM     32  O6  OAK d          32.013  26.626  27.546  0.00  0.00    -0.398 OA
ATOM     33  H11 OAK d          31.497  27.036  28.232  0.00  0.00     0.209 HD
ENDBRANCH  29  32
ENDBRANCH   3  29
BRANCH   5  34
ATOM     34  O3  OAK d          31.661  20.616  27.254  0.00  0.00    -0.390 OA
ATOM     35  H15 OAK d          30.795  20.606  26.864  0.00  0.00     0.210 HD
ENDBRANCH   5  34
BRANCH   4  36
ATOM     36  O4  OAK d          30.333  22.862  26.046  0.00  0.00    -0.390 OA
ATOM     37  H13 OAK d          29.867  22.054  26.224  0.00  0.00     0.210 HD
ENDBRANCH   4  36
TORSDOF 7
ENDMDL
MODEL 5
REMARK VINA RESULT:      -6.7      1.524      3.132
REMARK  7 active torsions:
REMARK  status: ('A' for Active; 'I' for Inactive)
REMARK    1  A    between atoms: C8_6  and  C7_7 
REMARK       I    between atoms: C7_7  and  N1_9 
REMARK    2  A    between atoms: N1_9  and  C1_10 
REMARK    3  A    between atoms: C5_12  and  C6_13 
REMARK    4  A    between atoms: C6_13  and  O6_14 
REMARK    5  A    between atoms: C4_15  and  O4_16 
REMARK    6  A    between atoms: C3_17  and  O3_18 
REMARK    7  A    between atoms: C2_19  and  O2_20 
ROOT
ATOM      1  C1  OAK d          33.332  22.134  27.793  0.00  0.00     0.134 C 
ATOM      2  O5  OAK d          32.350  23.047  27.190  0.00  0.00    -0.354 OA
ATOM      3  C5  OAK d          31.696  22.479  26.052  0.00  0.00     0.088 C 
ATOM      4  C4  OAK d          30.942  21.198  26.489  0.00  0.00     0.089 C 
ATOM      5  C3  OAK d          31.886  20.180  27.151  0.00  0.00     0.091 C 
ATOM      6  C2  OAK d          32.676  20.836  28.295  0.00  0.00     0.104 C 
ATOM      7  H7  OAK d          34.083  21.876  27.032  0.00  0.00     0.122 H 
ATOM      8  H8  OAK d          32.437  22.207  25.286  0.00  0.00     0.090 H 
ATOM      9  H12 OAK d          30.161  21.477  27.212  0.00  0.00     0.091 H 
ATOM     10  H14 OAK d          32.595  19.810  26.397  0.00  0.00     0.091 H 
ATOM     11  H16 OAK d          31.975  21.087  29.105  0.00  0.00     0.093 H 
ENDROOT
BRANCH   1  12
ATOM     12  N1  OAK d          34.006  22.812  28.931  0.00  0.00    -0.328 N 
ATOM     13  C7  OAK d          34.773  23.875  28.702  0.00  0.00     0.253 C 
ATOM     14  O7  OAK d          34.968  24.354  27.587  0.00  0.00    -0.268 OA
ATOM     15  H6  OAK d          33.883  22.472  29.863  0.00  0.00     0.165 HD
BRANCH  13  16
ATOM     16  C8  OAK d          35.418  24.507  29.941  0.00  0.00     0.032 A 
ATOM     17  C9  OAK d          34.624  25.043  30.949  0.00  0.00    -0.068 A 
ATOM     18  C10 OAK d          35.208  25.624  32.073  0.00  0.00    -0.082 A 
ATOM     19  H1  OAK d          33.544  25.008  30.861  0.00  0.00     0.085 H 
ATOM     20  C11 OAK d          36.594  25.673  32.195  0.00  0.00    -0.083 A 
ATOM     21  H2  OAK d          34.582  26.040  32.854  0.00  0.00     0.083 H 
ATOM     22  C12 OAK d          37.396  25.137  31.184  0.00  0.00    -0.082 A 
ATOM     23  H3  OAK d          37.049  26.123  33.069  0.00  0.00     0.083 H 
ATOM     24  C13 OAK d          36.808  24.554  30.056  0.00  0.00    -0.068 A 
ATOM     25  H4  OAK d          38.476  25.174  31.274  0.00  0.00     0.083 H 
ATOM     26  H5  OAK d          37.431  24.138  29.272  0.00  0.00     0.085 H 
ENDBRANCH  13  16
ENDBRANCH   1  12
BRANCH   6  27
ATOM     27  O2  OAK d          33.671  19.940  28.819  0.00  0.00    -0.389 OA
ATOM     28  H17 OAK d          33.559  19.081  28.430  0.00  0.00     0.210 HD
ENDBRANCH   6  27
BRANCH   3  29
ATOM     29  C6  OAK d          30.771  23.576  25.493  0.00  0.00     0.043 C 
ATOM     30  H9  OAK d          29.723  23.273  25.625  0.00  0.00     0.078 H 
ATOM     31  H10 OAK d          30.979  23.719  24.422  0.00  0.00     0.078 H 
BRANCH  29  32
ATOM     32  O6  OAK d          31.002  24.803  26.189  0.00  0.00    -0.398 OA
ATOM     33  H11 OAK d          30.188  25.106  26.574  0.00  0.00     0.209 HD
ENDBRANCH  29  32
ENDBRANCH   3  29
BRANCH   5  34
ATOM     34  O3  OAK d          31.129  19.080  27.659  0.00  0.00    -0.390 OA
ATOM     35  H15 OAK d          30.303  19.024  27.193  0.00  0.00     0.210 HD
ENDBRANCH   5  34
BRANCH   4  36
ATOM     36  O4  OAK d          30.334  20.603  25.352  0.00  0.00    -0.390 OA
ATOM     37  H13 OAK d          30.624  21.051  24.567  0.00  0.00     0.210 HD
ENDBRANCH   4  36
TORSDOF 7
ENDMDL
