MODEL 1
REMARK VINA RESULT:      -7.2      0.000      0.000
REMARK  9 active torsions:
REMARK  status: ('A' for Active; 'I' for Inactive)
REMARK       I    between atoms: N7_8  and  C9_9 
REMARK    1  A    between atoms: C9_9  and  C11_11 
REMARK    2  A    between atoms: C12_12  and  N19_20 
REMARK    3  A    between atoms: C13_13  and  O17_18 
REMARK    4  A    between atoms: O17_18  and  C18_19 
REMARK       I    between atoms: N19_20  and  C20_21 
REMARK    5  A    between atoms: C20_21  and  C22_23 
REMARK    6  A    between atoms: C25_26  and  C28_29 
REMARK    7  A    between atoms: C28_29  and  N29_30 
REMARK    8  A    between atoms: N29_30  and  C31_31 
REMARK    9  A    between atoms: N29_30  and  C32_32 
ROOT
ATOM      1  C11 XLD d           4.380   5.268  18.367  0.00  0.00     0.063 A 
ATOM      2  C12 XLD d           4.104   6.634  18.785  0.00  0.00     0.084 A 
ATOM      3  C13 XLD d           2.854   7.238  18.449  0.00  0.00     0.097 A 
ATOM      4  C14 XLD d           1.897   6.498  17.703  0.00  0.00    -0.028 A 
ATOM      5  C15 XLD d           2.177   5.175  17.294  0.00  0.00     0.037 A 
ATOM      6 CL2  XLD d           1.065   4.271  16.407  0.00  0.00    -0.084 Cl
ATOM      7  C16 XLD d           3.390   4.585  17.630  0.00  0.00    -0.044 A 
ATOM      8  H5  XLD d           0.946   6.952  17.447  0.00  0.00     0.090 H 
ATOM      9  H6  XLD d           3.582   3.565  17.314  0.00  0.00     0.087 H 
ENDROOT
BRANCH   2  10
ATOM     10  N19 XLD d           5.060   7.331  19.486  0.00  0.00    -0.319 N 
ATOM     11  C20 XLD d           6.087   8.066  18.965  0.00  0.00     0.264 C 
ATOM     12  O21 XLD d           6.193   8.106  17.708  0.00  0.00    -0.267 OA
ATOM     13  H10 XLD d           4.996   7.296  20.483  0.00  0.00     0.169 HD
BRANCH  11  14
ATOM     14  C22 XLD d           7.087   8.729  19.757  0.00  0.00     0.095 A 
ATOM     15  S23 XLD d           7.615  10.325  19.280  0.00  0.00    -0.094 SA
ATOM     16  C24 XLD d           8.721  10.353  20.589  0.00  0.00    -0.035 A 
ATOM     17  C25 XLD d           8.727   9.221  21.391  0.00  0.00    -0.011 A 
ATOM     18  H11 XLD d           9.376  11.202  20.779  0.00  0.00     0.096 H 
ATOM     19  C26 XLD d           7.777   8.287  20.919  0.00  0.00     0.065 A 
ATOM     20 CL3  XLD d           7.555   6.790  21.706  0.00  0.00    -0.082 Cl
BRANCH  17  21
ATOM     21  C28 XLD d           9.607   9.002  22.583  0.00  0.00     0.024 C 
ATOM     22  H12 XLD d          10.507   9.613  22.416  0.00  0.00     0.071 H 
ATOM     23  H13 XLD d           9.880   7.937  22.570  0.00  0.00     0.071 H 
BRANCH  21  24
ATOM     24  N29 XLD d           9.149   9.303  23.991  0.00  0.00    -0.346 N 
BRANCH  24  25
ATOM     25  C31 XLD d           7.699   9.152  24.297  0.00  0.00    -0.015 C 
ATOM     26  H14 XLD d           7.119   9.849  23.675  0.00  0.00     0.056 H 
ATOM     27  H15 XLD d           7.524   9.374  25.360  0.00  0.00     0.056 H 
ATOM     28  H16 XLD d           7.385   8.120  24.081  0.00  0.00     0.056 H 
ENDBRANCH  24  25
BRANCH  24  29
ATOM     29  C32 XLD d          10.001   8.753  24.982  0.00  0.00     0.239 A 
ATOM     30  N33 XLD d           9.560   8.011  26.025  0.00  0.00    -0.249 NA
ATOM     31  C34 XLD d          10.631   7.578  26.841  0.00  0.00     0.039 A 
ATOM     32  C35 XLD d          11.878   8.176  26.151  0.00  0.00     0.046 A 
ATOM     33  H17 XLD d          10.685   6.480  26.868  0.00  0.00     0.070 H 
ATOM     34  H18 XLD d          10.525   7.965  27.866  0.00  0.00     0.070 H 
ATOM     35  O36 XLD d          11.345   8.873  25.023  0.00  0.00    -0.319 OA
ATOM     36  H19 XLD d          12.567   7.382  25.830  0.00  0.00     0.077 H 
ATOM     37  H20 XLD d          12.405   8.868  26.825  0.00  0.00     0.077 H 
ENDBRANCH  24  29
ENDBRANCH  21  24
ENDBRANCH  17  21
ENDBRANCH  11  14
ENDBRANCH   2  10
BRANCH   1  38
ATOM     38  C9  XLD d           5.600   4.544  18.641  0.00  0.00     0.259 C 
ATOM     39  N7  XLD d           6.170   3.787  17.644  0.00  0.00    -0.307 N 
ATOM     40  C1  XLD d           7.286   3.003  17.699  0.00  0.00     0.130 A 
ATOM     41  H4  XLD d           5.704   3.815  16.760  0.00  0.00     0.170 HD
ATOM     42  N2  XLD d           7.706   2.421  18.868  0.00  0.00    -0.242 NA
ATOM     43  C6  XLD d           8.008   2.741  16.509  0.00  0.00    -0.037 A 
ATOM     44  C3  XLD d           8.786   1.640  18.958  0.00  0.00     0.025 A 
ATOM     45  C4  XLD d           9.566   1.364  17.808  0.00  0.00     0.051 A 
ATOM     46  H1  XLD d           9.065   1.215  19.915  0.00  0.00     0.117 H 
ATOM     47 CL1  XLD d          11.060   0.438  17.932  0.00  0.00    -0.083 Cl
ATOM     48  C5  XLD d           9.149   1.918  16.569  0.00  0.00    -0.057 A 
ATOM     49  H2  XLD d           9.710   1.707  15.666  0.00  0.00     0.086 H 
ATOM     50  H3  XLD d           7.687   3.168  15.566  0.00  0.00     0.089 H 
ATOM     51  O10 XLD d           6.114   4.590  19.792  0.00  0.00    -0.267 OA
ENDBRANCH   1  38
BRANCH   3  52
ATOM     52  O17 XLD d           2.621   8.518  18.858  0.00  0.00    -0.354 OA
BRANCH  52  53
ATOM     53  C18 XLD d           2.736   9.737  18.130  0.00  0.00     0.010 C 
ATOM     54  H7  XLD d           2.859   9.515  17.060  0.00  0.00     0.066 H 
ATOM     55  H8  XLD d           3.610  10.298  18.492  0.00  0.00     0.066 H 
ATOM     56  H9  XLD d           1.827  10.338  18.278  0.00  0.00     0.066 H 
ENDBRANCH  52  53
ENDBRANCH   3  52
TORSDOF 9
ENDMDL
MODEL 2
REMARK VINA RESULT:      -7.2      1.886      2.167
REMARK  9 active torsions:
REMARK  status: ('A' for Active; 'I' for Inactive)
REMARK       I    between atoms: N7_8  and  C9_9 
REMARK    1  A    between atoms: C9_9  and  C11_11 
REMARK    2  A    between atoms: C12_12  and  N19_20 
REMARK    3  A    between atoms: C13_13  and  O17_18 
REMARK    4  A    between atoms: O17_18  and  C18_19 
REMARK       I    between atoms: N19_20  and  C20_21 
REMARK    5  A    between atoms: C20_21  and  C22_23 
REMARK    6  A    between atoms: C25_26  and  C28_29 
REMARK    7  A    between atoms: C28_29  and  N29_30 
REMARK    8  A    between atoms: N29_30  and  C31_31 
REMARK    9  A    between atoms: N29_30  and  C32_32 
ROOT
ATOM      1  C11 XLD d           3.489   5.625  18.815  0.00  0.00     0.063 A 
ATOM      2  C12 XLD d           2.888   6.605  19.709  0.00  0.00     0.084 A 
ATOM      3  C13 XLD d           1.703   7.295  19.308  0.00  0.00     0.097 A 
ATOM      4  C14 XLD d           1.128   7.020  18.037  0.00  0.00    -0.028 A 
ATOM      5  C15 XLD d           1.723   6.073  17.173  0.00  0.00     0.037 A 
ATOM      6 CL2  XLD d           1.068   5.726  15.660  0.00  0.00    -0.084 Cl
ATOM      7  C16 XLD d           2.871   5.396  17.568  0.00  0.00    -0.044 A 
ATOM      8  H5  XLD d           0.228   7.540  17.730  0.00  0.00     0.090 H 
ATOM      9  H6  XLD d           3.307   4.666  16.894  0.00  0.00     0.087 H 
ENDROOT
BRANCH   2  10
ATOM     10  N19 XLD d           3.482   6.865  20.921  0.00  0.00    -0.319 N 
ATOM     11  C20 XLD d           4.392   7.847  21.197  0.00  0.00     0.264 C 
ATOM     12  O21 XLD d           4.747   8.592  20.243  0.00  0.00    -0.267 OA
ATOM     13  H10 XLD d           3.219   6.272  21.682  0.00  0.00     0.169 HD
BRANCH  11  14
ATOM     14  C22 XLD d           5.015   8.030  22.478  0.00  0.00     0.095 A 
ATOM     15  S23 XLD d           4.073   8.715  23.781  0.00  0.00    -0.094 SA
ATOM     16  C24 XLD d           5.438   8.637  24.814  0.00  0.00    -0.035 A 
ATOM     17  C25 XLD d           6.590   8.115  24.244  0.00  0.00    -0.011 A 
ATOM     18  H11 XLD d           5.404   8.973  25.849  0.00  0.00     0.096 H 
ATOM     19  C26 XLD d           6.345   7.754  22.899  0.00  0.00     0.065 A 
ATOM     20 CL3  XLD d           7.580   7.082  21.934  0.00  0.00    -0.082 Cl
BRANCH  17  21
ATOM     21  C28 XLD d           7.908   7.955  24.935  0.00  0.00     0.024 C 
ATOM     22  H12 XLD d           8.093   6.871  24.995  0.00  0.00     0.071 H 
ATOM     23  H13 XLD d           7.775   8.360  25.948  0.00  0.00     0.071 H 
BRANCH  21  24
ATOM     24  N29 XLD d           9.181   8.570  24.400  0.00  0.00    -0.346 N 
BRANCH  24  25
ATOM     25  C31 XLD d           9.106   9.952  23.851  0.00  0.00    -0.015 C 
ATOM     26  H14 XLD d           8.367   9.984  23.038  0.00  0.00     0.056 H 
ATOM     27  H15 XLD d          10.093  10.246  23.462  0.00  0.00     0.056 H 
ATOM     28  H16 XLD d           8.804  10.648  24.649  0.00  0.00     0.056 H 
ENDBRANCH  24  25
BRANCH  24  29
ATOM     29  C32 XLD d          10.300   8.351  25.242  0.00  0.00     0.239 A 
ATOM     30  N33 XLD d          10.208   7.904  26.516  0.00  0.00    -0.249 NA
ATOM     31  C34 XLD d          11.484   7.761  27.109  0.00  0.00     0.039 A 
ATOM     32  C35 XLD d          12.455   8.204  25.991  0.00  0.00     0.046 A 
ATOM     33  H17 XLD d          11.667   6.715  27.398  0.00  0.00     0.070 H 
ATOM     34  H18 XLD d          11.581   8.408  27.994  0.00  0.00     0.070 H 
ATOM     35  O36 XLD d          11.593   8.539  24.901  0.00  0.00    -0.319 OA
ATOM     36  H19 XLD d          13.134   7.384  25.714  0.00  0.00     0.077 H 
ATOM     37  H20 XLD d          13.044   9.077  26.307  0.00  0.00     0.077 H 
ENDBRANCH  24  29
ENDBRANCH  21  24
ENDBRANCH  17  21
ENDBRANCH  11  14
ENDBRANCH   2  10
BRANCH   1  38
ATOM     38  C9  XLD d           4.682   4.863  19.098  0.00  0.00     0.259 C 
ATOM     39  N7  XLD d           5.409   4.341  18.054  0.00  0.00    -0.307 N 
ATOM     40  C1  XLD d           6.532   3.566  18.098  0.00  0.00     0.130 A 
ATOM     41  H4  XLD d           5.069   4.558  17.139  0.00  0.00     0.170 HD
ATOM     42  N2  XLD d           6.806   2.746  19.163  0.00  0.00    -0.242 NA
ATOM     43  C6  XLD d           7.420   3.570  16.994  0.00  0.00    -0.037 A 
ATOM     44  C3  XLD d           7.888   1.966  19.236  0.00  0.00     0.025 A 
ATOM     45  C4  XLD d           8.829   1.948  18.177  0.00  0.00     0.051 A 
ATOM     46  H1  XLD d           8.047   1.345  20.110  0.00  0.00     0.117 H 
ATOM     47 CL1  XLD d          10.320   1.020  18.311  0.00  0.00    -0.083 Cl
ATOM     48  C5  XLD d           8.569   2.756  17.039  0.00  0.00    -0.057 A 
ATOM     49  H2  XLD d           9.256   2.746  16.200  0.00  0.00     0.086 H 
ATOM     50  H3  XLD d           7.219   4.190  16.128  0.00  0.00     0.089 H 
ATOM     51  O10 XLD d           5.030   4.659  20.293  0.00  0.00    -0.267 OA
ENDBRANCH   1  38
BRANCH   3  52
ATOM     52  O17 XLD d           1.160   8.204  20.167  0.00  0.00    -0.354 OA
BRANCH  52  53
ATOM     53  C18 XLD d           1.203   9.627  20.127  0.00  0.00     0.010 C 
ATOM     54  H7  XLD d           0.448   9.997  19.419  0.00  0.00     0.066 H 
ATOM     55  H8  XLD d           2.202   9.954  19.803  0.00  0.00     0.066 H 
ATOM     56  H9  XLD d           0.993  10.028  21.129  0.00  0.00     0.066 H 
ENDBRANCH  52  53
ENDBRANCH   3  52
TORSDOF 9
ENDMDL
MODEL 3
REMARK VINA RESULT:      -6.5      1.902      2.260
REMARK  9 active torsions:
REMARK  status: ('A' for Active; 'I' for Inactive)
REMARK       I    between atoms: N7_8  and  C9_9 
REMARK    1  A    between atoms: C9_9  and  C11_11 
REMARK    2  A    between atoms: C12_12  and  N19_20 
REMARK    3  A    between atoms: C13_13  and  O17_18 
REMARK    4  A    between atoms: O17_18  and  C18_19 
REMARK       I    between atoms: N19_20  and  C20_21 
REMARK    5  A    between atoms: C20_21  and  C22_23 
REMARK    6  A    between atoms: C25_26  and  C28_29 
REMARK    7  A    between atoms: C28_29  and  N29_30 
REMARK    8  A    between atoms: N29_30  and  C31_31 
REMARK    9  A    between atoms: N29_30  and  C32_32 
ROOT
ATOM      1  C11 XLD d           4.570   5.441  20.280  0.00  0.00     0.063 A 
ATOM      2  C12 XLD d           4.477   6.705  20.996  0.00  0.00     0.084 A 
ATOM      3  C13 XLD d           3.248   7.433  20.990  0.00  0.00     0.097 A 
ATOM      4  C14 XLD d           2.131   6.916  20.278  0.00  0.00    -0.028 A 
ATOM      5  C15 XLD d           2.233   5.693  19.578  0.00  0.00     0.037 A 
ATOM      6 CL2  XLD d           0.929   5.055  18.723  0.00  0.00    -0.084 Cl
ATOM      7  C16 XLD d           3.427   4.980  19.592  0.00  0.00    -0.044 A 
ATOM      8  H5  XLD d           1.196   7.464  20.272  0.00  0.00     0.090 H 
ATOM      9  H6  XLD d           3.482   4.039  19.057  0.00  0.00     0.087 H 
ENDROOT
BRANCH   2  10
ATOM     10  N19 XLD d           5.582   7.189  21.656  0.00  0.00    -0.319 N 
ATOM     11  C20 XLD d           6.422   8.181  21.234  0.00  0.00     0.264 C 
ATOM     12  O21 XLD d           6.180   8.708  20.114  0.00  0.00    -0.267 OA
ATOM     13  H10 XLD d           5.794   6.769  22.539  0.00  0.00     0.169 HD
BRANCH  11  14
ATOM     14  C22 XLD d           7.593   8.603  21.950  0.00  0.00     0.095 A 
ATOM     15  S23 XLD d           9.098   8.769  21.078  0.00  0.00    -0.094 SA
ATOM     16  C24 XLD d           9.895   9.215  22.529  0.00  0.00    -0.035 A 
ATOM     17  C25 XLD d           9.094   9.255  23.661  0.00  0.00    -0.011 A 
ATOM     18  H11 XLD d          10.957   9.450  22.561  0.00  0.00     0.096 H 
ATOM     19  C26 XLD d           7.764   8.914  23.328  0.00  0.00     0.065 A 
ATOM     20 CL3  XLD d           6.544   8.876  24.520  0.00  0.00    -0.082 Cl
BRANCH  17  21
ATOM     21  C28 XLD d           9.556   9.604  25.042  0.00  0.00     0.024 C 
ATOM     22  H12 XLD d           8.755  10.210  25.490  0.00  0.00     0.071 H 
ATOM     23  H13 XLD d          10.457  10.222  24.917  0.00  0.00     0.071 H 
BRANCH  21  24
ATOM     24  N29 XLD d           9.909   8.549  26.067  0.00  0.00    -0.346 N 
BRANCH  24  25
ATOM     25  C31 XLD d           9.045   7.338  26.140  0.00  0.00    -0.015 C 
ATOM     26  H14 XLD d           9.584   6.478  25.715  0.00  0.00     0.056 H 
ATOM     27  H15 XLD d           8.121   7.511  25.569  0.00  0.00     0.056 H 
ATOM     28  H16 XLD d           8.794   7.130  27.191  0.00  0.00     0.056 H 
ENDBRANCH  24  25
BRANCH  24  29
ATOM     29  C32 XLD d          11.296   8.264  26.116  0.00  0.00     0.239 A 
ATOM     30  N33 XLD d          11.930   7.796  27.216  0.00  0.00    -0.249 NA
ATOM     31  C34 XLD d          13.306   7.584  26.971  0.00  0.00     0.039 A 
ATOM     32  C35 XLD d          13.480   8.005  25.494  0.00  0.00     0.046 A 
ATOM     33  H17 XLD d          13.571   6.526  27.112  0.00  0.00     0.070 H 
ATOM     34  H18 XLD d          13.925   8.209  27.633  0.00  0.00     0.070 H 
ATOM     35  O36 XLD d          12.167   8.401  25.093  0.00  0.00    -0.319 OA
ATOM     36  H19 XLD d          13.837   7.161  24.885  0.00  0.00     0.077 H 
ATOM     37  H20 XLD d          14.185   8.844  25.406  0.00  0.00     0.077 H 
ENDBRANCH  24  29
ENDBRANCH  21  24
ENDBRANCH  17  21
ENDBRANCH  11  14
ENDBRANCH   2  10
BRANCH   1  38
ATOM     38  C9  XLD d           5.750   4.611  20.206  0.00  0.00     0.259 C 
ATOM     39  N7  XLD d           6.164   4.140  18.982  0.00  0.00    -0.307 N 
ATOM     40  C1  XLD d           7.216   3.318  18.695  0.00  0.00     0.130 A 
ATOM     41  H4  XLD d           5.622   4.440  18.197  0.00  0.00     0.170 HD
ATOM     42  N2  XLD d           7.696   2.410  19.604  0.00  0.00    -0.242 NA
ATOM     43  C6  XLD d           7.803   3.369  17.407  0.00  0.00    -0.037 A 
ATOM     44  C3  XLD d           8.715   1.583  19.355  0.00  0.00     0.025 A 
ATOM     45  C4  XLD d           9.363   1.607  18.095  0.00  0.00     0.051 A 
ATOM     46  H1  XLD d           9.048   0.891  20.121  0.00  0.00     0.117 H 
ATOM     47 CL1  XLD d          10.784   0.611  17.793  0.00  0.00    -0.083 Cl
ATOM     48  C5  XLD d           8.877   2.508  17.111  0.00  0.00    -0.057 A 
ATOM     49  H2  XLD d           9.335   2.533  16.129  0.00  0.00     0.086 H 
ATOM     50  H3  XLD d           7.431   4.060  16.660  0.00  0.00     0.089 H 
ATOM     51  O10 XLD d           6.369   4.304  21.261  0.00  0.00    -0.267 OA
ENDBRANCH   1  38
BRANCH   3  52
ATOM     52  O17 XLD d           3.189   8.611  21.673  0.00  0.00    -0.354 OA
BRANCH  52  53
ATOM     53  C18 XLD d           2.800   8.859  23.021  0.00  0.00     0.010 C 
ATOM     54  H7  XLD d           3.166   9.848  23.333  0.00  0.00     0.066 H 
ATOM     55  H8  XLD d           3.231   8.086  23.675  0.00  0.00     0.066 H 
ATOM     56  H9  XLD d           1.703   8.833  23.097  0.00  0.00     0.066 H 
ENDBRANCH  52  53
ENDBRANCH   3  52
TORSDOF 9
ENDMDL
MODEL 4
REMARK VINA RESULT:      -5.8      3.382      5.250
REMARK  9 active torsions:
REMARK  status: ('A' for Active; 'I' for Inactive)
REMARK       I    between atoms: N7_8  and  C9_9 
REMARK    1  A    between atoms: C9_9  and  C11_11 
REMARK    2  A    between atoms: C12_12  and  N19_20 
REMARK    3  A    between atoms: C13_13  and  O17_18 
REMARK    4  A    between atoms: O17_18  and  C18_19 
REMARK       I    between atoms: N19_20  and  C20_21 
REMARK    5  A    between atoms: C20_21  and  C22_23 
REMARK    6  A    between atoms: C25_26  and  C28_29 
REMARK    7  A    between atoms: C28_29  and  N29_30 
REMARK    8  A    between atoms: N29_30  and  C31_31 
REMARK    9  A    between atoms: N29_30  and  C32_32 
ROOT
ATOM      1  C11 XLD d           4.204   4.063  19.480  0.00  0.00     0.063 A 
ATOM      2  C12 XLD d           4.317   3.812  20.910  0.00  0.00     0.084 A 
ATOM      3  C13 XLD d           3.893   2.557  21.443  0.00  0.00     0.097 A 
ATOM      4  C14 XLD d           3.359   1.569  20.572  0.00  0.00    -0.028 A 
ATOM      5  C15 XLD d           3.245   1.824  19.186  0.00  0.00     0.037 A 
ATOM      6 CL2  XLD d           2.614   0.676  18.127  0.00  0.00    -0.084 Cl
ATOM      7  C16 XLD d           3.666   3.044  18.666  0.00  0.00    -0.044 A 
ATOM      8  H5  XLD d           3.038   0.615  20.972  0.00  0.00     0.090 H 
ATOM      9  H6  XLD d           3.579   3.216  17.600  0.00  0.00     0.087 H 
ENDROOT
BRANCH   2  10
ATOM     10  N19 XLD d           4.816   4.797  21.729  0.00  0.00    -0.319 N 
ATOM     11  C20 XLD d           4.105   5.774  22.366  0.00  0.00     0.264 C 
ATOM     12  O21 XLD d           2.858   5.799  22.179  0.00  0.00    -0.267 OA
ATOM     13  H10 XLD d           5.806   4.797  21.874  0.00  0.00     0.169 HD
BRANCH  11  14
ATOM     14  C22 XLD d           4.698   6.808  23.169  0.00  0.00     0.095 A 
ATOM     15  S23 XLD d           3.747   7.532  24.444  0.00  0.00    -0.094 SA
ATOM     16  C24 XLD d           5.049   8.580  24.825  0.00  0.00    -0.035 A 
ATOM     17  C25 XLD d           6.187   8.425  24.047  0.00  0.00    -0.011 A 
ATOM     18  H11 XLD d           4.987   9.317  25.624  0.00  0.00     0.096 H 
ATOM     19  C26 XLD d           5.991   7.397  23.098  0.00  0.00     0.065 A 
ATOM     20 CL3  XLD d           7.222   6.976  21.995  0.00  0.00    -0.082 Cl
BRANCH  17  21
ATOM     21  C28 XLD d           7.446   9.226  24.178  0.00  0.00     0.024 C 
ATOM     22  H12 XLD d           7.521   9.508  25.239  0.00  0.00     0.071 H 
ATOM     23  H13 XLD d           7.300  10.129  23.568  0.00  0.00     0.071 H 
BRANCH  21  24
ATOM     24  N29 XLD d           8.799   8.672  23.792  0.00  0.00    -0.346 N 
BRANCH  24  25
ATOM     25  C31 XLD d           9.523   9.329  22.669  0.00  0.00    -0.015 C 
ATOM     26  H14 XLD d           9.920   8.561  21.990  0.00  0.00     0.056 H 
ATOM     27  H15 XLD d          10.353   9.931  23.069  0.00  0.00     0.056 H 
ATOM     28  H16 XLD d           8.829   9.982  22.118  0.00  0.00     0.056 H 
ENDBRANCH  24  25
BRANCH  24  29
ATOM     29  C32 XLD d           9.622   8.387  24.911  0.00  0.00     0.239 A 
ATOM     30  N33 XLD d           9.253   7.576  25.929  0.00  0.00    -0.249 NA
ATOM     31  C34 XLD d          10.278   7.459  26.896  0.00  0.00     0.039 A 
ATOM     32  C35 XLD d          11.407   8.355  26.337  0.00  0.00     0.046 A 
ATOM     33  H17 XLD d          10.613   6.416  26.989  0.00  0.00     0.070 H 
ATOM     34  H18 XLD d           9.936   7.824  27.877  0.00  0.00     0.070 H 
ATOM     35  O36 XLD d          10.869   8.862  25.115  0.00  0.00    -0.319 OA
ATOM     36  H19 XLD d          12.317   7.766  26.149  0.00  0.00     0.077 H 
ATOM     37  H20 XLD d          11.638   9.174  27.033  0.00  0.00     0.077 H 
ENDBRANCH  24  29
ENDBRANCH  21  24
ENDBRANCH  17  21
ENDBRANCH  11  14
ENDBRANCH   2  10
BRANCH   1  38
ATOM     38  C9  XLD d           4.594   5.285  18.816  0.00  0.00     0.259 C 
ATOM     39  N7  XLD d           3.816   5.770  17.791  0.00  0.00    -0.307 N 
ATOM     40  C1  XLD d           4.020   6.872  17.011  0.00  0.00     0.130 A 
ATOM     41  H4  XLD d           2.989   5.244  17.589  0.00  0.00     0.170 HD
ATOM     42  N2  XLD d           5.277   7.362  16.762  0.00  0.00    -0.242 NA
ATOM     43  C6  XLD d           2.908   7.505  16.402  0.00  0.00    -0.037 A 
ATOM     44  C3  XLD d           5.515   8.430  15.997  0.00  0.00     0.025 A 
ATOM     45  C4  XLD d           4.443   9.124  15.384  0.00  0.00     0.051 A 
ATOM     46  H1  XLD d           6.534   8.767  15.845  0.00  0.00     0.117 H 
ATOM     47 CL1  XLD d           4.730  10.604  14.473  0.00  0.00    -0.083 Cl
ATOM     48  C5  XLD d           3.127   8.632  15.586  0.00  0.00    -0.057 A 
ATOM     49  H2  XLD d           2.286   9.125  15.111  0.00  0.00     0.086 H 
ATOM     50  H3  XLD d           1.905   7.128  16.561  0.00  0.00     0.089 H 
ATOM     51  O10 XLD d           5.652   5.878  19.161  0.00  0.00    -0.267 OA
ENDBRANCH   1  38
BRANCH   3  52
ATOM     52  O17 XLD d           4.016   2.348  22.785  0.00  0.00    -0.354 OA
BRANCH  52  53
ATOM     53  C18 XLD d           3.015   2.358  23.799  0.00  0.00     0.010 C 
ATOM     54  H7  XLD d           2.412   1.440  23.728  0.00  0.00     0.066 H 
ATOM     55  H8  XLD d           2.365   3.235  23.664  0.00  0.00     0.066 H 
ATOM     56  H9  XLD d           3.495   2.405  24.787  0.00  0.00     0.066 H 
ENDBRANCH  52  53
ENDBRANCH   3  52
TORSDOF 9
ENDMDL
MODEL 5
REMARK VINA RESULT:      -5.6      3.002      7.366
REMARK  9 active torsions:
REMARK  status: ('A' for Active; 'I' for Inactive)
REMARK       I    between atoms: N7_8  and  C9_9 
REMARK    1  A    between atoms: C9_9  and  C11_11 
REMARK    2  A    between atoms: C12_12  and  N19_20 
REMARK    3  A    between atoms: C13_13  and  O17_18 
REMARK    4  A    between atoms: O17_18  and  C18_19 
REMARK       I    between atoms: N19_20  and  C20_21 
REMARK    5  A    between atoms: C20_21  and  C22_23 
REMARK    6  A    between atoms: C25_26  and  C28_29 
REMARK    7  A    between atoms: C28_29  and  N29_30 
REMARK    8  A    between atoms: N29_30  and  C31_31 
REMARK    9  A    between atoms: N29_30  and  C32_32 
ROOT
ATOM      1  C11 XLD d           7.551   3.637  18.603  0.00  0.00     0.063 A 
ATOM      2  C12 XLD d           6.560   3.362  17.573  0.00  0.00     0.084 A 
ATOM      3  C13 XLD d           6.797   2.323  16.621  0.00  0.00     0.097 A 
ATOM      4  C14 XLD d           8.004   1.576  16.687  0.00  0.00    -0.028 A 
ATOM      5  C15 XLD d           8.965   1.855  17.685  0.00  0.00     0.037 A 
ATOM      6 CL2  XLD d          10.407   0.989  17.789  0.00  0.00    -0.084 Cl
ATOM      7  C16 XLD d           8.729   2.860  18.617  0.00  0.00    -0.044 A 
ATOM      8  H5  XLD d           8.189   0.786  15.968  0.00  0.00     0.090 H 
ATOM      9  H6  XLD d           9.474   3.052  19.380  0.00  0.00     0.087 H 
ENDROOT
BRANCH   2  10
ATOM     10  N19 XLD d           5.413   4.118  17.523  0.00  0.00    -0.319 N 
ATOM     11  C20 XLD d           5.226   5.281  16.829  0.00  0.00     0.264 C 
ATOM     12  O21 XLD d           6.206   5.729  16.173  0.00  0.00    -0.267 OA
ATOM     13  H10 XLD d           4.633   3.782  18.050  0.00  0.00     0.169 HD
BRANCH  11  14
ATOM     14  C22 XLD d           4.015   6.053  16.862  0.00  0.00     0.095 A 
ATOM     15  S23 XLD d           3.172   6.359  15.362  0.00  0.00    -0.094 SA
ATOM     16  C24 XLD d           1.998   7.280  16.205  0.00  0.00    -0.035 A 
ATOM     17  C25 XLD d           2.189   7.379  17.576  0.00  0.00    -0.011 A 
ATOM     18  H11 XLD d           1.159   7.755  15.700  0.00  0.00     0.096 H 
ATOM     19  C26 XLD d           3.345   6.663  17.959  0.00  0.00     0.065 A 
ATOM     20 CL3  XLD d           3.839   6.602  19.590  0.00  0.00    -0.082 Cl
BRANCH  17  21
ATOM     21  C28 XLD d           1.310   8.134  18.525  0.00  0.00     0.024 C 
ATOM     22  H12 XLD d           1.194   7.493  19.412  0.00  0.00     0.071 H 
ATOM     23  H13 XLD d           0.338   8.243  18.022  0.00  0.00     0.071 H 
BRANCH  21  24
ATOM     24  N29 XLD d           1.671   9.508  19.042  0.00  0.00    -0.346 N 
BRANCH  24  25
ATOM     25  C31 XLD d           1.319   9.833  20.453  0.00  0.00    -0.015 C 
ATOM     26  H14 XLD d           2.122   9.486  21.120  0.00  0.00     0.056 H 
ATOM     27  H15 XLD d           0.377   9.331  20.720  0.00  0.00     0.056 H 
ATOM     28  H16 XLD d           1.198  10.921  20.559  0.00  0.00     0.056 H 
ENDBRANCH  24  25
BRANCH  24  29
ATOM     29  C32 XLD d           2.978   9.914  18.674  0.00  0.00     0.239 A 
ATOM     30  N33 XLD d           4.017   9.985  19.540  0.00  0.00    -0.249 NA
ATOM     31  C34 XLD d           5.203  10.401  18.893  0.00  0.00     0.039 A 
ATOM     32  C35 XLD d           4.764  10.603  17.424  0.00  0.00     0.046 A 
ATOM     33  H17 XLD d           5.982   9.628  18.967  0.00  0.00     0.070 H 
ATOM     34  H18 XLD d           5.577  11.341  19.324  0.00  0.00     0.070 H 
ATOM     35  O36 XLD d           3.374  10.269  17.433  0.00  0.00    -0.319 OA
ATOM     36  H19 XLD d           5.322   9.935  16.752  0.00  0.00     0.077 H 
ATOM     37  H20 XLD d           4.913  11.647  17.112  0.00  0.00     0.077 H 
ENDBRANCH  24  29
ENDBRANCH  21  24
ENDBRANCH  17  21
ENDBRANCH  11  14
ENDBRANCH   2  10
BRANCH   1  38
ATOM     38  C9  XLD d           7.434   4.655  19.621  0.00  0.00     0.259 C 
ATOM     39  N7  XLD d           8.247   5.762  19.559  0.00  0.00    -0.307 N 
ATOM     40  C1  XLD d           8.328   6.811  20.430  0.00  0.00     0.130 A 
ATOM     41  H4  XLD d           8.862   5.804  18.772  0.00  0.00     0.170 HD
ATOM     42  N2  XLD d           8.012   6.679  21.758  0.00  0.00    -0.242 NA
ATOM     43  C6  XLD d           8.796   8.064  19.962  0.00  0.00    -0.037 A 
ATOM     44  C3  XLD d           8.089   7.679  22.639  0.00  0.00     0.025 A 
ATOM     45  C4  XLD d           8.521   8.963  22.226  0.00  0.00     0.051 A 
ATOM     46  H1  XLD d           7.819   7.507  23.675  0.00  0.00     0.117 H 
ATOM     47 CL1  XLD d           8.512  10.322  23.348  0.00  0.00    -0.083 Cl
ATOM     48  C5  XLD d           8.892   9.139  20.867  0.00  0.00    -0.057 A 
ATOM     49  H2  XLD d           9.251  10.103  20.524  0.00  0.00     0.086 H 
ATOM     50  H3  XLD d           9.075   8.194  18.923  0.00  0.00     0.089 H 
ATOM     51  O10 XLD d           6.612   4.508  20.566  0.00  0.00    -0.267 OA
ENDBRANCH   1  38
BRANCH   3  52
ATOM     52  O17 XLD d           5.849   2.085  15.671  0.00  0.00    -0.354 OA
BRANCH  52  53
ATOM     53  C18 XLD d           4.753   1.176  15.693  0.00  0.00     0.010 C 
ATOM     54  H7  XLD d           4.048   1.431  14.888  0.00  0.00     0.066 H 
ATOM     55  H8  XLD d           4.241   1.242  16.664  0.00  0.00     0.066 H 
ATOM     56  H9  XLD d           5.124   0.151  15.542  0.00  0.00     0.066 H 
ENDBRANCH  52  53
ENDBRANCH   3  52
TORSDOF 9
ENDMDL
MODEL 6
REMARK VINA RESULT:      -5.5      3.596      8.193
REMARK  9 active torsions:
REMARK  status: ('A' for Active; 'I' for Inactive)
REMARK       I    between atoms: N7_8  and  C9_9 
REMARK    1  A    between atoms: C9_9  and  C11_11 
REMARK    2  A    between atoms: C12_12  and  N19_20 
REMARK    3  A    between atoms: C13_13  and  O17_18 
REMARK    4  A    between atoms: O17_18  and  C18_19 
REMARK       I    between atoms: N19_20  and  C20_21 
REMARK    5  A    between atoms: C20_21  and  C22_23 
REMARK    6  A    between atoms: C25_26  and  C28_29 
REMARK    7  A    between atoms: C28_29  and  N29_30 
REMARK    8  A    between atoms: N29_30  and  C31_31 
REMARK    9  A    between atoms: N29_30  and  C32_32 
ROOT
ATOM      1  C11 XLD d           7.118   7.606  21.776  0.00  0.00     0.063 A 
ATOM      2  C12 XLD d           7.090   8.116  20.413  0.00  0.00     0.084 A 
ATOM      3  C13 XLD d           8.083   9.051  19.988  0.00  0.00     0.097 A 
ATOM      4  C14 XLD d           9.083   9.477  20.905  0.00  0.00    -0.028 A 
ATOM      5  C15 XLD d           9.097   8.983  22.229  0.00  0.00     0.037 A 
ATOM      6 CL2  XLD d          10.266   9.469  23.340  0.00  0.00    -0.084 Cl
ATOM      7  C16 XLD d           8.135   8.066  22.639  0.00  0.00    -0.044 A 
ATOM      8  H5  XLD d           9.839  10.185  20.586  0.00  0.00     0.090 H 
ATOM      9  H6  XLD d           8.169   7.691  23.656  0.00  0.00     0.087 H 
ENDROOT
BRANCH   2  10
ATOM     10  N19 XLD d           6.097   7.702  19.558  0.00  0.00    -0.319 N 
ATOM     11  C20 XLD d           4.822   8.189  19.483  0.00  0.00     0.264 C 
ATOM     12  O21 XLD d           4.503   9.107  20.288  0.00  0.00    -0.267 OA
ATOM     13  H10 XLD d           6.332   6.966  18.924  0.00  0.00     0.169 HD
BRANCH  11  14
ATOM     14  C22 XLD d           3.814   7.674  18.599  0.00  0.00     0.095 A 
ATOM     15  S23 XLD d           2.808   8.801  17.721  0.00  0.00    -0.094 SA
ATOM     16  C24 XLD d           1.947   7.494  17.021  0.00  0.00    -0.035 A 
ATOM     17  C25 XLD d           2.369   6.229  17.402  0.00  0.00    -0.011 A 
ATOM     18  H11 XLD d           1.125   7.647  16.324  0.00  0.00     0.096 H 
ATOM     19  C26 XLD d           3.453   6.329  18.304  0.00  0.00     0.065 A 
ATOM     20 CL3  XLD d           4.188   4.932  18.950  0.00  0.00    -0.082 Cl
BRANCH  17  21
ATOM     21  C28 XLD d           1.773   4.936  16.939  0.00  0.00     0.024 C 
ATOM     22  H12 XLD d           0.682   5.079  16.954  0.00  0.00     0.071 H 
ATOM     23  H13 XLD d           2.054   4.183  17.689  0.00  0.00     0.071 H 
BRANCH  21  24
ATOM     24  N29 XLD d           2.100   4.331  15.593  0.00  0.00    -0.346 N 
BRANCH  24  25
ATOM     25  C31 XLD d           1.407   4.885  14.396  0.00  0.00    -0.015 C 
ATOM     26  H14 XLD d           0.894   5.819  14.670  0.00  0.00     0.056 H 
ATOM     27  H15 XLD d           0.670   4.155  14.029  0.00  0.00     0.056 H 
ATOM     28  H16 XLD d           2.145   5.091  13.607  0.00  0.00     0.056 H 
ENDBRANCH  24  25
BRANCH  24  29
ATOM     29  C32 XLD d           3.489   4.122  15.400  0.00  0.00     0.239 A 
ATOM     30  N33 XLD d           4.280   4.943  14.670  0.00  0.00    -0.249 NA
ATOM     31  C34 XLD d           5.623   4.501  14.667  0.00  0.00     0.039 A 
ATOM     32  C35 XLD d           5.584   3.219  15.530  0.00  0.00     0.046 A 
ATOM     33  H17 XLD d           6.286   5.256  15.114  0.00  0.00     0.070 H 
ATOM     34  H18 XLD d           5.960   4.276  13.644  0.00  0.00     0.070 H 
ATOM     35  O36 XLD d           4.213   3.105  15.914  0.00  0.00    -0.319 OA
ATOM     36  H19 XLD d           6.231   3.322  16.414  0.00  0.00     0.077 H 
ATOM     37  H20 XLD d           5.900   2.343  14.945  0.00  0.00     0.077 H 
ENDBRANCH  24  29
ENDBRANCH  21  24
ENDBRANCH  17  21
ENDBRANCH  11  14
ENDBRANCH   2  10
BRANCH   1  38
ATOM     38  C9  XLD d           6.176   6.661  22.330  0.00  0.00     0.259 C 
ATOM     39  N7  XLD d           6.106   5.394  21.800  0.00  0.00    -0.307 N 
ATOM     40  C1  XLD d           5.270   4.370  22.143  0.00  0.00     0.130 A 
ATOM     41  H4  XLD d           6.755   5.196  21.065  0.00  0.00     0.170 HD
ATOM     42  N2  XLD d           4.029   4.596  22.682  0.00  0.00    -0.242 NA
ATOM     43  C6  XLD d           5.673   3.034  21.893  0.00  0.00    -0.037 A 
ATOM     44  C3  XLD d           3.182   3.620  23.018  0.00  0.00     0.025 A 
ATOM     45  C4  XLD d           3.538   2.264  22.821  0.00  0.00     0.051 A 
ATOM     46  H1  XLD d           2.216   3.869  23.445  0.00  0.00     0.117 H 
ATOM     47 CL1  XLD d           2.483   0.964  23.371  0.00  0.00    -0.083 Cl
ATOM     48  C5  XLD d           4.800   1.983  22.233  0.00  0.00    -0.057 A 
ATOM     49  H2  XLD d           5.093   0.956  22.046  0.00  0.00     0.086 H 
ATOM     50  H3  XLD d           6.638   2.825  21.447  0.00  0.00     0.089 H 
ATOM     51  O10 XLD d           5.411   7.012  23.270  0.00  0.00    -0.267 OA
ENDBRANCH   1  38
BRANCH   3  52
ATOM     52  O17 XLD d           8.035   9.509  18.705  0.00  0.00    -0.354 OA
BRANCH  52  53
ATOM     53  C18 XLD d           7.305  10.603  18.159  0.00  0.00     0.010 C 
ATOM     54  H7  XLD d           7.178  11.379  18.928  0.00  0.00     0.066 H 
ATOM     55  H8  XLD d           6.318  10.254  17.824  0.00  0.00     0.066 H 
ATOM     56  H9  XLD d           7.856  11.022  17.304  0.00  0.00     0.066 H 
ENDBRANCH  52  53
ENDBRANCH   3  52
TORSDOF 9
ENDMDL
MODEL 7
REMARK VINA RESULT:      -5.3      4.134      7.278
REMARK  9 active torsions:
REMARK  status: ('A' for Active; 'I' for Inactive)
REMARK       I    between atoms: N7_8  and  C9_9 
REMARK    1  A    between atoms: C9_9  and  C11_11 
REMARK    2  A    between atoms: C12_12  and  N19_20 
REMARK    3  A    between atoms: C13_13  and  O17_18 
REMARK    4  A    between atoms: O17_18  and  C18_19 
REMARK       I    between atoms: N19_20  and  C20_21 
REMARK    5  A    between atoms: C20_21  and  C22_23 
REMARK    6  A    between atoms: C25_26  and  C28_29 
REMARK    7  A    between atoms: C28_29  and  N29_30 
REMARK    8  A    between atoms: N29_30  and  C31_31 
REMARK    9  A    between atoms: N29_30  and  C32_32 
ROOT
ATOM      1  C11 XLD d           5.313   8.099  17.606  0.00  0.00     0.063 A 
ATOM      2  C12 XLD d           4.604   6.968  17.026  0.00  0.00     0.084 A 
ATOM      3  C13 XLD d           4.261   6.984  15.639  0.00  0.00     0.097 A 
ATOM      4  C14 XLD d           4.611   8.108  14.844  0.00  0.00    -0.028 A 
ATOM      5  C15 XLD d           5.294   9.205  15.417  0.00  0.00     0.037 A 
ATOM      6 CL2  XLD d           5.721  10.554  14.502  0.00  0.00    -0.084 Cl
ATOM      7  C16 XLD d           5.635   9.185  16.765  0.00  0.00    -0.044 A 
ATOM      8  H5  XLD d           4.355   8.124  13.791  0.00  0.00     0.090 H 
ATOM      9  H6  XLD d           6.166  10.033  17.183  0.00  0.00     0.087 H 
ENDROOT
BRANCH   2  10
ATOM     10  N19 XLD d           4.258   5.906  17.828  0.00  0.00    -0.319 N 
ATOM     11  C20 XLD d           5.046   4.841  18.165  0.00  0.00     0.264 C 
ATOM     12  O21 XLD d           6.212   4.807  17.685  0.00  0.00    -0.267 OA
ATOM     13  H10 XLD d           3.332   5.914  18.204  0.00  0.00     0.169 HD
BRANCH  11  14
ATOM     14  C22 XLD d           4.604   3.735  18.968  0.00  0.00     0.095 A 
ATOM     15  S23 XLD d           3.726   2.435  18.197  0.00  0.00    -0.094 SA
ATOM     16  C24 XLD d           3.558   1.646  19.710  0.00  0.00    -0.035 A 
ATOM     17  C25 XLD d           4.132   2.299  20.790  0.00  0.00    -0.011 A 
ATOM     18  H11 XLD d           3.037   0.696  19.816  0.00  0.00     0.096 H 
ATOM     19  C26 XLD d           4.745   3.499  20.364  0.00  0.00     0.065 A 
ATOM     20 CL3  XLD d           5.537   4.522  21.475  0.00  0.00    -0.082 Cl
BRANCH  17  21
ATOM     21  C28 XLD d           4.111   1.820  22.209  0.00  0.00     0.024 C 
ATOM     22  H12 XLD d           4.746   2.516  22.778  0.00  0.00     0.071 H 
ATOM     23  H13 XLD d           4.574   0.823  22.203  0.00  0.00     0.071 H 
BRANCH  21  24
ATOM     24  N29 XLD d           2.828   1.683  22.996  0.00  0.00    -0.346 N 
BRANCH  24  25
ATOM     25  C31 XLD d           2.807   0.711  24.125  0.00  0.00    -0.015 C 
ATOM     26  H14 XLD d           2.179   1.106  24.937  0.00  0.00     0.056 H 
ATOM     27  H15 XLD d           3.832   0.556  24.495  0.00  0.00     0.056 H 
ATOM     28  H16 XLD d           2.394  -0.247  23.776  0.00  0.00     0.056 H 
ENDBRANCH  24  25
BRANCH  24  29
ATOM     29  C32 XLD d           2.231   2.930  23.308  0.00  0.00     0.239 A 
ATOM     30  N33 XLD d           2.426   3.587  24.475  0.00  0.00    -0.249 NA
ATOM     31  C34 XLD d           1.723   4.814  24.503  0.00  0.00     0.039 A 
ATOM     32  C35 XLD d           1.010   4.854  23.132  0.00  0.00     0.046 A 
ATOM     33  H17 XLD d           2.416   5.661  24.611  0.00  0.00     0.070 H 
ATOM     34  H18 XLD d           0.992   4.830  25.326  0.00  0.00     0.070 H 
ATOM     35  O36 XLD d           1.410   3.636  22.501  0.00  0.00    -0.319 OA
ATOM     36  H19 XLD d           1.339   5.724  22.545  0.00  0.00     0.077 H 
ATOM     37  H20 XLD d          -0.082   4.889  23.259  0.00  0.00     0.077 H 
ENDBRANCH  24  29
ENDBRANCH  21  24
ENDBRANCH  17  21
ENDBRANCH  11  14
ENDBRANCH   2  10
BRANCH   1  38
ATOM     38  C9  XLD d           5.717   8.208  18.989  0.00  0.00     0.259 C 
ATOM     39  N7  XLD d           7.034   8.469  19.285  0.00  0.00    -0.307 N 
ATOM     40  C1  XLD d           7.630   8.571  20.510  0.00  0.00     0.130 A 
ATOM     41  H4  XLD d           7.637   8.601  18.498  0.00  0.00     0.170 HD
ATOM     42  N2  XLD d           7.144   7.912  21.610  0.00  0.00    -0.242 NA
ATOM     43  C6  XLD d           8.811   9.343  20.643  0.00  0.00    -0.037 A 
ATOM     44  C3  XLD d           7.706   7.980  22.819  0.00  0.00     0.025 A 
ATOM     45  C4  XLD d           8.872   8.759  23.023  0.00  0.00     0.051 A 
ATOM     46  H1  XLD d           7.268   7.437  23.649  0.00  0.00     0.117 H 
ATOM     47 CL1  XLD d           9.554   8.957  24.635  0.00  0.00    -0.083 Cl
ATOM     48  C5  XLD d           9.430   9.432  21.904  0.00  0.00    -0.057 A 
ATOM     49  H2  XLD d          10.336  10.016  22.021  0.00  0.00     0.086 H 
ATOM     50  H3  XLD d           9.232   9.856  19.786  0.00  0.00     0.089 H 
ATOM     51  O10 XLD d           4.869   8.037  19.907  0.00  0.00    -0.267 OA
ENDBRANCH   1  38
BRANCH   3  52
ATOM     52  O17 XLD d           3.600   5.908  15.123  0.00  0.00    -0.354 OA
BRANCH  52  53
ATOM     53  C18 XLD d           2.200   5.667  15.024  0.00  0.00     0.010 C 
ATOM     54  H7  XLD d           2.024   4.782  14.395  0.00  0.00     0.066 H 
ATOM     55  H8  XLD d           1.708   6.542  14.574  0.00  0.00     0.066 H 
ATOM     56  H9  XLD d           1.787   5.490  16.028  0.00  0.00     0.066 H 
ENDBRANCH  52  53
ENDBRANCH   3  52
TORSDOF 9
ENDMDL
MODEL 8
REMARK VINA RESULT:      -5.1      4.122      8.200
REMARK  9 active torsions:
REMARK  status: ('A' for Active; 'I' for Inactive)
REMARK       I    between atoms: N7_8  and  C9_9 
REMARK    1  A    between atoms: C9_9  and  C11_11 
REMARK    2  A    between atoms: C12_12  and  N19_20 
REMARK    3  A    between atoms: C13_13  and  O17_18 
REMARK    4  A    between atoms: O17_18  and  C18_19 
REMARK       I    between atoms: N19_20  and  C20_21 
REMARK    5  A    between atoms: C20_21  and  C22_23 
REMARK    6  A    between atoms: C25_26  and  C28_29 
REMARK    7  A    between atoms: C28_29  and  N29_30 
REMARK    8  A    between atoms: N29_30  and  C31_31 
REMARK    9  A    between atoms: N29_30  and  C32_32 
ROOT
ATOM      1  C11 XLD d           7.511   3.326  18.311  0.00  0.00     0.063 A 
ATOM      2  C12 XLD d           6.796   3.076  17.068  0.00  0.00     0.084 A 
ATOM      3  C13 XLD d           7.322   2.138  16.127  0.00  0.00     0.097 A 
ATOM      4  C14 XLD d           8.541   1.465  16.414  0.00  0.00    -0.028 A 
ATOM      5  C15 XLD d           9.232   1.721  17.621  0.00  0.00     0.037 A 
ATOM      6 CL2  XLD d          10.680   0.943  17.990  0.00  0.00    -0.084 Cl
ATOM      7  C16 XLD d           8.715   2.628  18.540  0.00  0.00    -0.044 A 
ATOM      8  H5  XLD d           8.942   0.752  15.704  0.00  0.00     0.090 H 
ATOM      9  H6  XLD d           9.255   2.803  19.463  0.00  0.00     0.087 H 
ENDROOT
BRANCH   2  10
ATOM     10  N19 XLD d           5.632   3.759  16.810  0.00  0.00    -0.319 N 
ATOM     11  C20 XLD d           5.504   4.935  16.125  0.00  0.00     0.264 C 
ATOM     12  O21 XLD d           6.561   5.471  15.691  0.00  0.00    -0.267 OA
ATOM     13  H10 XLD d           4.789   3.353  17.161  0.00  0.00     0.169 HD
BRANCH  11  14
ATOM     14  C22 XLD d           4.259   5.626  15.936  0.00  0.00     0.095 A 
ATOM     15  S23 XLD d           3.386   5.393  14.440  0.00  0.00    -0.094 SA
ATOM     16  C24 XLD d           2.180   6.490  14.968  0.00  0.00    -0.035 A 
ATOM     17  C25 XLD d           2.382   7.039  16.226  0.00  0.00    -0.011 A 
ATOM     18  H11 XLD d           1.315   6.741  14.357  0.00  0.00     0.096 H 
ATOM     19  C26 XLD d           3.574   6.534  16.791  0.00  0.00     0.065 A 
ATOM     20 CL3  XLD d           4.088   7.028  18.341  0.00  0.00    -0.082 Cl
BRANCH  17  21
ATOM     21  C28 XLD d           1.480   8.027  16.900  0.00  0.00     0.024 C 
ATOM     22  H12 XLD d           1.282   7.625  17.905  0.00  0.00     0.071 H 
ATOM     23  H13 XLD d           0.547   8.036  16.318  0.00  0.00     0.071 H 
BRANCH  21  24
ATOM     24  N29 XLD d           1.869   9.474  17.094  0.00  0.00    -0.346 N 
BRANCH  24  25
ATOM     25  C31 XLD d           1.985   9.979  18.491  0.00  0.00    -0.015 C 
ATOM     26  H14 XLD d           0.980  10.095  18.923  0.00  0.00     0.056 H 
ATOM     27  H15 XLD d           2.497  10.953  18.487  0.00  0.00     0.056 H 
ATOM     28  H16 XLD d           2.563   9.263  19.093  0.00  0.00     0.056 H 
ENDBRANCH  24  25
BRANCH  24  29
ATOM     29  C32 XLD d           2.932   9.882  16.250  0.00  0.00     0.239 A 
ATOM     30  N33 XLD d           4.188  10.129  16.689  0.00  0.00    -0.249 NA
ATOM     31  C34 XLD d           5.044  10.500  15.626  0.00  0.00     0.039 A 
ATOM     32  C35 XLD d           4.121  10.462  14.387  0.00  0.00     0.046 A 
ATOM     33  H17 XLD d           5.873   9.784  15.521  0.00  0.00     0.070 H 
ATOM     34  H18 XLD d           5.451  11.511  15.783  0.00  0.00     0.070 H 
ATOM     35  O36 XLD d           2.853  10.068  14.916  0.00  0.00    -0.319 OA
ATOM     36  H19 XLD d           4.483   9.729  13.651  0.00  0.00     0.077 H 
ATOM     37  H20 XLD d           4.057  11.454  13.916  0.00  0.00     0.077 H 
ENDBRANCH  24  29
ENDBRANCH  21  24
ENDBRANCH  17  21
ENDBRANCH  11  14
ENDBRANCH   2  10
BRANCH   1  38
ATOM     38  C9  XLD d           7.089   4.247  19.342  0.00  0.00     0.259 C 
ATOM     39  N7  XLD d           5.949   3.973  20.061  0.00  0.00    -0.307 N 
ATOM     40  C1  XLD d           5.357   4.718  21.040  0.00  0.00     0.130 A 
ATOM     41  H4  XLD d           5.492   3.112  19.836  0.00  0.00     0.170 HD
ATOM     42  N2  XLD d           5.488   6.082  21.093  0.00  0.00    -0.242 NA
ATOM     43  C6  XLD d           4.545   4.073  22.006  0.00  0.00    -0.037 A 
ATOM     44  C3  XLD d           4.916   6.844  22.028  0.00  0.00     0.025 A 
ATOM     45  C4  XLD d           4.116   6.256  23.038  0.00  0.00     0.051 A 
ATOM     46  H1  XLD d           5.064   7.918  22.014  0.00  0.00     0.117 H 
ATOM     47 CL1  XLD d           3.455   7.231  24.348  0.00  0.00    -0.083 Cl
ATOM     48  C5  XLD d           3.924   4.849  23.003  0.00  0.00    -0.057 A 
ATOM     49  H2  XLD d           3.298   4.370  23.747  0.00  0.00     0.086 H 
ATOM     50  H3  XLD d           4.403   2.999  21.977  0.00  0.00     0.089 H 
ATOM     51  O10 XLD d           7.750   5.300  19.554  0.00  0.00    -0.267 OA
ENDBRANCH   1  38
BRANCH   3  52
ATOM     52  O17 XLD d           6.629   1.920  14.973  0.00  0.00    -0.354 OA
BRANCH  52  53
ATOM     53  C18 XLD d           5.966   0.743  14.523  0.00  0.00     0.010 C 
ATOM     54  H7  XLD d           5.293   0.996  13.691  0.00  0.00     0.066 H 
ATOM     55  H8  XLD d           5.381   0.313  15.350  0.00  0.00     0.066 H 
ATOM     56  H9  XLD d           6.711   0.010  14.181  0.00  0.00     0.066 H 
ENDBRANCH  52  53
ENDBRANCH   3  52
TORSDOF 9
ENDMDL
MODEL 9
REMARK VINA RESULT:      -4.9      3.214      6.970
REMARK  9 active torsions:
REMARK  status: ('A' for Active; 'I' for Inactive)
REMARK       I    between atoms: N7_8  and  C9_9 
REMARK    1  A    between atoms: C9_9  and  C11_11 
REMARK    2  A    between atoms: C12_12  and  N19_20 
REMARK    3  A    between atoms: C13_13  and  O17_18 
REMARK    4  A    between atoms: O17_18  and  C18_19 
REMARK       I    between atoms: N19_20  and  C20_21 
REMARK    5  A    between atoms: C20_21  and  C22_23 
REMARK    6  A    between atoms: C25_26  and  C28_29 
REMARK    7  A    between atoms: C28_29  and  N29_30 
REMARK    8  A    between atoms: N29_30  and  C31_31 
REMARK    9  A    between atoms: N29_30  and  C32_32 
ROOT
ATOM      1  C11 XLD d           7.426   3.549  17.791  0.00  0.00     0.063 A 
ATOM      2  C12 XLD d           6.276   3.628  16.901  0.00  0.00     0.084 A 
ATOM      3  C13 XLD d           6.157   2.707  15.815  0.00  0.00     0.097 A 
ATOM      4  C14 XLD d           7.168   1.728  15.613  0.00  0.00    -0.028 A 
ATOM      5  C15 XLD d           8.285   1.664  16.477  0.00  0.00     0.037 A 
ATOM      6 CL2  XLD d           9.501   0.518  16.263  0.00  0.00    -0.084 Cl
ATOM      7  C16 XLD d           8.395   2.555  17.539  0.00  0.00    -0.044 A 
ATOM      8  H5  XLD d           7.081   1.027  14.792  0.00  0.00     0.090 H 
ATOM      9  H6  XLD d           9.255   2.484  18.196  0.00  0.00     0.087 H 
ENDROOT
BRANCH   2  10
ATOM     10  N19 XLD d           5.328   4.601  17.110  0.00  0.00    -0.319 N 
ATOM     11  C20 XLD d           5.265   5.829  16.513  0.00  0.00     0.264 C 
ATOM     12  O21 XLD d           6.177   6.121  15.691  0.00  0.00    -0.267 OA
ATOM     13  H10 XLD d           4.607   4.388  17.770  0.00  0.00     0.169 HD
BRANCH  11  14
ATOM     14  C22 XLD d           4.273   6.823  16.817  0.00  0.00     0.095 A 
ATOM     15  S23 XLD d           4.146   8.227  15.784  0.00  0.00    -0.094 SA
ATOM     16  C24 XLD d           2.893   8.847  16.776  0.00  0.00    -0.035 A 
ATOM     17  C25 XLD d           2.543   8.056  17.861  0.00  0.00    -0.011 A 
ATOM     18  H11 XLD d           2.404   9.797  16.569  0.00  0.00     0.096 H 
ATOM     19  C26 XLD d           3.331   6.882  17.880  0.00  0.00     0.065 A 
ATOM     20 CL3  XLD d           3.128   5.711  19.104  0.00  0.00    -0.082 Cl
BRANCH  17  21
ATOM     21  C28 XLD d           1.491   8.384  18.875  0.00  0.00     0.024 C 
ATOM     22  H12 XLD d           1.203   7.428  19.338  0.00  0.00     0.071 H 
ATOM     23  H13 XLD d           0.638   8.789  18.311  0.00  0.00     0.071 H 
BRANCH  21  24
ATOM     24  N29 XLD d           1.738   9.346  20.014  0.00  0.00    -0.346 N 
BRANCH  24  25
ATOM     25  C31 XLD d           0.933  10.599  20.051  0.00  0.00    -0.015 C 
ATOM     26  H14 XLD d           0.454  10.755  19.073  0.00  0.00     0.056 H 
ATOM     27  H15 XLD d           1.590  11.451  20.279  0.00  0.00     0.056 H 
ATOM     28  H16 XLD d           0.159  10.514  20.829  0.00  0.00     0.056 H 
ENDBRANCH  24  25
BRANCH  24  29
ATOM     29  C32 XLD d           1.848   8.702  21.271  0.00  0.00     0.239 A 
ATOM     30  N33 XLD d           2.500   9.231  22.333  0.00  0.00    -0.249 NA
ATOM     31  C34 XLD d           2.432   8.378  23.460  0.00  0.00     0.039 A 
ATOM     32  C35 XLD d           1.614   7.169  22.950  0.00  0.00     0.046 A 
ATOM     33  H17 XLD d           1.920   8.875  24.297  0.00  0.00     0.070 H 
ATOM     34  H18 XLD d           3.438   8.067  23.778  0.00  0.00     0.070 H 
ATOM     35  O36 XLD d           1.322   7.501  21.592  0.00  0.00    -0.319 OA
ATOM     36  H19 XLD d           0.688   7.049  23.532  0.00  0.00     0.077 H 
ATOM     37  H20 XLD d           2.206   6.244  23.009  0.00  0.00     0.077 H 
ENDBRANCH  24  29
ENDBRANCH  21  24
ENDBRANCH  17  21
ENDBRANCH  11  14
ENDBRANCH   2  10
BRANCH   1  38
ATOM     38  C9  XLD d           7.665   4.417  18.920  0.00  0.00     0.259 C 
ATOM     39  N7  XLD d           6.592   4.951  19.596  0.00  0.00    -0.307 N 
ATOM     40  C1  XLD d           6.593   5.815  20.652  0.00  0.00     0.130 A 
ATOM     41  H4  XLD d           5.691   4.668  19.268  0.00  0.00     0.170 HD
ATOM     42  N2  XLD d           7.620   6.699  20.866  0.00  0.00    -0.242 NA
ATOM     43  C6  XLD d           5.481   5.836  21.531  0.00  0.00    -0.037 A 
ATOM     44  C3  XLD d           7.649   7.566  21.882  0.00  0.00     0.025 A 
ATOM     45  C4  XLD d           6.581   7.615  22.811  0.00  0.00     0.051 A 
ATOM     46  H1  XLD d           8.495   8.235  21.995  0.00  0.00     0.117 H 
ATOM     47 CL1  XLD d           6.661   8.665  24.223  0.00  0.00    -0.083 Cl
ATOM     48  C5  XLD d           5.480   6.741  22.610  0.00  0.00    -0.057 A 
ATOM     49  H2  XLD d           4.636   6.770  23.289  0.00  0.00     0.086 H 
ATOM     50  H3  XLD d           4.644   5.166  21.375  0.00  0.00     0.089 H 
ATOM     51  O10 XLD d           8.847   4.698  19.259  0.00  0.00    -0.267 OA
ENDBRANCH   1  38
BRANCH   3  52
ATOM     52  O17 XLD d           5.068   2.802  15.001  0.00  0.00    -0.354 OA
BRANCH  52  53
ATOM     53  C18 XLD d           4.093   1.817  14.673  0.00  0.00     0.010 C 
ATOM     54  H7  XLD d           4.574   0.995  14.121  0.00  0.00     0.066 H 
ATOM     55  H8  XLD d           3.310   2.270  14.048  0.00  0.00     0.066 H 
ATOM     56  H9  XLD d           3.644   1.423  15.596  0.00  0.00     0.066 H 
ENDBRANCH  52  53
ENDBRANCH   3  52
TORSDOF 9
ENDMDL
MODEL 10
REMARK VINA RESULT:      -4.9      3.576      5.933
REMARK  9 active torsions:
REMARK  status: ('A' for Active; 'I' for Inactive)
REMARK       I    between atoms: N7_8  and  C9_9 
REMARK    1  A    between atoms: C9_9  and  C11_11 
REMARK    2  A    between atoms: C12_12  and  N19_20 
REMARK    3  A    between atoms: C13_13  and  O17_18 
REMARK    4  A    between atoms: O17_18  and  C18_19 
REMARK       I    between atoms: N19_20  and  C20_21 
REMARK    5  A    between atoms: C20_21  and  C22_23 
REMARK    6  A    between atoms: C25_26  and  C28_29 
REMARK    7  A    between atoms: C28_29  and  N29_30 
REMARK    8  A    between atoms: N29_30  and  C31_31 
REMARK    9  A    between atoms: N29_30  and  C32_32 
ROOT
ATOM      1  C11 XLD d           5.590   3.684  17.474  0.00  0.00     0.063 A 
ATOM      2  C12 XLD d           4.451   3.150  18.206  0.00  0.00     0.084 A 
ATOM      3  C13 XLD d           3.893   1.890  17.825  0.00  0.00     0.097 A 
ATOM      4  C14 XLD d           4.454   1.178  16.730  0.00  0.00    -0.028 A 
ATOM      5  C15 XLD d           5.555   1.709  16.020  0.00  0.00     0.037 A 
ATOM      6 CL2  XLD d           6.241   0.892  14.717  0.00  0.00    -0.084 Cl
ATOM      7  C16 XLD d           6.103   2.931  16.398  0.00  0.00    -0.044 A 
ATOM      8  H5  XLD d           4.036   0.222  16.439  0.00  0.00     0.090 H 
ATOM      9  H6  XLD d           6.952   3.316  15.846  0.00  0.00     0.087 H 
ENDROOT
BRANCH   2  10
ATOM     10  N19 XLD d           3.917   3.874  19.245  0.00  0.00    -0.319 N 
ATOM     11  C20 XLD d           2.865   4.744  19.185  0.00  0.00     0.264 C 
ATOM     12  O21 XLD d           2.326   4.925  18.060  0.00  0.00    -0.267 OA
ATOM     13  H10 XLD d           4.345   3.750  20.141  0.00  0.00     0.169 HD
BRANCH  11  14
ATOM     14  C22 XLD d           2.390   5.512  20.303  0.00  0.00     0.095 A 
ATOM     15  S23 XLD d           0.944   6.474  20.109  0.00  0.00    -0.094 SA
ATOM     16  C24 XLD d           1.096   7.035  21.721  0.00  0.00    -0.035 A 
ATOM     17  C25 XLD d           2.183   6.539  22.426  0.00  0.00    -0.011 A 
ATOM     18  H11 XLD d           0.388   7.734  22.163  0.00  0.00     0.096 H 
ATOM     19  C26 XLD d           2.925   5.651  21.614  0.00  0.00     0.065 A 
ATOM     20 CL3  XLD d           4.325   4.880  22.210  0.00  0.00    -0.082 Cl
BRANCH  17  21
ATOM     21  C28 XLD d           2.536   6.885  23.840  0.00  0.00     0.024 C 
ATOM     22  H12 XLD d           3.327   6.181  24.140  0.00  0.00     0.071 H 
ATOM     23  H13 XLD d           1.632   6.696  24.436  0.00  0.00     0.071 H 
BRANCH  21  24
ATOM     24  N29 XLD d           3.022   8.260  24.238  0.00  0.00    -0.346 N 
BRANCH  24  25
ATOM     25  C31 XLD d           2.251   8.994  25.279  0.00  0.00    -0.015 C 
ATOM     26  H14 XLD d           2.792   8.950  26.235  0.00  0.00     0.056 H 
ATOM     27  H15 XLD d           1.260   8.531  25.396  0.00  0.00     0.056 H 
ATOM     28  H16 XLD d           2.131  10.045  24.973  0.00  0.00     0.056 H 
ENDBRANCH  24  25
BRANCH  24  29
ATOM     29  C32 XLD d           4.427   8.321  24.420  0.00  0.00     0.239 A 
ATOM     30  N33 XLD d           5.263   7.285  24.177  0.00  0.00    -0.249 NA
ATOM     31  C34 XLD d           6.610   7.636  24.428  0.00  0.00     0.039 A 
ATOM     32  C35 XLD d           6.520   9.107  24.894  0.00  0.00     0.046 A 
ATOM     33  H17 XLD d           7.214   7.549  23.513  0.00  0.00     0.070 H 
ATOM     34  H18 XLD d           7.042   7.000  25.215  0.00  0.00     0.070 H 
ATOM     35  O36 XLD d           5.122   9.398  24.842  0.00  0.00    -0.319 OA
ATOM     36  H19 XLD d           7.082   9.768  24.217  0.00  0.00     0.077 H 
ATOM     37  H20 XLD d           6.905   9.218  25.918  0.00  0.00     0.077 H 
ENDBRANCH  24  29
ENDBRANCH  21  24
ENDBRANCH  17  21
ENDBRANCH  11  14
ENDBRANCH   2  10
BRANCH   1  38
ATOM     38  C9  XLD d           6.244   4.941  17.756  0.00  0.00     0.259 C 
ATOM     39  N7  XLD d           6.496   5.288  19.063  0.00  0.00    -0.307 N 
ATOM     40  C1  XLD d           7.061   6.433  19.548  0.00  0.00     0.130 A 
ATOM     41  H4  XLD d           6.229   4.612  19.749  0.00  0.00     0.170 HD
ATOM     42  N2  XLD d           6.977   7.625  18.876  0.00  0.00    -0.242 NA
ATOM     43  C6  XLD d           7.714   6.403  20.805  0.00  0.00    -0.037 A 
ATOM     44  C3  XLD d           7.507   8.765  19.325  0.00  0.00     0.025 A 
ATOM     45  C4  XLD d           8.198   8.794  20.562  0.00  0.00     0.051 A 
ATOM     46  H1  XLD d           7.408   9.673  18.741  0.00  0.00     0.117 H 
ATOM     47 CL1  XLD d           9.008  10.260  21.109  0.00  0.00    -0.083 Cl
ATOM     48  C5  XLD d           8.281   7.589  21.309  0.00  0.00    -0.057 A 
ATOM     49  H2  XLD d           8.781   7.583  22.270  0.00  0.00     0.086 H 
ATOM     50  H3  XLD d           7.777   5.481  21.371  0.00  0.00     0.089 H 
ATOM     51  O10 XLD d           6.552   5.716  16.810  0.00  0.00    -0.267 OA
ENDBRANCH   1  38
BRANCH   3  52
ATOM     52  O17 XLD d           2.830   1.412  18.532  0.00  0.00    -0.354 OA
BRANCH  52  53
ATOM     53  C18 XLD d           2.014   0.272  18.281  0.00  0.00     0.010 C 
ATOM     54  H7  XLD d           0.954   0.550  18.379  0.00  0.00     0.066 H 
ATOM     55  H8  XLD d           2.255  -0.518  19.008  0.00  0.00     0.066 H 
ATOM     56  H9  XLD d           2.203  -0.097  17.263  0.00  0.00     0.066 H 
ENDBRANCH  52  53
ENDBRANCH   3  52
TORSDOF 9
ENDMDL
