MODEL 1
REMARK VINA RESULT:      -5.5      0.000      0.000
REMARK  13 active torsions:
REMARK  status: ('A' for Active; 'I' for Inactive)
REMARK    1  A    between atoms: C_1  and  CH3_3 
REMARK       I    between atoms: N_4  and  C_1 
REMARK    2  A    between atoms: CA_5  and  N_4 
REMARK    3  A    between atoms: C_6  and  CA_5 
REMARK    4  A    between atoms: CA_5  and  CB_8 
REMARK       I    between atoms: N_26  and  C_6 
REMARK    5  A    between atoms: CB_8  and  CG_9 
REMARK    6  A    between atoms: CZ_14  and  OH_15 
REMARK    7  A    between atoms: OH_15  and  P_16 
REMARK    8  A    between atoms: CA_28  and  N_26 
REMARK    9  A    between atoms: C_27  and  CA_28 
REMARK       I    between atoms: C_27  and  N_29 
REMARK   10  A    between atoms: N_29  and  CA_30 
REMARK   11  A    between atoms: CA_30  and  C_31 
REMARK   12  A    between atoms: CA_30  and  CB_33 
REMARK       I    between atoms: C_31  and  N_37 
REMARK   13  A    between atoms: CB_33  and  CG_34 
REMARK       I    between atoms: CG_34  and  ND2_36 
ROOT
ATOM      1  CD  ACE d          10.937  -6.503   1.017  0.00  0.00    -0.065 C 
ATOM      2  CG  ACE d          10.118  -7.733   1.490  0.00  0.00    -0.062 C 
ATOM      3  CE  ACE d          10.375  -6.006  -0.328  0.00  0.00    -0.062 C 
ATOM      4  CB  ACE d          10.131  -8.903   0.451  0.00  0.00    -0.033 C 
ATOM      5  CH  ACE d          10.317  -7.149  -1.358  0.00  0.00    -0.033 C 
ATOM      6  CA  ACE d           9.595  -8.436  -0.915  0.00  0.00     0.114 C 
ATOM      7  H12 ACE d          11.992  -6.789   0.893  0.00  0.00     0.033 H 
ATOM      8  H13 ACE d          10.861  -5.700   1.766  0.00  0.00     0.033 H 
ATOM      9  H14 ACE d           9.077  -7.421   1.655  0.00  0.00     0.033 H 
ATOM     10  H15 ACE d          10.545  -8.098   2.436  0.00  0.00     0.033 H 
ATOM     11  H16 ACE d          11.023  -5.205  -0.715  0.00  0.00     0.033 H 
ATOM     12  H17 ACE d           9.359  -5.612  -0.171  0.00  0.00     0.033 H 
ATOM     13  H18 ACE d           9.499  -9.722   0.825  0.00  0.00     0.037 H 
ATOM     14  H19 ACE d          11.164  -9.263   0.329  0.00  0.00     0.037 H 
ATOM     15  H20 ACE d          11.351  -7.418  -1.618  0.00  0.00     0.037 H 
ATOM     16  H21 ACE d           9.803  -6.768  -2.253  0.00  0.00     0.037 H 
ENDROOT
BRANCH   6  17
ATOM     17  N   ACE d           8.171  -8.092  -0.830  0.00  0.00    -0.341 N 
ATOM     18  C   ACE d           7.414  -7.842  -1.890  0.00  0.00     0.241 C 
ATOM     19  O   ACE d           7.810  -7.903  -3.045  0.00  0.00    -0.271 OA
ATOM     20  H22 ACE d           7.749  -8.044   0.076  0.00  0.00     0.163 HD
BRANCH  18  21
ATOM     21  CA  ACE d           5.972  -7.459  -1.587  0.00  0.00     0.093 C 
ATOM     22  H5  ACE d           5.947  -6.530  -1.000  0.00  0.00     0.088 H 
BRANCH  21  23
ATOM     23  N   ACE d           5.261  -7.269  -2.880  0.00  0.00    -0.348 N 
ATOM     24  C   ACE d           4.653  -6.104  -3.164  0.00  0.00     0.214 C 
ATOM     25  O   ACE d           4.672  -5.116  -2.420  0.00  0.00    -0.274 OA
ATOM     26  H4  ACE d           5.235  -8.016  -3.545  0.00  0.00     0.163 HD
BRANCH  24  27
ATOM     27  CH3 ACE d           3.912  -6.030  -4.522  0.00  0.00    -0.003 C 
ATOM     28  H1  ACE d           3.258  -5.146  -4.536  0.00  0.00     0.040 H 
ATOM     29  H2  ACE d           3.305  -6.937  -4.658  0.00  0.00     0.040 H 
ATOM     30  H3  ACE d           4.647  -5.955  -5.337  0.00  0.00     0.040 H 
ENDBRANCH  24  27
ENDBRANCH  21  23
BRANCH  21  31
ATOM     31  CB  ACE d           5.264  -8.612  -0.791  0.00  0.00    -0.014 C 
ATOM     32  H6  ACE d           5.916  -9.497  -0.777  0.00  0.00     0.043 H 
ATOM     33  H7  ACE d           4.314  -8.863  -1.286  0.00  0.00     0.043 H 
BRANCH  31  34
ATOM     34  CG  ACE d           4.983  -8.172   0.642  0.00  0.00    -0.056 A 
ATOM     35  CD1 ACE d           4.367  -9.074   1.489  0.00  0.00    -0.074 A 
ATOM     36  CE1 ACE d           4.021  -8.649   2.772  0.00  0.00    -0.050 A 
ATOM     37  H8  ACE d           4.157 -10.086   1.164  0.00  0.00     0.084 H 
ATOM     38  CZ  ACE d           4.331  -7.340   3.200  0.00  0.00     0.082 A 
ATOM     39  H10 ACE d           3.513  -9.329   3.446  0.00  0.00     0.087 H 
ATOM     40  CE2 ACE d           4.941  -6.424   2.355  0.00  0.00    -0.050 A 
ATOM     41  CD2 ACE d           5.314  -6.851   1.058  0.00  0.00    -0.074 A 
ATOM     42  H11 ACE d           5.128  -5.407   2.681  0.00  0.00     0.087 H 
ATOM     43  H9  ACE d           5.844  -6.182   0.391  0.00  0.00     0.084 H 
BRANCH  38  44
ATOM     44  OH  ACE d           3.918  -7.096   4.492  0.00  0.00    -0.240 OA
BRANCH  44  45
ATOM     45  P   ACE d           4.692  -7.685   5.827  0.00  0.00     0.427 P 
ATOM     46  O1P ACE d           4.536  -6.498   6.856  0.00  0.00    -0.617 OA
ATOM     47  O2P ACE d           4.050  -8.895   6.355  0.00  0.00    -0.617 OA
ATOM     48  O3P ACE d           6.124  -7.815   5.474  0.00  0.00    -0.617 OA
ENDBRANCH  44  45
ENDBRANCH  38  44
ENDBRANCH  31  34
ENDBRANCH  21  31
ENDBRANCH  18  21
ENDBRANCH   6  17
BRANCH   6  49
ATOM     49  C   ACE d           9.761  -9.632  -1.898  0.00  0.00     0.246 C 
ATOM     50  O   ACE d           9.026 -10.666  -1.869  0.00  0.00    -0.271 OA
ATOM     51  N   ACE d          10.671  -9.418  -2.874  0.00  0.00    -0.345 N 
ATOM     52  H23 ACE d          11.194  -8.566  -2.880  0.00  0.00     0.163 HD
BRANCH  51  53
ATOM     53  CA  ACE d          10.907 -10.418  -3.927  0.00  0.00     0.097 C 
ATOM     54  H24 ACE d          10.101 -11.163  -3.862  0.00  0.00     0.088 H 
BRANCH  53  55
ATOM     55  C   ACE d          12.219 -11.173  -3.741  0.00  0.00     0.238 C 
ATOM     56  O   ACE d          12.527 -11.588  -2.638  0.00  0.00    -0.271 OA
ATOM     57  N   ACE d          13.047 -11.242  -4.764  0.00  0.00    -0.368 N 
ATOM     58  H29 ACE d          13.915 -11.731  -4.672  0.00  0.00     0.159 HD
ATOM     59  H30 ACE d          12.808 -10.806  -5.632  0.00  0.00     0.159 HD
ENDBRANCH  53  55
BRANCH  53  60
ATOM     60  CB  ACE d          10.795  -9.732  -5.318  0.00  0.00     0.036 C 
ATOM     61  H25 ACE d           9.876 -10.078  -5.814  0.00  0.00     0.051 H 
ATOM     62  H26 ACE d          11.668 -10.011  -5.926  0.00  0.00     0.051 H 
BRANCH  60  63
ATOM     63  CG  ACE d          10.744  -8.182  -5.190  0.00  0.00     0.217 C 
ATOM     64  OD1 ACE d          11.753  -7.558  -4.783  0.00  0.00    -0.274 OA
ATOM     65  ND2 ACE d           9.594  -7.625  -5.537  0.00  0.00    -0.370 N 
ATOM     66  H27 ACE d           9.482  -6.633  -5.482  0.00  0.00     0.159 HD
ATOM     67  H28 ACE d           8.837  -8.197  -5.853  0.00  0.00     0.159 HD
ENDBRANCH  60  63
ENDBRANCH  53  60
ENDBRANCH  51  53
ENDBRANCH   6  49
TORSDOF 13
ENDMDL
MODEL 2
REMARK VINA RESULT:      -5.2      3.060      6.158
REMARK  13 active torsions:
REMARK  status: ('A' for Active; 'I' for Inactive)
REMARK    1  A    between atoms: C_1  and  CH3_3 
REMARK       I    between atoms: N_4  and  C_1 
REMARK    2  A    between atoms: CA_5  and  N_4 
REMARK    3  A    between atoms: C_6  and  CA_5 
REMARK    4  A    between atoms: CA_5  and  CB_8 
REMARK       I    between atoms: N_26  and  C_6 
REMARK    5  A    between atoms: CB_8  and  CG_9 
REMARK    6  A    between atoms: CZ_14  and  OH_15 
REMARK    7  A    between atoms: OH_15  and  P_16 
REMARK    8  A    between atoms: CA_28  and  N_26 
REMARK    9  A    between atoms: C_27  and  CA_28 
REMARK       I    between atoms: C_27  and  N_29 
REMARK   10  A    between atoms: N_29  and  CA_30 
REMARK   11  A    between atoms: CA_30  and  C_31 
REMARK   12  A    between atoms: CA_30  and  CB_33 
REMARK       I    between atoms: C_31  and  N_37 
REMARK   13  A    between atoms: CB_33  and  CG_34 
REMARK       I    between atoms: CG_34  and  ND2_36 
ROOT
ATOM      1  CD  ACE d          10.948  -7.793   4.939  0.00  0.00    -0.065 C 
ATOM      2  CG  ACE d           9.623  -8.454   4.474  0.00  0.00    -0.062 C 
ATOM      3  CE  ACE d          11.039  -6.372   4.352  0.00  0.00    -0.062 C 
ATOM      4  CB  ACE d           9.495  -8.521   2.917  0.00  0.00    -0.033 C 
ATOM      5  CH  ACE d          10.856  -6.394   2.823  0.00  0.00    -0.033 C 
ATOM      6  CA  ACE d           9.603  -7.118   2.292  0.00  0.00     0.114 C 
ATOM      7  H12 ACE d          11.801  -8.393   4.587  0.00  0.00     0.033 H 
ATOM      8  H13 ACE d          10.967  -7.739   6.038  0.00  0.00     0.033 H 
ATOM      9  H14 ACE d           8.780  -7.871   4.872  0.00  0.00     0.033 H 
ATOM     10  H15 ACE d           9.581  -9.478   4.875  0.00  0.00     0.033 H 
ATOM     11  H16 ACE d          12.026  -5.947   4.590  0.00  0.00     0.033 H 
ATOM     12  H17 ACE d          10.252  -5.747   4.799  0.00  0.00     0.033 H 
ATOM     13  H18 ACE d           8.520  -8.956   2.654  0.00  0.00     0.037 H 
ATOM     14  H19 ACE d          10.300  -9.155   2.517  0.00  0.00     0.037 H 
ATOM     15  H20 ACE d          11.737  -6.888   2.387  0.00  0.00     0.037 H 
ATOM     16  H21 ACE d          10.813  -5.351   2.476  0.00  0.00     0.037 H 
ENDROOT
BRANCH   6  17
ATOM     17  N   ACE d           8.460  -6.282   2.678  0.00  0.00    -0.341 N 
ATOM     18  C   ACE d           7.199  -6.603   2.419  0.00  0.00     0.241 C 
ATOM     19  O   ACE d           6.854  -7.637   1.867  0.00  0.00    -0.271 OA
ATOM     20  H22 ACE d           8.641  -5.425   3.161  0.00  0.00     0.163 HD
BRANCH  18  21
ATOM     21  CA  ACE d           6.162  -5.581   2.861  0.00  0.00     0.093 C 
ATOM     22  H5  ACE d           5.154  -5.929   2.593  0.00  0.00     0.088 H 
BRANCH  21  23
ATOM     23  N   ACE d           6.272  -5.415   4.335  0.00  0.00    -0.348 N 
ATOM     24  C   ACE d           5.376  -5.989   5.159  0.00  0.00     0.214 C 
ATOM     25  O   ACE d           4.448  -6.710   4.775  0.00  0.00    -0.274 OA
ATOM     26  H4  ACE d           7.020  -4.872   4.718  0.00  0.00     0.163 HD
BRANCH  24  27
ATOM     27  CH3 ACE d           5.567  -5.720   6.673  0.00  0.00    -0.003 C 
ATOM     28  H1  ACE d           4.858  -6.335   7.247  0.00  0.00     0.040 H 
ATOM     29  H2  ACE d           5.382  -4.656   6.882  0.00  0.00     0.040 H 
ATOM     30  H3  ACE d           6.595  -5.977   6.964  0.00  0.00     0.040 H 
ENDBRANCH  24  27
ENDBRANCH  21  23
BRANCH  21  31
ATOM     31  CB  ACE d           6.444  -4.195   2.179  0.00  0.00    -0.014 C 
ATOM     32  H6  ACE d           7.515  -3.959   2.269  0.00  0.00     0.043 H 
ATOM     33  H7  ACE d           5.853  -3.416   2.683  0.00  0.00     0.043 H 
BRANCH  31  34
ATOM     34  CG  ACE d           6.062  -4.241   0.704  0.00  0.00    -0.056 A 
ATOM     35  CD1 ACE d           4.726  -4.401   0.385  0.00  0.00    -0.074 A 
ATOM     36  CE1 ACE d           4.378  -4.539  -0.959  0.00  0.00    -0.050 A 
ATOM     37  H8  ACE d           3.969  -4.420   1.159  0.00  0.00     0.084 H 
ATOM     38  CZ  ACE d           5.367  -4.477  -1.965  0.00  0.00     0.082 A 
ATOM     39  H10 ACE d           3.341  -4.693  -1.233  0.00  0.00     0.087 H 
ATOM     40  CE2 ACE d           6.710  -4.325  -1.655  0.00  0.00    -0.050 A 
ATOM     41  CD2 ACE d           7.072  -4.165  -0.296  0.00  0.00    -0.074 A 
ATOM     42  H11 ACE d           7.464  -4.330  -2.434  0.00  0.00     0.087 H 
ATOM     43  H9  ACE d           8.105  -3.986  -0.020  0.00  0.00     0.084 H 
BRANCH  38  44
ATOM     44  OH  ACE d           4.842  -4.631  -3.230  0.00  0.00    -0.240 OA
BRANCH  44  45
ATOM     45  P   ACE d           5.002  -6.011  -4.125  0.00  0.00     0.427 P 
ATOM     46  O1P ACE d           5.007  -7.132  -3.014  0.00  0.00    -0.617 OA
ATOM     47  O2P ACE d           3.871  -6.214  -5.039  0.00  0.00    -0.617 OA
ATOM     48  O3P ACE d           6.341  -5.966  -4.753  0.00  0.00    -0.617 OA
ENDBRANCH  44  45
ENDBRANCH  38  44
ENDBRANCH  31  34
ENDBRANCH  21  31
ENDBRANCH  18  21
ENDBRANCH   6  17
BRANCH   6  49
ATOM     49  C   ACE d           9.583  -7.307   0.746  0.00  0.00     0.246 C 
ATOM     50  O   ACE d           9.884  -6.387  -0.073  0.00  0.00    -0.271 OA
ATOM     51  N   ACE d           9.346  -8.578   0.352  0.00  0.00    -0.345 N 
ATOM     52  H23 ACE d           9.160  -9.279   1.040  0.00  0.00     0.163 HD
BRANCH  51  53
ATOM     53  CA  ACE d           9.357  -8.948  -1.071  0.00  0.00     0.097 C 
ATOM     54  H24 ACE d          10.076  -8.288  -1.579  0.00  0.00     0.088 H 
BRANCH  53  55
ATOM     55  C   ACE d           8.007  -8.731  -1.748  0.00  0.00     0.238 C 
ATOM     56  O   ACE d           7.964  -8.447  -2.932  0.00  0.00    -0.271 OA
ATOM     57  N   ACE d           6.927  -8.731  -0.995  0.00  0.00    -0.368 N 
ATOM     58  H29 ACE d           6.027  -8.591  -1.410  0.00  0.00     0.159 HD
ATOM     59  H30 ACE d           7.005  -8.871  -0.007  0.00  0.00     0.159 HD
ENDBRANCH  53  55
BRANCH  53  60
ATOM     60  CB  ACE d           9.881 -10.405  -1.217  0.00  0.00     0.036 C 
ATOM     61  H25 ACE d           9.028 -11.074  -1.407  0.00  0.00     0.051 H 
ATOM     62  H26 ACE d          10.378 -10.701  -0.281  0.00  0.00     0.051 H 
BRANCH  60  63
ATOM     63  CG  ACE d          10.894 -10.534  -2.390  0.00  0.00     0.217 C 
ATOM     64  OD1 ACE d          11.624 -11.550  -2.473  0.00  0.00    -0.274 OA
ATOM     65  ND2 ACE d          10.902  -9.520  -3.242  0.00  0.00    -0.370 N 
ATOM     66  H27 ACE d          11.526  -9.529  -4.024  0.00  0.00     0.159 HD
ATOM     67  H28 ACE d          10.284  -8.746  -3.104  0.00  0.00     0.159 HD
ENDBRANCH  60  63
ENDBRANCH  53  60
ENDBRANCH  51  53
ENDBRANCH   6  49
TORSDOF 13
ENDMDL
MODEL 3
REMARK VINA RESULT:      -5.0      1.551      2.699
REMARK  13 active torsions:
REMARK  status: ('A' for Active; 'I' for Inactive)
REMARK    1  A    between atoms: C_1  and  CH3_3 
REMARK       I    between atoms: N_4  and  C_1 
REMARK    2  A    between atoms: CA_5  and  N_4 
REMARK    3  A    between atoms: C_6  and  CA_5 
REMARK    4  A    between atoms: CA_5  and  CB_8 
REMARK       I    between atoms: N_26  and  C_6 
REMARK    5  A    between atoms: CB_8  and  CG_9 
REMARK    6  A    between atoms: CZ_14  and  OH_15 
REMARK    7  A    between atoms: OH_15  and  P_16 
REMARK    8  A    between atoms: CA_28  and  N_26 
REMARK    9  A    between atoms: C_27  and  CA_28 
REMARK       I    between atoms: C_27  and  N_29 
REMARK   10  A    between atoms: N_29  and  CA_30 
REMARK   11  A    between atoms: CA_30  and  C_31 
REMARK   12  A    between atoms: CA_30  and  CB_33 
REMARK       I    between atoms: C_31  and  N_37 
REMARK   13  A    between atoms: CB_33  and  CG_34 
REMARK       I    between atoms: CG_34  and  ND2_36 
ROOT
ATOM      1  CD  ACE d           9.999  -7.358   3.080  0.00  0.00    -0.065 C 
ATOM      2  CG  ACE d           9.545  -8.563   2.214  0.00  0.00    -0.062 C 
ATOM      3  CE  ACE d           9.704  -6.049   2.323  0.00  0.00    -0.062 C 
ATOM      4  CB  ACE d          10.242  -8.597   0.814  0.00  0.00    -0.033 C 
ATOM      5  CH  ACE d          10.326  -6.074   0.915  0.00  0.00    -0.033 C 
ATOM      6  CA  ACE d           9.986  -7.294   0.036  0.00  0.00     0.114 C 
ATOM      7  H12 ACE d          11.078  -7.434   3.278  0.00  0.00     0.033 H 
ATOM      8  H13 ACE d           9.450  -7.363   4.034  0.00  0.00     0.033 H 
ATOM      9  H14 ACE d           8.457  -8.499   2.064  0.00  0.00     0.033 H 
ATOM     10  H15 ACE d           9.786  -9.493   2.751  0.00  0.00     0.033 H 
ATOM     11  H16 ACE d          10.125  -5.204   2.888  0.00  0.00     0.033 H 
ATOM     12  H17 ACE d           8.614  -5.924   2.233  0.00  0.00     0.033 H 
ATOM     13  H18 ACE d           9.846  -9.445   0.236  0.00  0.00     0.037 H 
ATOM     14  H19 ACE d          11.326  -8.725   0.956  0.00  0.00     0.037 H 
ATOM     15  H20 ACE d          11.419  -6.040   1.031  0.00  0.00     0.037 H 
ATOM     16  H21 ACE d           9.986  -5.173   0.383  0.00  0.00     0.037 H 
ENDROOT
BRANCH   6  17
ATOM     17  N   ACE d           8.566  -7.160  -0.310  0.00  0.00    -0.341 N 
ATOM     18  C   ACE d           8.056  -6.087  -0.900  0.00  0.00     0.241 C 
ATOM     19  O   ACE d           8.713  -5.117  -1.247  0.00  0.00    -0.271 OA
ATOM     20  H22 ACE d           7.952  -7.917  -0.090  0.00  0.00     0.163 HD
BRANCH  18  21
ATOM     21  CA  ACE d           6.552  -6.124  -1.134  0.00  0.00     0.093 C 
ATOM     22  H5  ACE d           6.061  -5.340  -0.541  0.00  0.00     0.088 H 
BRANCH  21  23
ATOM     23  N   ACE d           6.302  -5.904  -2.584  0.00  0.00    -0.348 N 
ATOM     24  C   ACE d           6.864  -6.706  -3.506  0.00  0.00     0.214 C 
ATOM     25  O   ACE d           7.573  -7.682  -3.233  0.00  0.00    -0.274 OA
ATOM     26  H4  ACE d           5.710  -5.153  -2.876  0.00  0.00     0.163 HD
BRANCH  24  27
ATOM     27  CH3 ACE d           6.564  -6.363  -4.987  0.00  0.00    -0.003 C 
ATOM     28  H1  ACE d           7.466  -6.535  -5.593  0.00  0.00     0.040 H 
ATOM     29  H2  ACE d           6.267  -5.307  -5.065  0.00  0.00     0.040 H 
ATOM     30  H3  ACE d           5.748  -7.002  -5.353  0.00  0.00     0.040 H 
ENDBRANCH  24  27
ENDBRANCH  21  23
BRANCH  21  31
ATOM     31  CB  ACE d           5.978  -7.531  -0.735  0.00  0.00    -0.014 C 
ATOM     32  H6  ACE d           6.780  -8.281  -0.802  0.00  0.00     0.043 H 
ATOM     33  H7  ACE d           5.165  -7.799  -1.425  0.00  0.00     0.043 H 
BRANCH  31  34
ATOM     34  CG  ACE d           5.437  -7.498   0.691  0.00  0.00    -0.056 A 
ATOM     35  CD1 ACE d           4.791  -8.624   1.165  0.00  0.00    -0.074 A 
ATOM     36  CE1 ACE d           4.211  -8.570   2.433  0.00  0.00    -0.050 A 
ATOM     37  H8  ACE d           4.735  -9.526   0.567  0.00  0.00     0.084 H 
ATOM     38  CZ  ACE d           4.319  -7.404   3.221  0.00  0.00     0.082 A 
ATOM     39  H10 ACE d           3.674  -9.431   2.816  0.00  0.00     0.087 H 
ATOM     40  CE2 ACE d           4.959  -6.266   2.751  0.00  0.00    -0.050 A 
ATOM     41  CD2 ACE d           5.568  -6.317   1.474  0.00  0.00    -0.074 A 
ATOM     42  H11 ACE d           4.991  -5.361   3.346  0.00  0.00     0.087 H 
ATOM     43  H9  ACE d           6.125  -5.467   1.097  0.00  0.00     0.084 H 
BRANCH  38  44
ATOM     44  OH  ACE d           3.690  -7.531   4.440  0.00  0.00    -0.240 OA
BRANCH  44  45
ATOM     45  P   ACE d           4.495  -7.697   5.873  0.00  0.00     0.427 P 
ATOM     46  O1P ACE d           5.983  -7.917   5.398  0.00  0.00    -0.617 OA
ATOM     47  O2P ACE d           4.406  -6.490   6.704  0.00  0.00    -0.617 OA
ATOM     48  O3P ACE d           4.011  -8.949   6.497  0.00  0.00    -0.617 OA
ENDBRANCH  44  45
ENDBRANCH  38  44
ENDBRANCH  31  34
ENDBRANCH  21  31
ENDBRANCH  18  21
ENDBRANCH   6  17
BRANCH   6  49
ATOM     49  C   ACE d          10.814  -7.382  -1.280  0.00  0.00     0.246 C 
ATOM     50  O   ACE d          11.755  -6.581  -1.566  0.00  0.00    -0.271 OA
ATOM     51  N   ACE d          10.534  -8.469  -2.033  0.00  0.00    -0.345 N 
ATOM     52  H23 ACE d           9.814  -9.097  -1.740  0.00  0.00     0.163 HD
BRANCH  51  53
ATOM     53  CA  ACE d          11.270  -8.743  -3.276  0.00  0.00     0.097 C 
ATOM     54  H24 ACE d          12.217  -8.185  -3.230  0.00  0.00     0.088 H 
BRANCH  53  55
ATOM     55  C   ACE d          10.533  -8.255  -4.519  0.00  0.00     0.238 C 
ATOM     56  O   ACE d          10.151  -9.058  -5.351  0.00  0.00    -0.271 OA
ATOM     57  N   ACE d          10.445  -6.955  -4.719  0.00  0.00    -0.368 N 
ATOM     58  H29 ACE d           9.968  -6.604  -5.525  0.00  0.00     0.159 HD
ATOM     59  H30 ACE d          10.855  -6.319  -4.065  0.00  0.00     0.159 HD
ENDBRANCH  53  55
BRANCH  53  60
ATOM     60  CB  ACE d          11.625 -10.256  -3.338  0.00  0.00     0.036 C 
ATOM     61  H25 ACE d          12.647 -10.399  -2.957  0.00  0.00     0.051 H 
ATOM     62  H26 ACE d          11.573 -10.593  -4.383  0.00  0.00     0.051 H 
BRANCH  60  63
ATOM     63  CG  ACE d          10.644 -11.109  -2.483  0.00  0.00     0.217 C 
ATOM     64  OD1 ACE d           9.409 -10.915  -2.573  0.00  0.00    -0.274 OA
ATOM     65  ND2 ACE d          11.218 -12.010  -1.698  0.00  0.00    -0.370 N 
ATOM     66  H27 ACE d          10.655 -12.597  -1.117  0.00  0.00     0.159 HD
ATOM     67  H28 ACE d          12.214 -12.101  -1.688  0.00  0.00     0.159 HD
ENDBRANCH  60  63
ENDBRANCH  53  60
ENDBRANCH  51  53
ENDBRANCH   6  49
TORSDOF 13
ENDMDL
MODEL 4
REMARK VINA RESULT:      -4.7      3.259      6.101
REMARK  13 active torsions:
REMARK  status: ('A' for Active; 'I' for Inactive)
REMARK    1  A    between atoms: C_1  and  CH3_3 
REMARK       I    between atoms: N_4  and  C_1 
REMARK    2  A    between atoms: CA_5  and  N_4 
REMARK    3  A    between atoms: C_6  and  CA_5 
REMARK    4  A    between atoms: CA_5  and  CB_8 
REMARK       I    between atoms: N_26  and  C_6 
REMARK    5  A    between atoms: CB_8  and  CG_9 
REMARK    6  A    between atoms: CZ_14  and  OH_15 
REMARK    7  A    between atoms: OH_15  and  P_16 
REMARK    8  A    between atoms: CA_28  and  N_26 
REMARK    9  A    between atoms: C_27  and  CA_28 
REMARK       I    between atoms: C_27  and  N_29 
REMARK   10  A    between atoms: N_29  and  CA_30 
REMARK   11  A    between atoms: CA_30  and  C_31 
REMARK   12  A    between atoms: CA_30  and  CB_33 
REMARK       I    between atoms: C_31  and  N_37 
REMARK   13  A    between atoms: CB_33  and  CG_34 
REMARK       I    between atoms: CG_34  and  ND2_36 
ROOT
ATOM      1  CD  ACE d          11.804  -7.229   5.468  0.00  0.00    -0.065 C 
ATOM      2  CG  ACE d          10.782  -8.362   5.190  0.00  0.00    -0.062 C 
ATOM      3  CE  ACE d          11.404  -5.976   4.666  0.00  0.00    -0.062 C 
ATOM      4  CB  ACE d          10.677  -8.722   3.671  0.00  0.00    -0.033 C 
ATOM      5  CH  ACE d          11.233  -6.309   3.172  0.00  0.00    -0.033 C 
ATOM      6  CA  ACE d          10.299  -7.487   2.834  0.00  0.00     0.114 C 
ATOM      7  H12 ACE d          12.809  -7.557   5.162  0.00  0.00     0.033 H 
ATOM      8  H13 ACE d          11.808  -6.992   6.542  0.00  0.00     0.033 H 
ATOM      9  H14 ACE d           9.792  -8.038   5.544  0.00  0.00     0.033 H 
ATOM     10  H15 ACE d          11.093  -9.261   5.744  0.00  0.00     0.033 H 
ATOM     11  H16 ACE d          12.188  -5.212   4.777  0.00  0.00     0.033 H 
ATOM     12  H17 ACE d          10.453  -5.586   5.058  0.00  0.00     0.033 H 
ATOM     13  H18 ACE d           9.907  -9.497   3.537  0.00  0.00     0.037 H 
ATOM     14  H19 ACE d          11.649  -9.107   3.325  0.00  0.00     0.037 H 
ATOM     15  H20 ACE d          12.228  -6.543   2.765  0.00  0.00     0.037 H 
ATOM     16  H21 ACE d          10.836  -5.413   2.672  0.00  0.00     0.037 H 
ENDROOT
BRANCH   6  17
ATOM     17  N   ACE d           8.941  -7.031   3.154  0.00  0.00    -0.341 N 
ATOM     18  C   ACE d           7.907  -7.852   3.288  0.00  0.00     0.241 C 
ATOM     19  O   ACE d           7.980  -9.068   3.193  0.00  0.00    -0.271 OA
ATOM     20  H22 ACE d           8.788  -6.051   3.279  0.00  0.00     0.163 HD
BRANCH  18  21
ATOM     21  CA  ACE d           6.573  -7.178   3.577  0.00  0.00     0.093 C 
ATOM     22  H5  ACE d           5.764  -7.711   3.057  0.00  0.00     0.088 H 
BRANCH  21  23
ATOM     23  N   ACE d           6.347  -7.208   5.047  0.00  0.00    -0.348 N 
ATOM     24  C   ACE d           5.316  -7.897   5.568  0.00  0.00     0.214 C 
ATOM     25  O   ACE d           4.527  -8.573   4.897  0.00  0.00    -0.274 OA
ATOM     26  H4  ACE d           6.968  -6.711   5.654  0.00  0.00     0.163 HD
BRANCH  24  27
ATOM     27  CH3 ACE d           5.154  -7.829   7.108  0.00  0.00    -0.003 C 
ATOM     28  H1  ACE d           4.392  -7.079   7.364  0.00  0.00     0.040 H 
ATOM     29  H2  ACE d           6.114  -7.548   7.565  0.00  0.00     0.040 H 
ATOM     30  H3  ACE d           4.842  -8.813   7.487  0.00  0.00     0.040 H 
ENDBRANCH  24  27
ENDBRANCH  21  23
BRANCH  21  31
ATOM     31  CB  ACE d           6.612  -5.680   3.107  0.00  0.00    -0.014 C 
ATOM     32  H6  ACE d           7.657  -5.376   2.953  0.00  0.00     0.043 H 
ATOM     33  H7  ACE d           6.156  -5.046   3.882  0.00  0.00     0.043 H 
BRANCH  31  34
ATOM     34  CG  ACE d           5.841  -5.513   1.802  0.00  0.00    -0.056 A 
ATOM     35  CD1 ACE d           4.854  -6.436   1.509  0.00  0.00    -0.074 A 
ATOM     36  CE1 ACE d           4.208  -6.346   0.275  0.00  0.00    -0.050 A 
ATOM     37  H8  ACE d           4.589  -7.210   2.219  0.00  0.00     0.084 H 
ATOM     38  CZ  ACE d           4.534  -5.313  -0.630  0.00  0.00     0.082 A 
ATOM     39  H10 ACE d           3.451  -7.075   0.010  0.00  0.00     0.087 H 
ATOM     40  CE2 ACE d           5.528  -4.387  -0.348  0.00  0.00    -0.050 A 
ATOM     41  CD2 ACE d           6.176  -4.457   0.908  0.00  0.00    -0.074 A 
ATOM     42  H11 ACE d           5.803  -3.629  -1.074  0.00  0.00     0.087 H 
ATOM     43  H9  ACE d           6.916  -3.716   1.187  0.00  0.00     0.084 H 
BRANCH  38  44
ATOM     44  OH  ACE d           3.799  -5.380  -1.793  0.00  0.00    -0.240 OA
BRANCH  44  45
ATOM     45  P   ACE d           4.374  -6.016  -3.205  0.00  0.00     0.427 P 
ATOM     46  O1P ACE d           4.031  -7.548  -3.046  0.00  0.00    -0.617 OA
ATOM     47  O2P ACE d           3.690  -5.467  -4.382  0.00  0.00    -0.617 OA
ATOM     48  O3P ACE d           5.846  -5.859  -3.181  0.00  0.00    -0.617 OA
ENDBRANCH  44  45
ENDBRANCH  38  44
ENDBRANCH  31  34
ENDBRANCH  21  31
ENDBRANCH  18  21
ENDBRANCH   6  17
BRANCH   6  49
ATOM     49  C   ACE d          10.338  -7.924   1.339  0.00  0.00     0.246 C 
ATOM     50  O   ACE d          10.428  -9.134   0.969  0.00  0.00    -0.271 OA
ATOM     51  N   ACE d          10.135  -6.912   0.466  0.00  0.00    -0.345 N 
ATOM     52  H23 ACE d          10.024  -5.981   0.811  0.00  0.00     0.163 HD
BRANCH  51  53
ATOM     53  CA  ACE d          10.075  -7.159  -0.983  0.00  0.00     0.097 C 
ATOM     54  H24 ACE d          10.401  -8.195  -1.156  0.00  0.00     0.088 H 
BRANCH  53  55
ATOM     55  C   ACE d          11.022  -6.263  -1.774  0.00  0.00     0.238 C 
ATOM     56  O   ACE d          12.004  -6.745  -2.309  0.00  0.00    -0.271 OA
ATOM     57  N   ACE d          10.817  -4.961  -1.745  0.00  0.00    -0.368 N 
ATOM     58  H29 ACE d          11.421  -4.348  -2.254  0.00  0.00     0.159 HD
ATOM     59  H30 ACE d          10.056  -4.587  -1.215  0.00  0.00     0.159 HD
ENDBRANCH  53  55
BRANCH  53  60
ATOM     60  CB  ACE d           8.599  -7.050  -1.459  0.00  0.00     0.036 C 
ATOM     61  H25 ACE d           8.586  -6.754  -2.518  0.00  0.00     0.051 H 
ATOM     62  H26 ACE d           8.085  -6.285  -0.858  0.00  0.00     0.051 H 
BRANCH  60  63
ATOM     63  CG  ACE d           7.846  -8.403  -1.305  0.00  0.00     0.217 C 
ATOM     64  OD1 ACE d           6.615  -8.407  -1.072  0.00  0.00    -0.274 OA
ATOM     65  ND2 ACE d           8.599  -9.485  -1.442  0.00  0.00    -0.370 N 
ATOM     66  H27 ACE d           8.188 -10.393  -1.356  0.00  0.00     0.159 HD
ATOM     67  H28 ACE d           9.577  -9.393  -1.629  0.00  0.00     0.159 HD
ENDBRANCH  60  63
ENDBRANCH  53  60
ENDBRANCH  51  53
ENDBRANCH   6  49
TORSDOF 13
ENDMDL
MODEL 5
REMARK VINA RESULT:      -4.3      2.006      5.220
REMARK  13 active torsions:
REMARK  status: ('A' for Active; 'I' for Inactive)
REMARK    1  A    between atoms: C_1  and  CH3_3 
REMARK       I    between atoms: N_4  and  C_1 
REMARK    2  A    between atoms: CA_5  and  N_4 
REMARK    3  A    between atoms: C_6  and  CA_5 
REMARK    4  A    between atoms: CA_5  and  CB_8 
REMARK       I    between atoms: N_26  and  C_6 
REMARK    5  A    between atoms: CB_8  and  CG_9 
REMARK    6  A    between atoms: CZ_14  and  OH_15 
REMARK    7  A    between atoms: OH_15  and  P_16 
REMARK    8  A    between atoms: CA_28  and  N_26 
REMARK    9  A    between atoms: C_27  and  CA_28 
REMARK       I    between atoms: C_27  and  N_29 
REMARK   10  A    between atoms: N_29  and  CA_30 
REMARK   11  A    between atoms: CA_30  and  C_31 
REMARK   12  A    between atoms: CA_30  and  CB_33 
REMARK       I    between atoms: C_31  and  N_37 
REMARK   13  A    between atoms: CB_33  and  CG_34 
REMARK       I    between atoms: CG_34  and  ND2_36 
ROOT
ATOM      1  CD  ACE d           3.690  -7.814   1.712  0.00  0.00    -0.065 C 
ATOM      2  CG  ACE d           4.449  -6.472   1.533  0.00  0.00    -0.062 C 
ATOM      3  CE  ACE d           4.429  -8.922   0.939  0.00  0.00    -0.062 C 
ATOM      4  CB  ACE d           4.597  -6.057   0.032  0.00  0.00    -0.033 C 
ATOM      5  CH  ACE d           4.645  -8.520  -0.532  0.00  0.00    -0.033 C 
ATOM      6  CA  ACE d           5.314  -7.153  -0.778  0.00  0.00     0.114 C 
ATOM      7  H12 ACE d           2.666  -7.711   1.321  0.00  0.00     0.033 H 
ATOM      8  H13 ACE d           3.649  -8.074   2.780  0.00  0.00     0.033 H 
ATOM      9  H14 ACE d           5.453  -6.576   1.970  0.00  0.00     0.033 H 
ATOM     10  H15 ACE d           3.898  -5.682   2.065  0.00  0.00     0.033 H 
ATOM     11  H16 ACE d           3.832  -9.846   0.975  0.00  0.00     0.033 H 
ATOM     12  H17 ACE d           5.407  -9.099   1.411  0.00  0.00     0.033 H 
ATOM     13  H18 ACE d           5.181  -5.127  -0.028  0.00  0.00     0.037 H 
ATOM     14  H19 ACE d           3.596  -5.891  -0.395  0.00  0.00     0.037 H 
ATOM     15  H20 ACE d           3.661  -8.504  -1.023  0.00  0.00     0.037 H 
ATOM     16  H21 ACE d           5.275  -9.290  -1.001  0.00  0.00     0.037 H 
ENDROOT
BRANCH   6  17
ATOM     17  N   ACE d           6.707  -7.301  -0.342  0.00  0.00    -0.341 N 
ATOM     18  C   ACE d           7.585  -8.088  -0.951  0.00  0.00     0.241 C 
ATOM     19  O   ACE d           7.338  -8.744  -1.952  0.00  0.00    -0.271 OA
ATOM     20  H22 ACE d           7.012  -6.780   0.456  0.00  0.00     0.163 HD
BRANCH  18  21
ATOM     21  CA  ACE d           8.968  -8.137  -0.316  0.00  0.00     0.093 C 
ATOM     22  H5  ACE d           9.078  -9.059   0.272  0.00  0.00     0.088 H 
BRANCH  21  23
ATOM     23  N   ACE d           9.980  -8.099  -1.406  0.00  0.00    -0.348 N 
ATOM     24  C   ACE d          10.532  -9.234  -1.869  0.00  0.00     0.214 C 
ATOM     25  O   ACE d          10.224 -10.364  -1.472  0.00  0.00    -0.274 OA
ATOM     26  H4  ACE d          10.252  -7.220  -1.798  0.00  0.00     0.163 HD
BRANCH  24  27
ATOM     27  CH3 ACE d          11.601  -9.074  -2.979  0.00  0.00    -0.003 C 
ATOM     28  H1  ACE d          12.480  -9.687  -2.733  0.00  0.00     0.040 H 
ATOM     29  H2  ACE d          11.900  -8.018  -3.050  0.00  0.00     0.040 H 
ATOM     30  H3  ACE d          11.182  -9.402  -3.941  0.00  0.00     0.040 H 
ENDBRANCH  24  27
ENDBRANCH  21  23
BRANCH  21  31
ATOM     31  CB  ACE d           9.182  -6.887   0.609  0.00  0.00    -0.014 C 
ATOM     32  H6  ACE d           8.832  -5.985   0.086  0.00  0.00     0.043 H 
ATOM     33  H7  ACE d          10.253  -6.786   0.840  0.00  0.00     0.043 H 
BRANCH  31  34
ATOM     34  CG  ACE d           8.401  -7.049   1.909  0.00  0.00    -0.056 A 
ATOM     35  CD1 ACE d           7.854  -5.917   2.483  0.00  0.00    -0.074 A 
ATOM     36  CE1 ACE d           7.219  -6.041   3.719  0.00  0.00    -0.050 A 
ATOM     37  H8  ACE d           7.917  -4.956   1.986  0.00  0.00     0.084 H 
ATOM     38  CZ  ACE d           7.109  -7.302   4.344  0.00  0.00     0.082 A 
ATOM     39  H10 ACE d           6.806  -5.163   4.203  0.00  0.00     0.087 H 
ATOM     40  CE2 ACE d           7.662  -8.443   3.780  0.00  0.00    -0.050 A 
ATOM     41  CD2 ACE d           8.290  -8.331   2.517  0.00  0.00    -0.074 A 
ATOM     42  H11 ACE d           7.613  -9.396   4.295  0.00  0.00     0.087 H 
ATOM     43  H9  ACE d           8.683  -9.210   2.019  0.00  0.00     0.084 H 
BRANCH  38  44
ATOM     44  OH  ACE d           6.453  -7.236   5.554  0.00  0.00    -0.240 OA
BRANCH  44  45
ATOM     45  P   ACE d           4.826  -7.468   5.727  0.00  0.00     0.427 P 
ATOM     46  O1P ACE d           4.674  -7.621   7.290  0.00  0.00    -0.617 OA
ATOM     47  O2P ACE d           4.046  -6.317   5.256  0.00  0.00    -0.617 OA
ATOM     48  O3P ACE d           4.506  -8.768   5.095  0.00  0.00    -0.617 OA
ENDBRANCH  44  45
ENDBRANCH  38  44
ENDBRANCH  31  34
ENDBRANCH  21  31
ENDBRANCH  18  21
ENDBRANCH   6  17
BRANCH   6  49
ATOM     49  C   ACE d           5.303  -6.696  -2.266  0.00  0.00     0.246 C 
ATOM     50  O   ACE d           4.372  -6.988  -3.078  0.00  0.00    -0.271 OA
ATOM     51  N   ACE d           6.305  -5.848  -2.588  0.00  0.00    -0.345 N 
ATOM     52  H23 ACE d           6.989  -5.612  -1.898  0.00  0.00     0.163 HD
BRANCH  51  53
ATOM     53  CA  ACE d           6.407  -5.267  -3.935  0.00  0.00     0.097 C 
ATOM     54  H24 ACE d           5.576  -4.556  -4.052  0.00  0.00     0.088 H 
BRANCH  53  55
ATOM     55  C   ACE d           6.254  -6.307  -5.040  0.00  0.00     0.238 C 
ATOM     56  O   ACE d           7.156  -7.095  -5.258  0.00  0.00    -0.271 OA
ATOM     57  N   ACE d           5.192  -6.236  -5.818  0.00  0.00    -0.368 N 
ATOM     58  H29 ACE d           5.064  -6.904  -6.551  0.00  0.00     0.159 HD
ATOM     59  H30 ACE d           4.515  -5.515  -5.675  0.00  0.00     0.159 HD
ENDBRANCH  53  55
BRANCH  53  60
ATOM     60  CB  ACE d           7.730  -4.458  -4.044  0.00  0.00     0.036 C 
ATOM     61  H25 ACE d           7.576  -3.461  -3.604  0.00  0.00     0.051 H 
ATOM     62  H26 ACE d           7.999  -4.353  -5.105  0.00  0.00     0.051 H 
BRANCH  60  63
ATOM     63  CG  ACE d           8.897  -5.164  -3.295  0.00  0.00     0.217 C 
ATOM     64  OD1 ACE d           9.020  -5.018  -2.057  0.00  0.00    -0.274 OA
ATOM     65  ND2 ACE d           9.696  -5.894  -4.059  0.00  0.00    -0.370 N 
ATOM     66  H27 ACE d          10.470  -6.379  -3.652  0.00  0.00     0.159 HD
ATOM     67  H28 ACE d           9.525  -5.959  -5.042  0.00  0.00     0.159 HD
ENDBRANCH  60  63
ENDBRANCH  53  60
ENDBRANCH  51  53
ENDBRANCH   6  49
TORSDOF 13
ENDMDL
MODEL 6
REMARK VINA RESULT:      -3.9      2.719      5.858
REMARK  13 active torsions:
REMARK  status: ('A' for Active; 'I' for Inactive)
REMARK    1  A    between atoms: C_1  and  CH3_3 
REMARK       I    between atoms: N_4  and  C_1 
REMARK    2  A    between atoms: CA_5  and  N_4 
REMARK    3  A    between atoms: C_6  and  CA_5 
REMARK    4  A    between atoms: CA_5  and  CB_8 
REMARK       I    between atoms: N_26  and  C_6 
REMARK    5  A    between atoms: CB_8  and  CG_9 
REMARK    6  A    between atoms: CZ_14  and  OH_15 
REMARK    7  A    between atoms: OH_15  and  P_16 
REMARK    8  A    between atoms: CA_28  and  N_26 
REMARK    9  A    between atoms: C_27  and  CA_28 
REMARK       I    between atoms: C_27  and  N_29 
REMARK   10  A    between atoms: N_29  and  CA_30 
REMARK   11  A    between atoms: CA_30  and  C_31 
REMARK   12  A    between atoms: CA_30  and  CB_33 
REMARK       I    between atoms: C_31  and  N_37 
REMARK   13  A    between atoms: CB_33  and  CG_34 
REMARK       I    between atoms: CG_34  and  ND2_36 
ROOT
ATOM      1  CD  ACE d          11.963  -9.260  -3.488  0.00  0.00    -0.065 C 
ATOM      2  CG  ACE d          10.728  -9.764  -2.695  0.00  0.00    -0.062 C 
ATOM      3  CE  ACE d          12.434  -7.918  -2.896  0.00  0.00    -0.062 C 
ATOM      4  CB  ACE d           9.545  -8.741  -2.706  0.00  0.00    -0.033 C 
ATOM      5  CH  ACE d          11.275  -6.905  -2.835  0.00  0.00    -0.033 C 
ATOM      6  CA  ACE d           9.985  -7.379  -2.139  0.00  0.00     0.114 C 
ATOM      7  H12 ACE d          11.689  -9.120  -4.544  0.00  0.00     0.033 H 
ATOM      8  H13 ACE d          12.774  -9.999  -3.415  0.00  0.00     0.033 H 
ATOM      9  H14 ACE d          11.029  -9.944  -1.652  0.00  0.00     0.033 H 
ATOM     10  H15 ACE d          10.383 -10.708  -3.144  0.00  0.00     0.033 H 
ATOM     11  H16 ACE d          13.237  -7.509  -3.525  0.00  0.00     0.033 H 
ATOM     12  H17 ACE d          12.816  -8.089  -1.878  0.00  0.00     0.033 H 
ATOM     13  H18 ACE d           8.722  -9.137  -2.092  0.00  0.00     0.037 H 
ATOM     14  H19 ACE d           9.197  -8.605  -3.741  0.00  0.00     0.037 H 
ATOM     15  H20 ACE d          11.017  -6.631  -3.868  0.00  0.00     0.037 H 
ATOM     16  H21 ACE d          11.637  -6.015  -2.300  0.00  0.00     0.037 H 
ENDROOT
BRANCH   6  17
ATOM     17  N   ACE d          10.311  -7.485  -0.712  0.00  0.00    -0.341 N 
ATOM     18  C   ACE d          10.479  -6.434   0.080  0.00  0.00     0.241 C 
ATOM     19  O   ACE d          10.349  -5.274  -0.283  0.00  0.00    -0.271 OA
ATOM     20  H22 ACE d          10.411  -8.397  -0.316  0.00  0.00     0.163 HD
BRANCH  18  21
ATOM     21  CA  ACE d          10.858  -6.755   1.519  0.00  0.00     0.093 C 
ATOM     22  H5  ACE d          11.952  -6.770   1.624  0.00  0.00     0.088 H 
BRANCH  21  23
ATOM     23  N   ACE d          10.272  -5.707   2.398  0.00  0.00    -0.348 N 
ATOM     24  C   ACE d          10.965  -5.224   3.444  0.00  0.00     0.214 C 
ATOM     25  O   ACE d          12.120  -5.567   3.725  0.00  0.00    -0.274 OA
ATOM     26  H4  ACE d           9.354  -5.358   2.208  0.00  0.00     0.163 HD
BRANCH  24  27
ATOM     27  CH3 ACE d          10.244  -4.163   4.313  0.00  0.00    -0.003 C 
ATOM     28  H1  ACE d           9.301  -3.871   3.828  0.00  0.00     0.040 H 
ATOM     29  H2  ACE d          10.889  -3.278   4.421  0.00  0.00     0.040 H 
ATOM     30  H3  ACE d          10.031  -4.585   5.305  0.00  0.00     0.040 H 
ENDBRANCH  24  27
ENDBRANCH  21  23
BRANCH  21  31
ATOM     31  CB  ACE d          10.263  -8.147   1.936  0.00  0.00    -0.014 C 
ATOM     32  H6  ACE d          10.977  -8.663   2.594  0.00  0.00     0.043 H 
ATOM     33  H7  ACE d          10.091  -8.752   1.033  0.00  0.00     0.043 H 
BRANCH  31  34
ATOM     34  CG  ACE d           8.942  -7.960   2.675  0.00  0.00    -0.056 A 
ATOM     35  CD1 ACE d           8.904  -8.264   4.023  0.00  0.00    -0.074 A 
ATOM     36  CE1 ACE d           7.679  -8.186   4.686  0.00  0.00    -0.050 A 
ATOM     37  H8  ACE d           9.804  -8.556   4.552  0.00  0.00     0.084 H 
ATOM     38  CZ  ACE d           6.518  -7.769   3.998  0.00  0.00     0.082 A 
ATOM     39  H10 ACE d           7.618  -8.446   5.736  0.00  0.00     0.087 H 
ATOM     40  CE2 ACE d           6.544  -7.470   2.644  0.00  0.00    -0.050 A 
ATOM     41  CD2 ACE d           7.786  -7.527   1.966  0.00  0.00    -0.074 A 
ATOM     42  H11 ACE d           5.636  -7.200   2.117  0.00  0.00     0.087 H 
ATOM     43  H9  ACE d           7.856  -7.245   0.922  0.00  0.00     0.084 H 
BRANCH  38  44
ATOM     44  OH  ACE d           5.404  -7.751   4.808  0.00  0.00    -0.240 OA
BRANCH  44  45
ATOM     45  P   ACE d           4.951  -6.444   5.712  0.00  0.00     0.427 P 
ATOM     46  O1P ACE d           4.465  -7.117   7.054  0.00  0.00    -0.617 OA
ATOM     47  O2P ACE d           6.075  -5.538   5.982  0.00  0.00    -0.617 OA
ATOM     48  O3P ACE d           3.780  -5.838   5.039  0.00  0.00    -0.617 OA
ENDBRANCH  44  45
ENDBRANCH  38  44
ENDBRANCH  31  34
ENDBRANCH  21  31
ENDBRANCH  18  21
ENDBRANCH   6  17
BRANCH   6  49
ATOM     49  C   ACE d           8.778  -6.409  -2.304  0.00  0.00     0.246 C 
ATOM     50  O   ACE d           8.753  -5.465  -3.152  0.00  0.00    -0.271 OA
ATOM     51  N   ACE d           7.701  -6.740  -1.558  0.00  0.00    -0.345 N 
ATOM     52  H23 ACE d           7.755  -7.523  -0.938  0.00  0.00     0.163 HD
BRANCH  51  53
ATOM     53  CA  ACE d           6.451  -5.970  -1.641  0.00  0.00     0.097 C 
ATOM     54  H24 ACE d           6.532  -5.302  -2.511  0.00  0.00     0.088 H 
BRANCH  53  55
ATOM     55  C   ACE d           6.224  -5.079  -0.424  0.00  0.00     0.238 C 
ATOM     56  O   ACE d           7.179  -4.606   0.166  0.00  0.00    -0.271 OA
ATOM     57  N   ACE d           4.995  -4.953   0.034  0.00  0.00    -0.368 N 
ATOM     58  H29 ACE d           4.814  -4.376   0.831  0.00  0.00     0.159 HD
ATOM     59  H30 ACE d           4.242  -5.434  -0.416  0.00  0.00     0.159 HD
ENDBRANCH  53  55
BRANCH  53  60
ATOM     60  CB  ACE d           5.268  -6.942  -1.910  0.00  0.00     0.036 C 
ATOM     61  H25 ACE d           5.408  -7.411  -2.895  0.00  0.00     0.051 H 
ATOM     62  H26 ACE d           4.328  -6.371  -1.906  0.00  0.00     0.051 H 
BRANCH  60  63
ATOM     63  CG  ACE d           5.186  -8.057  -0.828  0.00  0.00     0.217 C 
ATOM     64  OD1 ACE d           4.318  -7.986   0.074  0.00  0.00    -0.274 OA
ATOM     65  ND2 ACE d           6.074  -9.032  -0.955  0.00  0.00    -0.370 N 
ATOM     66  H27 ACE d           6.086  -9.786  -0.298  0.00  0.00     0.159 HD
ATOM     67  H28 ACE d           6.732  -9.013  -1.708  0.00  0.00     0.159 HD
ENDBRANCH  60  63
ENDBRANCH  53  60
ENDBRANCH  51  53
ENDBRANCH   6  49
TORSDOF 13
ENDMDL
MODEL 7
REMARK VINA RESULT:      -3.9      2.744      5.653
REMARK  13 active torsions:
REMARK  status: ('A' for Active; 'I' for Inactive)
REMARK    1  A    between atoms: C_1  and  CH3_3 
REMARK       I    between atoms: N_4  and  C_1 
REMARK    2  A    between atoms: CA_5  and  N_4 
REMARK    3  A    between atoms: C_6  and  CA_5 
REMARK    4  A    between atoms: CA_5  and  CB_8 
REMARK       I    between atoms: N_26  and  C_6 
REMARK    5  A    between atoms: CB_8  and  CG_9 
REMARK    6  A    between atoms: CZ_14  and  OH_15 
REMARK    7  A    between atoms: OH_15  and  P_16 
REMARK    8  A    between atoms: CA_28  and  N_26 
REMARK    9  A    between atoms: C_27  and  CA_28 
REMARK       I    between atoms: C_27  and  N_29 
REMARK   10  A    between atoms: N_29  and  CA_30 
REMARK   11  A    between atoms: CA_30  and  C_31 
REMARK   12  A    between atoms: CA_30  and  CB_33 
REMARK       I    between atoms: C_31  and  N_37 
REMARK   13  A    between atoms: CB_33  and  CG_34 
REMARK       I    between atoms: CG_34  and  ND2_36 
ROOT
ATOM      1  CD  ACE d          11.258  -9.141  -2.259  0.00  0.00    -0.065 C 
ATOM      2  CG  ACE d          10.064  -9.675  -1.425  0.00  0.00    -0.062 C 
ATOM      3  CE  ACE d          11.223  -7.601  -2.268  0.00  0.00    -0.062 C 
ATOM      4  CB  ACE d           8.681  -9.185  -1.966  0.00  0.00    -0.033 C 
ATOM      5  CH  ACE d           9.851  -7.083  -2.740  0.00  0.00    -0.033 C 
ATOM      6  CA  ACE d           8.617  -7.647  -2.009  0.00  0.00     0.114 C 
ATOM      7  H12 ACE d          11.183  -9.517  -3.291  0.00  0.00     0.033 H 
ATOM      8  H13 ACE d          12.203  -9.485  -1.812  0.00  0.00     0.033 H 
ATOM      9  H14 ACE d          10.178  -9.330  -0.387  0.00  0.00     0.033 H 
ATOM     10  H15 ACE d          10.082 -10.775  -1.449  0.00  0.00     0.033 H 
ATOM     11  H16 ACE d          12.002  -7.227  -2.949  0.00  0.00     0.033 H 
ATOM     12  H17 ACE d          11.417  -7.231  -1.250  0.00  0.00     0.033 H 
ATOM     13  H18 ACE d           7.883  -9.559  -1.307  0.00  0.00     0.037 H 
ATOM     14  H19 ACE d           8.533  -9.579  -2.983  0.00  0.00     0.037 H 
ATOM     15  H20 ACE d           9.750  -7.329  -3.807  0.00  0.00     0.037 H 
ATOM     16  H21 ACE d           9.845  -5.991  -2.614  0.00  0.00     0.037 H 
ENDROOT
BRANCH   6  17
ATOM     17  N   ACE d           8.655  -7.082  -0.655  0.00  0.00    -0.341 N 
ATOM     18  C   ACE d           8.396  -5.809  -0.386  0.00  0.00     0.241 C 
ATOM     19  O   ACE d           8.067  -4.984  -1.225  0.00  0.00    -0.271 OA
ATOM     20  H22 ACE d           8.889  -7.689   0.105  0.00  0.00     0.163 HD
BRANCH  18  21
ATOM     21  CA  ACE d           8.534  -5.410   1.077  0.00  0.00     0.093 C 
ATOM     22  H5  ACE d           8.398  -6.292   1.720  0.00  0.00     0.088 H 
BRANCH  21  23
ATOM     23  N   ACE d           9.892  -4.835   1.275  0.00  0.00    -0.348 N 
ATOM     24  C   ACE d          10.654  -5.219   2.314  0.00  0.00     0.214 C 
ATOM     25  O   ACE d          10.321  -6.083   3.134  0.00  0.00    -0.274 OA
ATOM     26  H4  ACE d          10.240  -4.155   0.629  0.00  0.00     0.163 HD
BRANCH  24  27
ATOM     27  CH3 ACE d          12.035  -4.528   2.443  0.00  0.00    -0.003 C 
ATOM     28  H1  ACE d          12.092  -3.999   3.405  0.00  0.00     0.040 H 
ATOM     29  H2  ACE d          12.163  -3.808   1.621  0.00  0.00     0.040 H 
ATOM     30  H3  ACE d          12.830  -5.286   2.394  0.00  0.00     0.040 H 
ENDBRANCH  24  27
ENDBRANCH  21  23
BRANCH  21  31
ATOM     31  CB  ACE d           7.468  -4.316   1.441  0.00  0.00    -0.014 C 
ATOM     32  H6  ACE d           6.936  -4.011   0.528  0.00  0.00     0.043 H 
ATOM     33  H7  ACE d           7.979  -3.445   1.878  0.00  0.00     0.043 H 
BRANCH  31  34
ATOM     34  CG  ACE d           6.464  -4.868   2.448  0.00  0.00    -0.056 A 
ATOM     35  CD1 ACE d           6.872  -5.005   3.762  0.00  0.00    -0.074 A 
ATOM     36  CE1 ACE d           5.993  -5.596   4.670  0.00  0.00    -0.050 A 
ATOM     37  H8  ACE d           7.851  -4.663   4.078  0.00  0.00     0.084 H 
ATOM     38  CZ  ACE d           4.706  -6.005   4.258  0.00  0.00     0.082 A 
ATOM     39  H10 ACE d           6.300  -5.740   5.700  0.00  0.00     0.087 H 
ATOM     40  CE2 ACE d           4.291  -5.879   2.940  0.00  0.00    -0.050 A 
ATOM     41  CD2 ACE d           5.168  -5.263   2.015  0.00  0.00    -0.074 A 
ATOM     42  H11 ACE d           3.319  -6.244   2.627  0.00  0.00     0.087 H 
ATOM     43  H9  ACE d           4.855  -5.095   0.991  0.00  0.00     0.084 H 
BRANCH  38  44
ATOM     44  OH  ACE d           3.977  -6.565   5.284  0.00  0.00    -0.240 OA
BRANCH  44  45
ATOM     45  P   ACE d           4.587  -7.686   6.335  0.00  0.00     0.427 P 
ATOM     46  O1P ACE d           4.676  -6.868   7.682  0.00  0.00    -0.617 OA
ATOM     47  O2P ACE d           3.690  -8.835   6.503  0.00  0.00    -0.617 OA
ATOM     48  O3P ACE d           5.961  -7.998   5.884  0.00  0.00    -0.617 OA
ENDBRANCH  44  45
ENDBRANCH  38  44
ENDBRANCH  31  34
ENDBRANCH  21  31
ENDBRANCH  18  21
ENDBRANCH   6  17
BRANCH   6  49
ATOM     49  C   ACE d           7.258  -7.269  -2.669  0.00  0.00     0.246 C 
ATOM     50  O   ACE d           7.078  -7.233  -3.924  0.00  0.00    -0.271 OA
ATOM     51  N   ACE d           6.245  -7.110  -1.788  0.00  0.00    -0.345 N 
ATOM     52  H23 ACE d           6.429  -7.194  -0.808  0.00  0.00     0.163 HD
BRANCH  51  53
ATOM     53  CA  ACE d           4.878  -6.816  -2.244  0.00  0.00     0.097 C 
ATOM     54  H24 ACE d           4.720  -7.361  -3.186  0.00  0.00     0.088 H 
BRANCH  53  55
ATOM     55  C   ACE d           4.664  -5.337  -2.551  0.00  0.00     0.238 C 
ATOM     56  O   ACE d           4.110  -5.009  -3.585  0.00  0.00    -0.271 OA
ATOM     57  N   ACE d           5.204  -4.449  -1.741  0.00  0.00    -0.368 N 
ATOM     58  H29 ACE d           5.081  -3.472  -1.916  0.00  0.00     0.159 HD
ATOM     59  H30 ACE d           5.737  -4.752  -0.951  0.00  0.00     0.159 HD
ENDBRANCH  53  55
BRANCH  53  60
ATOM     60  CB  ACE d           3.862  -7.374  -1.208  0.00  0.00     0.036 C 
ATOM     61  H25 ACE d           2.898  -7.543  -1.709  0.00  0.00     0.051 H 
ATOM     62  H26 ACE d           3.732  -6.636  -0.402  0.00  0.00     0.051 H 
BRANCH  60  63
ATOM     63  CG  ACE d           4.352  -8.715  -0.591  0.00  0.00     0.217 C 
ATOM     64  OD1 ACE d           4.408  -9.744  -1.303  0.00  0.00    -0.274 OA
ATOM     65  ND2 ACE d           4.685  -8.658   0.690  0.00  0.00    -0.370 N 
ATOM     66  H27 ACE d           5.009  -9.479   1.160  0.00  0.00     0.159 HD
ATOM     67  H28 ACE d           4.612  -7.793   1.187  0.00  0.00     0.159 HD
ENDBRANCH  60  63
ENDBRANCH  53  60
ENDBRANCH  51  53
ENDBRANCH   6  49
TORSDOF 13
ENDMDL
MODEL 8
REMARK VINA RESULT:      -3.4      2.089      3.304
REMARK  13 active torsions:
REMARK  status: ('A' for Active; 'I' for Inactive)
REMARK    1  A    between atoms: C_1  and  CH3_3 
REMARK       I    between atoms: N_4  and  C_1 
REMARK    2  A    between atoms: CA_5  and  N_4 
REMARK    3  A    between atoms: C_6  and  CA_5 
REMARK    4  A    between atoms: CA_5  and  CB_8 
REMARK       I    between atoms: N_26  and  C_6 
REMARK    5  A    between atoms: CB_8  and  CG_9 
REMARK    6  A    between atoms: CZ_14  and  OH_15 
REMARK    7  A    between atoms: OH_15  and  P_16 
REMARK    8  A    between atoms: CA_28  and  N_26 
REMARK    9  A    between atoms: C_27  and  CA_28 
REMARK       I    between atoms: C_27  and  N_29 
REMARK   10  A    between atoms: N_29  and  CA_30 
REMARK   11  A    between atoms: CA_30  and  C_31 
REMARK   12  A    between atoms: CA_30  and  CB_33 
REMARK       I    between atoms: C_31  and  N_37 
REMARK   13  A    between atoms: CB_33  and  CG_34 
REMARK       I    between atoms: CG_34  and  ND2_36 
ROOT
ATOM      1  CD  ACE d           9.552  -8.037   2.464  0.00  0.00    -0.065 C 
ATOM      2  CG  ACE d           9.600  -8.652   1.040  0.00  0.00    -0.062 C 
ATOM      3  CE  ACE d           8.535  -6.880   2.483  0.00  0.00    -0.062 C 
ATOM      4  CB  ACE d           9.976  -7.603  -0.058  0.00  0.00    -0.033 C 
ATOM      5  CH  ACE d           8.841  -5.858   1.373  0.00  0.00    -0.033 C 
ATOM      6  CA  ACE d           8.992  -6.419  -0.054  0.00  0.00     0.114 C 
ATOM      7  H12 ACE d          10.548  -7.656   2.734  0.00  0.00     0.033 H 
ATOM      8  H13 ACE d           9.246  -8.807   3.187  0.00  0.00     0.033 H 
ATOM      9  H14 ACE d           8.610  -9.069   0.804  0.00  0.00     0.033 H 
ATOM     10  H15 ACE d          10.349  -9.458   1.029  0.00  0.00     0.033 H 
ATOM     11  H16 ACE d           8.583  -6.375   3.460  0.00  0.00     0.033 H 
ATOM     12  H17 ACE d           7.524  -7.287   2.329  0.00  0.00     0.033 H 
ATOM     13  H18 ACE d           9.949  -8.090  -1.044  0.00  0.00     0.037 H 
ATOM     14  H19 ACE d          10.992  -7.227   0.137  0.00  0.00     0.037 H 
ATOM     15  H20 ACE d           9.782  -5.351   1.634  0.00  0.00     0.037 H 
ATOM     16  H21 ACE d           8.022  -5.124   1.359  0.00  0.00     0.037 H 
ENDROOT
BRANCH   6  17
ATOM     17  N   ACE d           7.650  -6.851  -0.463  0.00  0.00    -0.341 N 
ATOM     18  C   ACE d           6.627  -6.020  -0.610  0.00  0.00     0.241 C 
ATOM     19  O   ACE d           6.699  -4.810  -0.455  0.00  0.00    -0.271 OA
ATOM     20  H22 ACE d           7.499  -7.824  -0.639  0.00  0.00     0.163 HD
BRANCH  18  21
ATOM     21  CA  ACE d           5.306  -6.671  -0.995  0.00  0.00     0.093 C 
ATOM     22  H5  ACE d           4.468  -6.036  -0.676  0.00  0.00     0.088 H 
BRANCH  21  23
ATOM     23  N   ACE d           5.288  -6.843  -2.473  0.00  0.00    -0.348 N 
ATOM     24  C   ACE d           4.606  -5.986  -3.254  0.00  0.00     0.214 C 
ATOM     25  O   ACE d           3.998  -4.996  -2.828  0.00  0.00    -0.274 OA
ATOM     26  H4  ACE d           5.787  -7.603  -2.889  0.00  0.00     0.163 HD
BRANCH  24  27
ATOM     27  CH3 ACE d           4.625  -6.281  -4.775  0.00  0.00    -0.003 C 
ATOM     28  H1  ACE d           3.824  -5.712  -5.269  0.00  0.00     0.040 H 
ATOM     29  H2  ACE d           4.467  -7.356  -4.941  0.00  0.00     0.040 H 
ATOM     30  H3  ACE d           5.598  -5.984  -5.193  0.00  0.00     0.040 H 
ENDBRANCH  24  27
ENDBRANCH  21  23
BRANCH  21  31
ATOM     31  CB  ACE d           5.187  -8.087  -0.326  0.00  0.00    -0.014 C 
ATOM     32  H6  ACE d           6.133  -8.631  -0.458  0.00  0.00     0.043 H 
ATOM     33  H7  ACE d           4.371  -8.646  -0.805  0.00  0.00     0.043 H 
BRANCH  31  34
ATOM     34  CG  ACE d           4.892  -7.946   1.164  0.00  0.00    -0.056 A 
ATOM     35  CD1 ACE d           5.204  -9.009   1.990  0.00  0.00    -0.074 A 
ATOM     36  CE1 ACE d           4.852  -8.926   3.338  0.00  0.00    -0.050 A 
ATOM     37  H8  ACE d           5.708  -9.886   1.601  0.00  0.00     0.084 H 
ATOM     38  CZ  ACE d           4.228  -7.766   3.845  0.00  0.00     0.082 A 
ATOM     39  H10 ACE d           5.061  -9.758   4.001  0.00  0.00     0.087 H 
ATOM     40  CE2 ACE d           3.904  -6.697   3.023  0.00  0.00    -0.050 A 
ATOM     41  CD2 ACE d           4.274  -6.762   1.658  0.00  0.00    -0.074 A 
ATOM     42  H11 ACE d           3.379  -5.833   3.415  0.00  0.00     0.087 H 
ATOM     43  H9  ACE d           4.089  -5.923   0.998  0.00  0.00     0.084 H 
BRANCH  38  44
ATOM     44  OH  ACE d           3.955  -7.860   5.192  0.00  0.00    -0.240 OA
BRANCH  44  45
ATOM     45  P   ACE d           5.068  -7.556   6.375  0.00  0.00     0.427 P 
ATOM     46  O1P ACE d           4.453  -6.294   7.097  0.00  0.00    -0.617 OA
ATOM     47  O2P ACE d           5.189  -8.669   7.325  0.00  0.00    -0.617 OA
ATOM     48  O3P ACE d           6.318  -7.145   5.697  0.00  0.00    -0.617 OA
ENDBRANCH  44  45
ENDBRANCH  38  44
ENDBRANCH  31  34
ENDBRANCH  21  31
ENDBRANCH  18  21
ENDBRANCH   6  17
BRANCH   6  49
ATOM     49  C   ACE d           9.521  -5.387  -1.093  0.00  0.00     0.246 C 
ATOM     50  O   ACE d           9.919  -4.224  -0.780  0.00  0.00    -0.271 OA
ATOM     51  N   ACE d           9.646  -5.883  -2.345  0.00  0.00    -0.345 N 
ATOM     52  H23 ACE d           9.361  -6.822  -2.532  0.00  0.00     0.163 HD
BRANCH  51  53
ATOM     53  CA  ACE d          10.193  -5.063  -3.436  0.00  0.00     0.097 C 
ATOM     54  H24 ACE d          10.370  -4.054  -3.036  0.00  0.00     0.088 H 
BRANCH  53  55
ATOM     55  C   ACE d           9.223  -4.909  -4.603  0.00  0.00     0.238 C 
ATOM     56  O   ACE d           9.632  -5.001  -5.746  0.00  0.00    -0.271 OA
ATOM     57  N   ACE d           7.984  -4.549  -4.337  0.00  0.00    -0.368 N 
ATOM     58  H29 ACE d           7.324  -4.440  -5.081  0.00  0.00     0.159 HD
ATOM     59  H30 ACE d           7.702  -4.386  -3.391  0.00  0.00     0.159 HD
ENDBRANCH  53  55
BRANCH  53  60
ATOM     60  CB  ACE d          11.572  -5.640  -3.867  0.00  0.00     0.036 C 
ATOM     61  H25 ACE d          12.354  -5.212  -3.223  0.00  0.00     0.051 H 
ATOM     62  H26 ACE d          11.765  -5.361  -4.913  0.00  0.00     0.051 H 
BRANCH  60  63
ATOM     63  CG  ACE d          11.608  -7.190  -3.742  0.00  0.00     0.217 C 
ATOM     64  OD1 ACE d          10.632  -7.869  -4.139  0.00  0.00    -0.274 OA
ATOM     65  ND2 ACE d          12.714  -7.687  -3.208  0.00  0.00    -0.370 N 
ATOM     66  H27 ACE d          12.814  -8.675  -3.094  0.00  0.00     0.159 HD
ATOM     67  H28 ACE d          13.449  -7.073  -2.919  0.00  0.00     0.159 HD
ENDBRANCH  60  63
ENDBRANCH  53  60
ENDBRANCH  51  53
ENDBRANCH   6  49
TORSDOF 13
ENDMDL
MODEL 9
REMARK VINA RESULT:      -3.3      2.398      5.785
REMARK  13 active torsions:
REMARK  status: ('A' for Active; 'I' for Inactive)
REMARK    1  A    between atoms: C_1  and  CH3_3 
REMARK       I    between atoms: N_4  and  C_1 
REMARK    2  A    between atoms: CA_5  and  N_4 
REMARK    3  A    between atoms: C_6  and  CA_5 
REMARK    4  A    between atoms: CA_5  and  CB_8 
REMARK       I    between atoms: N_26  and  C_6 
REMARK    5  A    between atoms: CB_8  and  CG_9 
REMARK    6  A    between atoms: CZ_14  and  OH_15 
REMARK    7  A    between atoms: OH_15  and  P_16 
REMARK    8  A    between atoms: CA_28  and  N_26 
REMARK    9  A    between atoms: C_27  and  CA_28 
REMARK       I    between atoms: C_27  and  N_29 
REMARK   10  A    between atoms: N_29  and  CA_30 
REMARK   11  A    between atoms: CA_30  and  C_31 
REMARK   12  A    between atoms: CA_30  and  CB_33 
REMARK       I    between atoms: C_31  and  N_37 
REMARK   13  A    between atoms: CB_33  and  CG_34 
REMARK       I    between atoms: CG_34  and  ND2_36 
ROOT
ATOM      1  CD  ACE d          11.087 -10.771  -2.577  0.00  0.00    -0.065 C 
ATOM      2  CG  ACE d          10.199 -10.456  -1.343  0.00  0.00    -0.062 C 
ATOM      3  CE  ACE d          11.474  -9.453  -3.274  0.00  0.00    -0.062 C 
ATOM      4  CB  ACE d           8.906  -9.660  -1.718  0.00  0.00    -0.033 C 
ATOM      5  CH  ACE d          10.225  -8.615  -3.603  0.00  0.00    -0.033 C 
ATOM      6  CA  ACE d           9.254  -8.343  -2.437  0.00  0.00     0.114 C 
ATOM      7  H12 ACE d          10.528 -11.408  -3.279  0.00  0.00     0.033 H 
ATOM      8  H13 ACE d          11.997 -11.296  -2.251  0.00  0.00     0.033 H 
ATOM      9  H14 ACE d          10.786  -9.858  -0.631  0.00  0.00     0.033 H 
ATOM     10  H15 ACE d           9.904 -11.404  -0.870  0.00  0.00     0.033 H 
ATOM     11  H16 ACE d          12.009  -9.683  -4.207  0.00  0.00     0.033 H 
ATOM     12  H17 ACE d          12.131  -8.873  -2.607  0.00  0.00     0.033 H 
ATOM     13  H18 ACE d           8.346  -9.430  -0.799  0.00  0.00     0.037 H 
ATOM     14  H19 ACE d           8.283 -10.278  -2.382  0.00  0.00     0.037 H 
ATOM     15  H20 ACE d           9.665  -9.143  -4.388  0.00  0.00     0.037 H 
ATOM     16  H21 ACE d          10.566  -7.642  -3.987  0.00  0.00     0.037 H 
ENDROOT
BRANCH   6  17
ATOM     17  N   ACE d           9.954  -7.422  -1.534  0.00  0.00    -0.341 N 
ATOM     18  C   ACE d           9.881  -6.101  -1.637  0.00  0.00     0.241 C 
ATOM     19  O   ACE d           9.202  -5.514  -2.466  0.00  0.00    -0.271 OA
ATOM     20  H22 ACE d          10.515  -7.810  -0.803  0.00  0.00     0.163 HD
BRANCH  18  21
ATOM     21  CA  ACE d          10.717  -5.322  -0.632  0.00  0.00     0.093 C 
ATOM     22  H5  ACE d          11.223  -6.017   0.054  0.00  0.00     0.088 H 
BRANCH  21  23
ATOM     23  N   ACE d          11.720  -4.521  -1.384  0.00  0.00    -0.348 N 
ATOM     24  C   ACE d          12.756  -5.121  -1.997  0.00  0.00     0.214 C 
ATOM     25  O   ACE d          12.930  -6.345  -2.021  0.00  0.00    -0.274 OA
ATOM     26  H4  ACE d          11.623  -3.527  -1.434  0.00  0.00     0.163 HD
BRANCH  24  27
ATOM     27  CH3 ACE d          13.760  -4.187  -2.719  0.00  0.00    -0.003 C 
ATOM     28  H1  ACE d          14.741  -4.251  -2.227  0.00  0.00     0.040 H 
ATOM     29  H2  ACE d          13.394  -3.151  -2.674  0.00  0.00     0.040 H 
ATOM     30  H3  ACE d          13.856  -4.496  -3.770  0.00  0.00     0.040 H 
ENDBRANCH  24  27
ENDBRANCH  21  23
BRANCH  21  31
ATOM     31  CB  ACE d           9.804  -4.339   0.185  0.00  0.00    -0.014 C 
ATOM     32  H6  ACE d           9.091  -3.855  -0.499  0.00  0.00     0.043 H 
ATOM     33  H7  ACE d          10.432  -3.574   0.663  0.00  0.00     0.043 H 
BRANCH  31  34
ATOM     34  CG  ACE d           9.033  -5.101   1.259  0.00  0.00    -0.056 A 
ATOM     35  CD1 ACE d           9.756  -5.705   2.270  0.00  0.00    -0.074 A 
ATOM     36  CE1 ACE d           9.068  -6.481   3.204  0.00  0.00    -0.050 A 
ATOM     37  H8  ACE d          10.830  -5.580   2.336  0.00  0.00     0.084 H 
ATOM     38  CZ  ACE d           7.664  -6.610   3.132  0.00  0.00     0.082 A 
ATOM     39  H10 ACE d           9.616  -6.988   3.990  0.00  0.00     0.087 H 
ATOM     40  CE2 ACE d           6.931  -6.014   2.116  0.00  0.00    -0.050 A 
ATOM     41  CD2 ACE d           7.616  -5.208   1.176  0.00  0.00    -0.074 A 
ATOM     42  H11 ACE d           5.859  -6.163   2.045  0.00  0.00     0.087 H 
ATOM     43  H9  ACE d           7.070  -4.680   0.403  0.00  0.00     0.084 H 
BRANCH  38  44
ATOM     44  OH  ACE d           7.157  -7.410   4.132  0.00  0.00    -0.240 OA
BRANCH  44  45
ATOM     45  P   ACE d           5.582  -7.365   4.630  0.00  0.00     0.427 P 
ATOM     46  O1P ACE d           5.347  -5.821   4.857  0.00  0.00    -0.617 OA
ATOM     47  O2P ACE d           4.660  -7.869   3.605  0.00  0.00    -0.617 OA
ATOM     48  O3P ACE d           5.524  -8.046   5.943  0.00  0.00    -0.617 OA
ENDBRANCH  44  45
ENDBRANCH  38  44
ENDBRANCH  31  34
ENDBRANCH  21  31
ENDBRANCH  18  21
ENDBRANCH   6  17
BRANCH   6  49
ATOM     49  C   ACE d           7.906  -7.692  -2.867  0.00  0.00     0.246 C 
ATOM     50  O   ACE d           7.613  -7.430  -4.073  0.00  0.00    -0.271 OA
ATOM     51  N   ACE d           7.018  -7.551  -1.859  0.00  0.00    -0.345 N 
ATOM     52  H23 ACE d           7.281  -7.816  -0.931  0.00  0.00     0.163 HD
BRANCH  51  53
ATOM     53  CA  ACE d           5.670  -7.014  -2.101  0.00  0.00     0.097 C 
ATOM     54  H24 ACE d           5.531  -6.951  -3.191  0.00  0.00     0.088 H 
BRANCH  53  55
ATOM     55  C   ACE d           5.490  -5.602  -1.553  0.00  0.00     0.238 C 
ATOM     56  O   ACE d           4.616  -5.379  -0.735  0.00  0.00    -0.271 OA
ATOM     57  N   ACE d           6.207  -4.633  -2.084  0.00  0.00    -0.368 N 
ATOM     58  H29 ACE d           6.111  -3.696  -1.745  0.00  0.00     0.159 HD
ATOM     59  H30 ACE d           6.849  -4.833  -2.824  0.00  0.00     0.159 HD
ENDBRANCH  53  55
BRANCH  53  60
ATOM     60  CB  ACE d           4.615  -8.016  -1.555  0.00  0.00     0.036 C 
ATOM     61  H25 ACE d           4.720  -8.972  -2.088  0.00  0.00     0.051 H 
ATOM     62  H26 ACE d           3.609  -7.607  -1.732  0.00  0.00     0.051 H 
BRANCH  60  63
ATOM     63  CG  ACE d           4.797  -8.266  -0.031  0.00  0.00     0.217 C 
ATOM     64  OD1 ACE d           5.936  -8.525   0.426  0.00  0.00    -0.274 OA
ATOM     65  ND2 ACE d           3.690  -8.179   0.692  0.00  0.00    -0.370 N 
ATOM     66  H27 ACE d           3.725  -8.327   1.680  0.00  0.00     0.159 HD
ATOM     67  H28 ACE d           2.820  -7.966   0.248  0.00  0.00     0.159 HD
ENDBRANCH  60  63
ENDBRANCH  53  60
ENDBRANCH  51  53
ENDBRANCH   6  49
TORSDOF 13
ENDMDL
MODEL 10
REMARK VINA RESULT:      -3.1      2.669      5.442
REMARK  13 active torsions:
REMARK  status: ('A' for Active; 'I' for Inactive)
REMARK    1  A    between atoms: C_1  and  CH3_3 
REMARK       I    between atoms: N_4  and  C_1 
REMARK    2  A    between atoms: CA_5  and  N_4 
REMARK    3  A    between atoms: C_6  and  CA_5 
REMARK    4  A    between atoms: CA_5  and  CB_8 
REMARK       I    between atoms: N_26  and  C_6 
REMARK    5  A    between atoms: CB_8  and  CG_9 
REMARK    6  A    between atoms: CZ_14  and  OH_15 
REMARK    7  A    between atoms: OH_15  and  P_16 
REMARK    8  A    between atoms: CA_28  and  N_26 
REMARK    9  A    between atoms: C_27  and  CA_28 
REMARK       I    between atoms: C_27  and  N_29 
REMARK   10  A    between atoms: N_29  and  CA_30 
REMARK   11  A    between atoms: CA_30  and  C_31 
REMARK   12  A    between atoms: CA_30  and  CB_33 
REMARK       I    between atoms: C_31  and  N_37 
REMARK   13  A    between atoms: CB_33  and  CG_34 
REMARK       I    between atoms: CG_34  and  ND2_36 
ROOT
ATOM      1  CD  ACE d          11.314 -11.030  -2.870  0.00  0.00    -0.065 C 
ATOM      2  CG  ACE d          10.167 -11.490  -1.931  0.00  0.00    -0.062 C 
ATOM      3  CE  ACE d          11.802  -9.637  -2.430  0.00  0.00    -0.062 C 
ATOM      4  CB  ACE d           8.962 -10.492  -1.917  0.00  0.00    -0.033 C 
ATOM      5  CH  ACE d          10.628  -8.642  -2.347  0.00  0.00    -0.033 C 
ATOM      6  CA  ACE d           9.416  -9.081  -1.502  0.00  0.00     0.114 C 
ATOM      7  H12 ACE d          10.945 -10.982  -3.905  0.00  0.00     0.033 H 
ATOM      8  H13 ACE d          12.147 -11.747  -2.811  0.00  0.00     0.033 H 
ATOM      9  H14 ACE d          10.563 -11.579  -0.909  0.00  0.00     0.033 H 
ATOM     10  H15 ACE d           9.807 -12.473  -2.271  0.00  0.00     0.033 H 
ATOM     11  H16 ACE d          12.536  -9.266  -3.160  0.00  0.00     0.033 H 
ATOM     12  H17 ACE d          12.276  -9.717  -1.441  0.00  0.00     0.033 H 
ATOM     13  H18 ACE d           8.207 -10.851  -1.202  0.00  0.00     0.037 H 
ATOM     14  H19 ACE d           8.521 -10.447  -2.924  0.00  0.00     0.037 H 
ATOM     15  H20 ACE d          10.273  -8.458  -3.371  0.00  0.00     0.037 H 
ATOM     16  H21 ACE d          11.013  -7.705  -1.918  0.00  0.00     0.037 H 
ENDROOT
BRANCH   6  17
ATOM     17  N   ACE d           9.869  -9.065  -0.106  0.00  0.00    -0.341 N 
ATOM     18  C   ACE d          10.196  -7.955   0.544  0.00  0.00     0.241 C 
ATOM     19  O   ACE d          10.123  -6.833   0.066  0.00  0.00    -0.271 OA
ATOM     20  H22 ACE d           9.935  -9.936   0.381  0.00  0.00     0.163 HD
BRANCH  18  21
ATOM     21  CA  ACE d          10.686  -8.156   1.972  0.00  0.00     0.093 C 
ATOM     22  H5  ACE d          11.678  -8.629   1.964  0.00  0.00     0.088 H 
BRANCH  21  23
ATOM     23  N   ACE d          10.756  -6.823   2.629  0.00  0.00    -0.348 N 
ATOM     24  C   ACE d          11.612  -6.604   3.643  0.00  0.00     0.214 C 
ATOM     25  O   ACE d          12.412  -7.447   4.067  0.00  0.00    -0.274 OA
ATOM     26  H4  ACE d          10.161  -6.084   2.314  0.00  0.00     0.163 HD
BRANCH  24  27
ATOM     27  CH3 ACE d          11.575  -5.191   4.278  0.00  0.00    -0.003 C 
ATOM     28  H1  ACE d          12.111  -4.483   3.629  0.00  0.00     0.040 H 
ATOM     29  H2  ACE d          12.058  -5.220   5.266  0.00  0.00     0.040 H 
ATOM     30  H3  ACE d          10.530  -4.867   4.390  0.00  0.00     0.040 H 
ENDBRANCH  24  27
ENDBRANCH  21  23
BRANCH  21  31
ATOM     31  CB  ACE d           9.674  -9.054   2.768  0.00  0.00    -0.014 C 
ATOM     32  H6  ACE d          10.149  -9.398   3.699  0.00  0.00     0.043 H 
ATOM     33  H7  ACE d           9.399  -9.923   2.153  0.00  0.00     0.043 H 
BRANCH  31  34
ATOM     34  CG  ACE d           8.416  -8.262   3.110  0.00  0.00    -0.056 A 
ATOM     35  CD1 ACE d           8.373  -7.606   4.326  0.00  0.00    -0.074 A 
ATOM     36  CE1 ACE d           7.191  -6.956   4.687  0.00  0.00    -0.050 A 
ATOM     37  H8  ACE d           9.235  -7.595   4.982  0.00  0.00     0.084 H 
ATOM     38  CZ  ACE d           6.085  -6.943   3.810  0.00  0.00     0.082 A 
ATOM     39  H10 ACE d           7.123  -6.458   5.647  0.00  0.00     0.087 H 
ATOM     40  CE2 ACE d           6.115  -7.606   2.592  0.00  0.00    -0.050 A 
ATOM     41  CD2 ACE d           7.316  -8.250   2.207  0.00  0.00    -0.074 A 
ATOM     42  H11 ACE d           5.241  -7.630   1.950  0.00  0.00     0.087 H 
ATOM     43  H9  ACE d           7.396  -8.729   1.238  0.00  0.00     0.084 H 
BRANCH  38  44
ATOM     44  OH  ACE d           5.009  -6.257   4.329  0.00  0.00    -0.240 OA
BRANCH  44  45
ATOM     45  P   ACE d           5.141  -5.093   5.495  0.00  0.00     0.427 P 
ATOM     46  O1P ACE d           3.847  -4.225   5.249  0.00  0.00    -0.617 OA
ATOM     47  O2P ACE d           5.118  -5.658   6.850  0.00  0.00    -0.617 OA
ATOM     48  O3P ACE d           6.327  -4.275   5.155  0.00  0.00    -0.617 OA
ENDBRANCH  44  45
ENDBRANCH  38  44
ENDBRANCH  31  34
ENDBRANCH  21  31
ENDBRANCH  18  21
ENDBRANCH   6  17
BRANCH   6  49
ATOM     49  C   ACE d           8.176  -8.149  -1.634  0.00  0.00     0.246 C 
ATOM     50  O   ACE d           7.088  -8.345  -1.012  0.00  0.00    -0.271 OA
ATOM     51  N   ACE d           8.401  -7.036  -2.367  0.00  0.00    -0.345 N 
ATOM     52  H23 ACE d           9.292  -6.906  -2.801  0.00  0.00     0.163 HD
BRANCH  51  53
ATOM     53  CA  ACE d           7.357  -6.015  -2.540  0.00  0.00     0.097 C 
ATOM     54  H24 ACE d           6.937  -5.801  -1.546  0.00  0.00     0.088 H 
BRANCH  53  55
ATOM     55  C   ACE d           6.200  -6.494  -3.411  0.00  0.00     0.238 C 
ATOM     56  O   ACE d           6.330  -6.531  -4.622  0.00  0.00    -0.271 OA
ATOM     57  N   ACE d           5.042  -6.732  -2.831  0.00  0.00    -0.368 N 
ATOM     58  H29 ACE d           4.264  -7.047  -3.376  0.00  0.00     0.159 HD
ATOM     59  H30 ACE d           4.939  -6.599  -1.845  0.00  0.00     0.159 HD
ENDBRANCH  53  55
BRANCH  53  60
ATOM     60  CB  ACE d           8.007  -4.703  -3.063  0.00  0.00     0.036 C 
ATOM     61  H25 ACE d           7.323  -3.863  -2.867  0.00  0.00     0.051 H 
ATOM     62  H26 ACE d           8.174  -4.794  -4.146  0.00  0.00     0.051 H 
BRANCH  60  63
ATOM     63  CG  ACE d           9.367  -4.419  -2.363  0.00  0.00     0.217 C 
ATOM     64  OD1 ACE d          10.404  -4.281  -3.053  0.00  0.00    -0.274 OA
ATOM     65  ND2 ACE d           9.316  -4.341  -1.042  0.00  0.00    -0.370 N 
ATOM     66  H27 ACE d          10.149  -4.162  -0.519  0.00  0.00     0.159 HD
ATOM     67  H28 ACE d           8.444  -4.463  -0.567  0.00  0.00     0.159 HD
ENDBRANCH  60  63
ENDBRANCH  53  60
ENDBRANCH  51  53
ENDBRANCH   6  49
TORSDOF 13
ENDMDL
