MODEL 1
REMARK VINA RESULT:      -8.3      0.000      0.000
REMARK  15 active torsions:
REMARK  status: ('A' for Active; 'I' for Inactive)
REMARK    1  A    between atoms: C1_1  and  C2_2 
REMARK    2  A    between atoms: C2_2  and  N6_6 
REMARK    3  A    between atoms: C2_2  and  C3_3 
REMARK    4  A    between atoms: N6_6  and  C7_7 
REMARK    5  A    between atoms: C7_7  and  C16_16 
REMARK    6  A    between atoms: C7_7  and  C8_8 
REMARK    7  A    between atoms: C8_8  and  C9_9 
REMARK    8  A    between atoms: C9_9  and  C10_10 
REMARK       I    between atoms: C16_16  and  N18_18 
REMARK    9  A    between atoms: N18_18  and  C19_19 
REMARK   10  A    between atoms: C19_19  and  C27_27 
REMARK   11  A    between atoms: C19_19  and  C20_20 
REMARK   12  A    between atoms: C20_20  and  C21_21 
REMARK   13  A    between atoms: C21_21  and  C22_22 
REMARK   14  A    between atoms: C22_22  and  N23_23 
REMARK       I    between atoms: N23_23  and  C24_24 
REMARK       I    between atoms: C24_24  and  N25_25 
REMARK       I    between atoms: C27_27  and  N29_29 
REMARK   15  A    between atoms: N29_29  and  C30_30 
ROOT
ATOM      1  C16 INH d         -16.900  94.695  79.740  0.00  0.00     0.249 C 
ATOM      2  O17 INH d         -16.613  93.507  79.585  0.00  0.00    -0.271 OA
ATOM      3  N18 INH d         -17.990  95.104  80.379  0.00  0.00    -0.346 N 
ATOM      4  H17 INH d         -18.157  96.084  80.489  0.00  0.00     0.163 HD
ENDROOT
BRANCH   3   5
ATOM      5  C19 INH d         -18.947  94.151  80.923  0.00  0.00     0.089 C 
ATOM      6  H18 INH d         -19.853  94.696  81.230  0.00  0.00     0.087 H 
BRANCH   5   7
ATOM      7  C27 INH d         -18.367  93.417  82.119  0.00  0.00     0.245 C 
ATOM      8  N29 INH d         -17.262  93.954  82.640  0.00  0.00    -0.325 N 
ATOM      9  H30 INH d         -16.942  94.782  82.180  0.00  0.00     0.169 HD
ATOM     10  O28 INH d         -18.967  92.465  82.613  0.00  0.00    -0.271 OA
BRANCH   8  11
ATOM     11  C30 INH d         -16.495  93.556  83.700  0.00  0.00     0.034 A 
ATOM     12  C35 INH d         -15.650  92.458  83.654  0.00  0.00    -0.057 A 
ATOM     13  C34 INH d         -14.853  92.120  84.753  0.00  0.00    -0.081 A 
ATOM     14  H35 INH d         -15.606  91.853  82.756  0.00  0.00     0.086 H 
ATOM     15  C33 INH d         -14.903  92.886  85.905  0.00  0.00    -0.083 A 
ATOM     16  H34 INH d         -14.196  91.259  84.702  0.00  0.00     0.083 H 
ATOM     17  C32 INH d         -15.743  93.981  85.967  0.00  0.00    -0.081 A 
ATOM     18  H33 INH d         -14.285  92.627  86.756  0.00  0.00     0.083 H 
ATOM     19  C31 INH d         -16.540  94.314  84.865  0.00  0.00    -0.057 A 
ATOM     20  H32 INH d         -15.785  94.583  86.868  0.00  0.00     0.083 H 
ATOM     21  H31 INH d         -17.199  95.173  84.921  0.00  0.00     0.086 H 
ENDBRANCH   8  11
ENDBRANCH   5   7
BRANCH   5  22
ATOM     22  C20 INH d         -19.309  93.108  79.895  0.00  0.00    -0.036 C 
ATOM     23  H19 INH d         -19.390  92.139  80.409  0.00  0.00     0.036 H 
ATOM     24  H20 INH d         -18.497  93.065  79.155  0.00  0.00     0.036 H 
BRANCH  22  25
ATOM     25  C21 INH d         -20.577  93.347  79.169  0.00  0.00    -0.048 C 
ATOM     26  H21 INH d         -20.377  93.614  78.121  0.00  0.00     0.035 H 
ATOM     27  H22 INH d         -21.150  94.154  79.649  0.00  0.00     0.035 H 
BRANCH  25  28
ATOM     28  C22 INH d         -21.314  92.068  79.247  0.00  0.00     0.009 C 
ATOM     29  H23 INH d         -20.993  91.429  78.411  0.00  0.00     0.064 H 
ATOM     30  H24 INH d         -22.390  92.281  79.156  0.00  0.00     0.064 H 
BRANCH  28  31
ATOM     31  N23 INH d         -21.092  91.350  80.485  0.00  0.00    -0.227 N 
ATOM     32  C24 INH d         -21.984  91.329  81.475  0.00  0.00     0.665 C 
ATOM     33  N26 INH d         -23.126  92.009  81.347  0.00  0.00    -0.235 N 
ATOM     34  N25 INH d         -21.735  90.643  82.589  0.00  0.00    -0.235 N 
ATOM     35  H28 INH d         -23.316  92.539  80.484  0.00  0.00     0.174 HD
ATOM     36  H29 INH d         -23.818  92.002  82.111  0.00  0.00     0.174 HD
ATOM     37  H26 INH d         -22.428  90.629  83.351  0.00  0.00     0.174 HD
ATOM     38  H27 INH d         -20.851  90.125  82.689  0.00  0.00     0.174 HD
ATOM     39  H25 INH d         -20.208  90.834  80.605  0.00  0.00     0.177 HD
ENDBRANCH  28  31
ENDBRANCH  25  28
ENDBRANCH  22  25
ENDBRANCH   5  22
ENDBRANCH   3   5
BRANCH   1  40
ATOM     40  C7  INH d         -15.984  95.783  79.198  0.00  0.00     0.179 C 
ATOM     41  H7  INH d         -15.358  95.375  78.391  0.00  0.00     0.099 H 
BRANCH  40  42
ATOM     42  N6  INH d         -16.822  96.873  78.681  0.00  0.00    -0.049 N 
ATOM     43  H5  INH d         -17.766  96.725  79.001  0.00  0.00     0.279 HD
ATOM     44  H6  INH d         -16.474  97.743  79.053  0.00  0.00     0.279 HD
BRANCH  42  45
ATOM     45  C2  INH d         -16.844  96.975  77.201  0.00  0.00     0.182 C 
ATOM     46  H4  INH d         -16.260  96.127  76.813  0.00  0.00     0.101 H 
BRANCH  45  47
ATOM     47  C1  INH d         -16.124  98.272  76.781  0.00  0.00    -0.040 C 
ATOM     48  H1  INH d         -16.227  99.023  77.578  0.00  0.00     0.031 H 
ATOM     49  H2  INH d         -16.573  98.657  75.854  0.00  0.00     0.031 H 
ATOM     50  H3  INH d         -15.057  98.062  76.611  0.00  0.00     0.031 H 
ENDBRANCH  45  47
BRANCH  45  51
ATOM     51  C3  INH d         -18.225  96.879  76.557  0.00  0.00     0.204 C 
ATOM     52  O5  INH d         -19.182  97.597  76.948  0.00  0.00    -0.646 OA
ATOM     53  O4  INH d         -18.372  96.068  75.634  0.00  0.00    -0.646 OA
ENDBRANCH  45  51
ENDBRANCH  42  45
ENDBRANCH  40  42
BRANCH  40  54
ATOM     54  C8  INH d         -15.086  96.320  80.325  0.00  0.00    -0.026 C 
ATOM     55  H8  INH d         -14.696  95.464  80.897  0.00  0.00     0.037 H 
ATOM     56  H9  INH d         -15.698  96.953  80.984  0.00  0.00     0.037 H 
BRANCH  54  57
ATOM     57  C9  INH d         -13.906  97.142  79.828  0.00  0.00    -0.039 C 
ATOM     58  H10 INH d         -13.493  97.683  80.694  0.00  0.00     0.040 H 
ATOM     59  H11 INH d         -14.293  97.864  79.095  0.00  0.00     0.040 H 
BRANCH  57  60
ATOM     60  C10 INH d         -12.776  96.407  79.180  0.00  0.00    -0.058 A 
ATOM     61  C15 INH d         -11.662  96.022  79.912  0.00  0.00    -0.077 A 
ATOM     62  C14 INH d         -10.629  95.317  79.309  0.00  0.00    -0.082 A 
ATOM     63  H16 INH d         -11.598  96.275  80.964  0.00  0.00     0.084 H 
ATOM     64  C13 INH d         -10.711  94.992  77.959  0.00  0.00    -0.083 A 
ATOM     65  H15 INH d          -9.763  95.019  79.888  0.00  0.00     0.083 H 
ATOM     66  C12 INH d         -11.817  95.373  77.223  0.00  0.00    -0.082 A 
ATOM     67  H14 INH d          -9.908  94.441  77.484  0.00  0.00     0.083 H 
ATOM     68  C11 INH d         -12.838  96.072  77.829  0.00  0.00    -0.077 A 
ATOM     69  H13 INH d         -11.881  95.122  76.170  0.00  0.00     0.083 H 
ATOM     70  H12 INH d         -13.704  96.365  77.246  0.00  0.00     0.084 H 
ENDBRANCH  57  60
ENDBRANCH  54  57
ENDBRANCH  40  54
ENDBRANCH   1  40
TORSDOF 15
ENDMDL
MODEL 2
REMARK VINA RESULT:      -7.9      2.470      7.708
REMARK  15 active torsions:
REMARK  status: ('A' for Active; 'I' for Inactive)
REMARK    1  A    between atoms: C1_1  and  C2_2 
REMARK    2  A    between atoms: C2_2  and  N6_6 
REMARK    3  A    between atoms: C2_2  and  C3_3 
REMARK    4  A    between atoms: N6_6  and  C7_7 
REMARK    5  A    between atoms: C7_7  and  C16_16 
REMARK    6  A    between atoms: C7_7  and  C8_8 
REMARK    7  A    between atoms: C8_8  and  C9_9 
REMARK    8  A    between atoms: C9_9  and  C10_10 
REMARK       I    between atoms: C16_16  and  N18_18 
REMARK    9  A    between atoms: N18_18  and  C19_19 
REMARK   10  A    between atoms: C19_19  and  C27_27 
REMARK   11  A    between atoms: C19_19  and  C20_20 
REMARK   12  A    between atoms: C20_20  and  C21_21 
REMARK   13  A    between atoms: C21_21  and  C22_22 
REMARK   14  A    between atoms: C22_22  and  N23_23 
REMARK       I    between atoms: N23_23  and  C24_24 
REMARK       I    between atoms: C24_24  and  N25_25 
REMARK       I    between atoms: C27_27  and  N29_29 
REMARK   15  A    between atoms: N29_29  and  C30_30 
ROOT
ATOM      1  C16 INH d         -20.135  93.033  81.639  0.00  0.00     0.249 C 
ATOM      2  O17 INH d         -20.223  93.271  82.844  0.00  0.00    -0.271 OA
ATOM      3  N18 INH d         -18.976  92.935  80.998  0.00  0.00    -0.346 N 
ATOM      4  H17 INH d         -18.972  92.720  80.021  0.00  0.00     0.163 HD
ENDROOT
BRANCH   3   5
ATOM      5  C19 INH d         -17.712  93.135  81.691  0.00  0.00     0.089 C 
ATOM      6  H18 INH d         -17.916  93.290  82.762  0.00  0.00     0.087 H 
BRANCH   5   7
ATOM      7  C27 INH d         -16.970  94.340  81.139  0.00  0.00     0.245 C 
ATOM      8  N29 INH d         -17.203  94.615  79.854  0.00  0.00    -0.325 N 
ATOM      9  H30 INH d         -17.842  93.994  79.402  0.00  0.00     0.169 HD
ATOM     10  O28 INH d         -16.301  95.052  81.884  0.00  0.00    -0.271 OA
BRANCH   8  11
ATOM     11  C30 INH d         -16.709  95.608  79.054  0.00  0.00     0.034 A 
ATOM     12  C35 INH d         -15.416  96.097  79.163  0.00  0.00    -0.057 A 
ATOM     13  C34 INH d         -14.946  97.084  78.290  0.00  0.00    -0.081 A 
ATOM     14  H35 INH d         -14.761  95.709  79.934  0.00  0.00     0.086 H 
ATOM     15  C33 INH d         -15.777  97.585  77.302  0.00  0.00    -0.083 A 
ATOM     16  H34 INH d         -13.932  97.455  78.386  0.00  0.00     0.083 H 
ATOM     17  C32 INH d         -17.070  97.111  77.183  0.00  0.00    -0.081 A 
ATOM     18  H33 INH d         -15.414  98.348  76.623  0.00  0.00     0.083 H 
ATOM     19  C31 INH d         -17.535  96.124  78.061  0.00  0.00    -0.057 A 
ATOM     20  H32 INH d         -17.723  97.503  76.412  0.00  0.00     0.083 H 
ATOM     21  H31 INH d         -18.551  95.758  77.965  0.00  0.00     0.086 H 
ENDBRANCH   8  11
ENDBRANCH   5   7
BRANCH   5  22
ATOM     22  C20 INH d         -16.809  91.940  81.517  0.00  0.00    -0.036 C 
ATOM     23  H19 INH d         -16.253  92.069  80.577  0.00  0.00     0.036 H 
ATOM     24  H20 INH d         -17.442  91.043  81.449  0.00  0.00     0.036 H 
BRANCH  22  25
ATOM     25  C21 INH d         -15.826  91.723  82.602  0.00  0.00    -0.048 C 
ATOM     26  H21 INH d         -14.975  92.412  82.496  0.00  0.00     0.035 H 
ATOM     27  H22 INH d         -15.461  90.685  82.590  0.00  0.00     0.035 H 
BRANCH  25  28
ATOM     28  C22 INH d         -16.564  91.999  83.853  0.00  0.00     0.009 C 
ATOM     29  H23 INH d         -16.985  91.053  84.225  0.00  0.00     0.064 H 
ATOM     30  H24 INH d         -17.380  92.701  83.628  0.00  0.00     0.064 H 
BRANCH  28  31
ATOM     31  N23 INH d         -15.737  92.573  84.894  0.00  0.00    -0.227 N 
ATOM     32  C24 INH d         -15.967  93.779  85.412  0.00  0.00     0.665 C 
ATOM     33  N26 INH d         -16.985  94.512  84.951  0.00  0.00    -0.235 N 
ATOM     34  N25 INH d         -15.184  94.257  86.377  0.00  0.00    -0.235 N 
ATOM     35  H28 INH d         -17.589  94.140  84.204  0.00  0.00     0.174 HD
ATOM     36  H29 INH d         -17.164  95.448  85.342  0.00  0.00     0.174 HD
ATOM     37  H26 INH d         -15.366  95.190  86.774  0.00  0.00     0.174 HD
ATOM     38  H27 INH d         -14.396  93.693  86.727  0.00  0.00     0.174 HD
ATOM     39  H25 INH d         -14.939  92.027  85.249  0.00  0.00     0.177 HD
ENDBRANCH  28  31
ENDBRANCH  25  28
ENDBRANCH  22  25
ENDBRANCH   5  22
ENDBRANCH   3   5
BRANCH   1  40
ATOM     40  C7  INH d         -21.390  92.822  80.805  0.00  0.00     0.179 C 
ATOM     41  H7  INH d         -22.044  92.085  81.295  0.00  0.00     0.099 H 
BRANCH  40  42
ATOM     42  N6  INH d         -22.086  94.111  80.690  0.00  0.00    -0.049 N 
ATOM     43  H5  INH d         -22.856  93.998  80.050  0.00  0.00     0.279 HD
ATOM     44  H6  INH d         -22.440  94.362  81.601  0.00  0.00     0.279 HD
BRANCH  42  45
ATOM     45  C2  INH d         -21.234  95.223  80.201  0.00  0.00     0.182 C 
ATOM     46  H4  INH d         -20.205  94.837  80.147  0.00  0.00     0.101 H 
BRANCH  45  47
ATOM     47  C1  INH d         -21.254  96.361  81.241  0.00  0.00    -0.040 C 
ATOM     48  H1  INH d         -22.281  96.501  81.611  0.00  0.00     0.031 H 
ATOM     49  H2  INH d         -20.903  97.292  80.772  0.00  0.00     0.031 H 
ATOM     50  H3  INH d         -20.593  96.102  82.081  0.00  0.00     0.031 H 
ENDBRANCH  45  47
BRANCH  45  51
ATOM     51  C3  INH d         -21.574  95.745  78.807  0.00  0.00     0.204 C 
ATOM     52  O5  INH d         -20.916  95.389  77.795  0.00  0.00    -0.646 OA
ATOM     53  O4  INH d         -22.523  96.534  78.706  0.00  0.00    -0.646 OA
ENDBRANCH  45  51
ENDBRANCH  42  45
ENDBRANCH  40  42
BRANCH  40  54
ATOM     54  C8  INH d         -21.009  92.321  79.403  0.00  0.00    -0.026 C 
ATOM     55  H8  INH d         -19.967  91.968  79.431  0.00  0.00     0.037 H 
ATOM     56  H9  INH d         -21.092  93.162  78.699  0.00  0.00     0.037 H 
BRANCH  54  57
ATOM     57  C9  INH d         -21.886  91.184  78.898  0.00  0.00    -0.039 C 
ATOM     58  H10 INH d         -22.642  90.984  79.672  0.00  0.00     0.040 H 
ATOM     59  H11 INH d         -21.243  90.301  78.776  0.00  0.00     0.040 H 
BRANCH  57  60
ATOM     60  C10 INH d         -22.612  91.393  77.607  0.00  0.00    -0.058 A 
ATOM     61  C15 INH d         -23.070  92.650  77.241  0.00  0.00    -0.077 A 
ATOM     62  C14 INH d         -23.718  92.841  76.028  0.00  0.00    -0.082 A 
ATOM     63  H16 INH d         -22.920  93.491  77.909  0.00  0.00     0.084 H 
ATOM     64  C13 INH d         -23.911  91.762  75.172  0.00  0.00    -0.083 A 
ATOM     65  H15 INH d         -24.073  93.827  75.750  0.00  0.00     0.083 H 
ATOM     66  C12 INH d         -23.459  90.507  75.529  0.00  0.00    -0.082 A 
ATOM     67  H14 INH d         -24.416  91.907  74.224  0.00  0.00     0.083 H 
ATOM     68  C11 INH d         -22.815  90.326  76.735  0.00  0.00    -0.077 A 
ATOM     69  H13 INH d         -23.610  89.665  74.863  0.00  0.00     0.083 H 
ATOM     70  H12 INH d         -22.460  89.339  77.007  0.00  0.00     0.084 H 
ENDBRANCH  57  60
ENDBRANCH  54  57
ENDBRANCH  40  54
ENDBRANCH   1  40
TORSDOF 15
ENDMDL
MODEL 3
REMARK VINA RESULT:      -7.9      2.578      6.479
REMARK  15 active torsions:
REMARK  status: ('A' for Active; 'I' for Inactive)
REMARK    1  A    between atoms: C1_1  and  C2_2 
REMARK    2  A    between atoms: C2_2  and  N6_6 
REMARK    3  A    between atoms: C2_2  and  C3_3 
REMARK    4  A    between atoms: N6_6  and  C7_7 
REMARK    5  A    between atoms: C7_7  and  C16_16 
REMARK    6  A    between atoms: C7_7  and  C8_8 
REMARK    7  A    between atoms: C8_8  and  C9_9 
REMARK    8  A    between atoms: C9_9  and  C10_10 
REMARK       I    between atoms: C16_16  and  N18_18 
REMARK    9  A    between atoms: N18_18  and  C19_19 
REMARK   10  A    between atoms: C19_19  and  C27_27 
REMARK   11  A    between atoms: C19_19  and  C20_20 
REMARK   12  A    between atoms: C20_20  and  C21_21 
REMARK   13  A    between atoms: C21_21  and  C22_22 
REMARK   14  A    between atoms: C22_22  and  N23_23 
REMARK       I    between atoms: N23_23  and  C24_24 
REMARK       I    between atoms: C24_24  and  N25_25 
REMARK       I    between atoms: C27_27  and  N29_29 
REMARK   15  A    between atoms: N29_29  and  C30_30 
ROOT
ATOM      1  C16 INH d         -15.841  95.336  79.529  0.00  0.00     0.249 C 
ATOM      2  O17 INH d         -14.655  95.009  79.592  0.00  0.00    -0.271 OA
ATOM      3  N18 INH d         -16.815  94.664  80.131  0.00  0.00    -0.346 N 
ATOM      4  H17 INH d         -17.757  94.993  80.058  0.00  0.00     0.163 HD
ENDROOT
BRANCH   3   5
ATOM      5  C19 INH d         -16.537  93.457  80.896  0.00  0.00     0.089 C 
ATOM      6  H18 INH d         -15.627  92.985  80.495  0.00  0.00     0.087 H 
BRANCH   5   7
ATOM      7  C27 INH d         -17.694  92.477  80.810  0.00  0.00     0.245 C 
ATOM      8  N29 INH d         -18.905  93.003  81.003  0.00  0.00    -0.325 N 
ATOM      9  H30 INH d         -18.910  93.987  81.182  0.00  0.00     0.169 HD
ATOM     10  O28 INH d         -17.497  91.312  80.473  0.00  0.00    -0.271 OA
BRANCH   8  11
ATOM     11  C30 INH d         -20.140  92.417  80.997  0.00  0.00     0.034 A 
ATOM     12  C35 INH d         -20.813  92.078  79.833  0.00  0.00    -0.057 A 
ATOM     13  C34 INH d         -22.056  91.439  79.882  0.00  0.00    -0.081 A 
ATOM     14  H35 INH d         -20.369  92.311  78.872  0.00  0.00     0.086 H 
ATOM     15  C33 INH d         -22.630  91.138  81.106  0.00  0.00    -0.083 A 
ATOM     16  H34 INH d         -22.569  91.179  78.964  0.00  0.00     0.083 H 
ATOM     17  C32 INH d         -21.974  91.473  82.275  0.00  0.00    -0.081 A 
ATOM     18  H33 INH d         -23.592  90.641  81.146  0.00  0.00     0.083 H 
ATOM     19  C31 INH d         -20.730  92.114  82.219  0.00  0.00    -0.057 A 
ATOM     20  H32 INH d         -22.421  91.240  83.235  0.00  0.00     0.083 H 
ATOM     21  H31 INH d         -20.222  92.377  83.140  0.00  0.00     0.086 H 
ENDBRANCH   8  11
ENDBRANCH   5   7
BRANCH   5  22
ATOM     22  C20 INH d         -16.336  93.781  82.355  0.00  0.00    -0.036 C 
ATOM     23  H19 INH d         -17.325  93.808  82.836  0.00  0.00     0.036 H 
ATOM     24  H20 INH d         -15.868  94.774  82.421  0.00  0.00     0.036 H 
BRANCH  22  25
ATOM     25  C21 INH d         -15.490  92.826  83.106  0.00  0.00    -0.048 C 
ATOM     26  H21 INH d         -14.495  93.256  83.293  0.00  0.00     0.035 H 
ATOM     27  H22 INH d         -15.383  91.884  82.549  0.00  0.00     0.035 H 
BRANCH  25  28
ATOM     28  C22 INH d         -16.203  92.596  84.381  0.00  0.00     0.009 C 
ATOM     29  H23 INH d         -15.570  91.970  85.026  0.00  0.00     0.064 H 
ATOM     30  H24 INH d         -17.143  92.067  84.163  0.00  0.00     0.064 H 
BRANCH  28  31
ATOM     31  N23 INH d         -16.518  93.818  85.093  0.00  0.00    -0.227 N 
ATOM     32  C24 INH d         -15.785  94.265  86.112  0.00  0.00     0.665 C 
ATOM     33  N26 INH d         -14.725  93.562  86.520  0.00  0.00    -0.235 N 
ATOM     34  N25 INH d         -16.110  95.402  86.726  0.00  0.00    -0.235 N 
ATOM     35  H28 INH d         -14.475  92.684  86.044  0.00  0.00     0.174 HD
ATOM     36  H29 INH d         -14.158  93.899  87.312  0.00  0.00     0.174 HD
ATOM     37  H26 INH d         -15.540  95.744  87.512  0.00  0.00     0.174 HD
ATOM     38  H27 INH d         -16.931  95.939  86.413  0.00  0.00     0.174 HD
ATOM     39  H25 INH d         -17.341  94.363  84.799  0.00  0.00     0.177 HD
ENDBRANCH  28  31
ENDBRANCH  25  28
ENDBRANCH  22  25
ENDBRANCH   5  22
ENDBRANCH   3   5
BRANCH   1  40
ATOM     40  C7  INH d         -16.255  96.571  78.743  0.00  0.00     0.179 C 
ATOM     41  H7  INH d         -16.421  97.414  79.431  0.00  0.00     0.099 H 
BRANCH  40  42
ATOM     42  N6  INH d         -15.176  96.899  77.801  0.00  0.00    -0.049 N 
ATOM     43  H5  INH d         -14.521  96.134  77.793  0.00  0.00     0.279 HD
ATOM     44  H6  INH d         -15.580  97.007  76.883  0.00  0.00     0.279 HD
BRANCH  42  45
ATOM     45  C2  INH d         -14.436  98.143  78.131  0.00  0.00     0.182 C 
ATOM     46  H4  INH d         -14.700  98.406  79.166  0.00  0.00     0.101 H 
BRANCH  45  47
ATOM     47  C1  INH d         -14.935  99.277  77.215  0.00  0.00    -0.040 C 
ATOM     48  H1  INH d         -14.387  99.246  76.261  0.00  0.00     0.031 H 
ATOM     49  H2  INH d         -14.762 100.247  77.705  0.00  0.00     0.031 H 
ATOM     50  H3  INH d         -16.011  99.149  77.025  0.00  0.00     0.031 H 
ENDBRANCH  45  47
BRANCH  45  51
ATOM     51  C3  INH d         -12.914  98.030  78.089  0.00  0.00     0.204 C 
ATOM     52  O5  INH d         -12.289  97.285  78.888  0.00  0.00    -0.646 OA
ATOM     53  O4  INH d         -12.313  98.698  77.238  0.00  0.00    -0.646 OA
ENDBRANCH  45  51
ENDBRANCH  42  45
ENDBRANCH  40  42
BRANCH  40  54
ATOM     54  C8  INH d         -17.547  96.283  77.960  0.00  0.00    -0.026 C 
ATOM     55  H8  INH d         -17.846  95.242  78.153  0.00  0.00     0.037 H 
ATOM     56  H9  INH d         -17.338  96.412  76.888  0.00  0.00     0.037 H 
BRANCH  54  57
ATOM     57  C9  INH d         -18.707  97.193  78.336  0.00  0.00    -0.039 C 
ATOM     58  H10 INH d         -19.052  97.686  77.415  0.00  0.00     0.040 H 
ATOM     59  H11 INH d         -18.320  97.949  79.035  0.00  0.00     0.040 H 
BRANCH  57  60
ATOM     60  C10 INH d         -19.901  96.560  78.978  0.00  0.00    -0.058 A 
ATOM     61  C15 INH d         -20.106  96.651  80.348  0.00  0.00    -0.077 A 
ATOM     62  C14 INH d         -21.230  96.085  80.933  0.00  0.00    -0.082 A 
ATOM     63  H16 INH d         -19.381  97.169  80.966  0.00  0.00     0.084 H 
ATOM     64  C13 INH d         -22.160  95.420  80.141  0.00  0.00    -0.083 A 
ATOM     65  H15 INH d         -21.383  96.160  82.004  0.00  0.00     0.083 H 
ATOM     66  C12 INH d         -21.963  95.325  78.777  0.00  0.00    -0.082 A 
ATOM     67  H14 INH d         -23.040  94.978  80.593  0.00  0.00     0.083 H 
ATOM     68  C11 INH d         -20.845  95.891  78.203  0.00  0.00    -0.077 A 
ATOM     69  H13 INH d         -22.686  94.806  78.158  0.00  0.00     0.083 H 
ATOM     70  H12 INH d         -20.698  95.815  77.132  0.00  0.00     0.084 H 
ENDBRANCH  57  60
ENDBRANCH  54  57
ENDBRANCH  40  54
ENDBRANCH   1  40
TORSDOF 15
ENDMDL
MODEL 4
REMARK VINA RESULT:      -7.7      2.433      6.897
REMARK  15 active torsions:
REMARK  status: ('A' for Active; 'I' for Inactive)
REMARK    1  A    between atoms: C1_1  and  C2_2 
REMARK    2  A    between atoms: C2_2  and  N6_6 
REMARK    3  A    between atoms: C2_2  and  C3_3 
REMARK    4  A    between atoms: N6_6  and  C7_7 
REMARK    5  A    between atoms: C7_7  and  C16_16 
REMARK    6  A    between atoms: C7_7  and  C8_8 
REMARK    7  A    between atoms: C8_8  and  C9_9 
REMARK    8  A    between atoms: C9_9  and  C10_10 
REMARK       I    between atoms: C16_16  and  N18_18 
REMARK    9  A    between atoms: N18_18  and  C19_19 
REMARK   10  A    between atoms: C19_19  and  C27_27 
REMARK   11  A    between atoms: C19_19  and  C20_20 
REMARK   12  A    between atoms: C20_20  and  C21_21 
REMARK   13  A    between atoms: C21_21  and  C22_22 
REMARK   14  A    between atoms: C22_22  and  N23_23 
REMARK       I    between atoms: N23_23  and  C24_24 
REMARK       I    between atoms: C24_24  and  N25_25 
REMARK       I    between atoms: C27_27  and  N29_29 
REMARK   15  A    between atoms: N29_29  and  C30_30 
ROOT
ATOM      1  C16 INH d         -18.690  95.742  79.704  0.00  0.00     0.249 C 
ATOM      2  O17 INH d         -19.167  95.948  80.821  0.00  0.00    -0.271 OA
ATOM      3  N18 INH d         -17.420  95.410  79.504  0.00  0.00    -0.346 N 
ATOM      4  H17 INH d         -17.098  95.236  78.573  0.00  0.00     0.163 HD
ENDROOT
BRANCH   3   5
ATOM      5  C19 INH d         -16.487  95.292  80.615  0.00  0.00     0.089 C 
ATOM      6  H18 INH d         -16.929  95.775  81.500  0.00  0.00     0.087 H 
BRANCH   5   7
ATOM      7  C27 INH d         -15.160  95.952  80.287  0.00  0.00     0.245 C 
ATOM      8  N29 INH d         -14.445  95.356  79.331  0.00  0.00    -0.325 N 
ATOM      9  H30 INH d         -14.869  94.540  78.939  0.00  0.00     0.169 HD
ATOM     10  O28 INH d         -14.853  97.022  80.808  0.00  0.00    -0.271 OA
BRANCH   8  11
ATOM     11  C30 INH d         -13.227  95.678  78.800  0.00  0.00     0.034 A 
ATOM     12  C35 INH d         -13.074  96.255  77.549  0.00  0.00    -0.057 A 
ATOM     13  C34 INH d         -11.808  96.607  77.071  0.00  0.00    -0.081 A 
ATOM     14  H35 INH d         -13.947  96.436  76.933  0.00  0.00     0.086 H 
ATOM     15  C33 INH d         -10.686  96.379  77.850  0.00  0.00    -0.083 A 
ATOM     16  H34 INH d         -11.704  97.058  76.090  0.00  0.00     0.083 H 
ATOM     17  C32 INH d         -10.821  95.802  79.098  0.00  0.00    -0.081 A 
ATOM     18  H33 INH d          -9.705  96.653  77.482  0.00  0.00     0.083 H 
ATOM     19  C31 INH d         -12.092  95.450  79.571  0.00  0.00    -0.057 A 
ATOM     20  H32 INH d          -9.946  95.621  79.711  0.00  0.00     0.083 H 
ATOM     21  H31 INH d         -12.192  94.995  80.550  0.00  0.00     0.086 H 
ENDBRANCH   8  11
ENDBRANCH   5   7
BRANCH   5  22
ATOM     22  C20 INH d         -16.199  93.843  80.923  0.00  0.00    -0.036 C 
ATOM     23  H19 INH d         -15.410  93.502  80.237  0.00  0.00     0.036 H 
ATOM     24  H20 INH d         -17.118  93.268  80.740  0.00  0.00     0.036 H 
BRANCH  22  25
ATOM     25  C21 INH d         -15.753  93.565  82.306  0.00  0.00    -0.048 C 
ATOM     26  H21 INH d         -15.109  94.377  82.675  0.00  0.00     0.035 H 
ATOM     27  H22 INH d         -15.203  92.613  82.350  0.00  0.00     0.035 H 
BRANCH  25  28
ATOM     28  C22 INH d         -16.995  93.484  83.104  0.00  0.00     0.009 C 
ATOM     29  H23 INH d         -17.139  92.440  83.420  0.00  0.00     0.064 H 
ATOM     30  H24 INH d         -17.838  93.795  82.469  0.00  0.00     0.064 H 
BRANCH  28  31
ATOM     31  N23 INH d         -16.976  94.322  84.285  0.00  0.00    -0.227 N 
ATOM     32  C24 INH d         -16.204  94.062  85.339  0.00  0.00     0.665 C 
ATOM     33  N26 INH d         -15.423  92.978  85.333  0.00  0.00    -0.235 N 
ATOM     34  N25 INH d         -16.214  94.872  86.397  0.00  0.00    -0.235 N 
ATOM     35  H28 INH d         -15.416  92.353  84.514  0.00  0.00     0.174 HD
ATOM     36  H29 INH d         -14.828  92.768  86.148  0.00  0.00     0.174 HD
ATOM     37  H26 INH d         -15.615  94.667  87.209  0.00  0.00     0.174 HD
ATOM     38  H27 INH d         -16.821  95.704  86.402  0.00  0.00     0.174 HD
ATOM     39  H25 INH d         -17.584  95.153  84.311  0.00  0.00     0.177 HD
ENDBRANCH  28  31
ENDBRANCH  25  28
ENDBRANCH  22  25
ENDBRANCH   5  22
ENDBRANCH   3   5
BRANCH   1  40
ATOM     40  C7  INH d         -19.564  95.854  78.464  0.00  0.00     0.179 C 
ATOM     41  H7  INH d         -20.016  96.856  78.414  0.00  0.00     0.099 H 
BRANCH  40  42
ATOM     42  N6  INH d         -18.719  95.627  77.284  0.00  0.00    -0.049 N 
ATOM     43  H5  INH d         -17.801  95.359  77.600  0.00  0.00     0.279 HD
ATOM     44  H6  INH d         -19.122  94.875  76.746  0.00  0.00     0.279 HD
BRANCH  42  45
ATOM     45  C2  INH d         -18.579  96.809  76.397  0.00  0.00     0.182 C 
ATOM     46  H4  INH d         -19.385  97.507  76.667  0.00  0.00     0.101 H 
BRANCH  45  47
ATOM     47  C1  INH d         -18.810  96.367  74.939  0.00  0.00    -0.040 C 
ATOM     48  H1  INH d         -19.773  96.762  74.584  0.00  0.00     0.031 H 
ATOM     49  H2  INH d         -18.822  95.269  74.885  0.00  0.00     0.031 H 
ATOM     50  H3  INH d         -17.998  96.756  74.305  0.00  0.00     0.031 H 
ENDBRANCH  45  47
BRANCH  45  51
ATOM     51  C3  INH d         -17.270  97.582  76.538  0.00  0.00     0.204 C 
ATOM     52  O5  INH d         -17.111  98.706  75.995  0.00  0.00    -0.646 OA
ATOM     53  O4  INH d         -16.368  97.064  77.208  0.00  0.00    -0.646 OA
ENDBRANCH  45  51
ENDBRANCH  42  45
ENDBRANCH  40  42
BRANCH  40  54
ATOM     54  C8  INH d         -20.674  94.790  78.509  0.00  0.00    -0.026 C 
ATOM     55  H8  INH d         -21.199  94.793  77.543  0.00  0.00     0.037 H 
ATOM     56  H9  INH d         -21.379  95.059  79.310  0.00  0.00     0.037 H 
BRANCH  54  57
ATOM     57  C9  INH d         -20.162  93.382  78.773  0.00  0.00    -0.039 C 
ATOM     58  H10 INH d         -19.080  93.454  78.958  0.00  0.00     0.040 H 
ATOM     59  H11 INH d         -20.341  92.790  77.863  0.00  0.00     0.040 H 
BRANCH  57  60
ATOM     60  C10 INH d         -20.764  92.631  79.919  0.00  0.00    -0.058 A 
ATOM     61  C15 INH d         -20.184  92.670  81.179  0.00  0.00    -0.077 A 
ATOM     62  C14 INH d         -20.763  91.993  82.244  0.00  0.00    -0.082 A 
ATOM     63  H16 INH d         -19.271  93.233  81.333  0.00  0.00     0.084 H 
ATOM     64  C13 INH d         -21.935  91.270  82.047  0.00  0.00    -0.083 A 
ATOM     65  H15 INH d         -20.304  92.028  83.226  0.00  0.00     0.083 H 
ATOM     66  C12 INH d         -22.518  91.226  80.796  0.00  0.00    -0.082 A 
ATOM     67  H14 INH d         -22.390  90.741  82.876  0.00  0.00     0.083 H 
ATOM     68  C11 INH d         -21.937  91.902  79.744  0.00  0.00    -0.077 A 
ATOM     69  H13 INH d         -23.429  90.661  80.641  0.00  0.00     0.083 H 
ATOM     70  H12 INH d         -22.402  91.865  78.765  0.00  0.00     0.084 H 
ENDBRANCH  57  60
ENDBRANCH  54  57
ENDBRANCH  40  54
ENDBRANCH   1  40
TORSDOF 15
ENDMDL
MODEL 5
REMARK VINA RESULT:      -7.6      2.204      6.502
REMARK  15 active torsions:
REMARK  status: ('A' for Active; 'I' for Inactive)
REMARK    1  A    between atoms: C1_1  and  C2_2 
REMARK    2  A    between atoms: C2_2  and  N6_6 
REMARK    3  A    between atoms: C2_2  and  C3_3 
REMARK    4  A    between atoms: N6_6  and  C7_7 
REMARK    5  A    between atoms: C7_7  and  C16_16 
REMARK    6  A    between atoms: C7_7  and  C8_8 
REMARK    7  A    between atoms: C8_8  and  C9_9 
REMARK    8  A    between atoms: C9_9  and  C10_10 
REMARK       I    between atoms: C16_16  and  N18_18 
REMARK    9  A    between atoms: N18_18  and  C19_19 
REMARK   10  A    between atoms: C19_19  and  C27_27 
REMARK   11  A    between atoms: C19_19  and  C20_20 
REMARK   12  A    between atoms: C20_20  and  C21_21 
REMARK   13  A    between atoms: C21_21  and  C22_22 
REMARK   14  A    between atoms: C22_22  and  N23_23 
REMARK       I    between atoms: N23_23  and  C24_24 
REMARK       I    between atoms: C24_24  and  N25_25 
REMARK       I    between atoms: C27_27  and  N29_29 
REMARK   15  A    between atoms: N29_29  and  C30_30 
ROOT
ATOM      1  C16 INH d         -18.540  94.096  80.996  0.00  0.00     0.249 C 
ATOM      2  O17 INH d         -19.133  95.144  80.738  0.00  0.00    -0.271 OA
ATOM      3  N18 INH d         -17.394  93.746  80.424  0.00  0.00    -0.346 N 
ATOM      4  H17 INH d         -16.952  92.890  80.692  0.00  0.00     0.163 HD
ENDROOT
BRANCH   3   5
ATOM      5  C19 INH d         -16.769  94.587  79.414  0.00  0.00     0.089 C 
ATOM      6  H18 INH d         -16.522  93.966  78.539  0.00  0.00     0.087 H 
BRANCH   5   7
ATOM      7  C27 INH d         -15.503  95.234  79.948  0.00  0.00     0.245 C 
ATOM      8  N29 INH d         -14.597  95.566  79.026  0.00  0.00    -0.325 N 
ATOM      9  H30 INH d         -14.858  95.350  78.085  0.00  0.00     0.169 HD
ATOM     10  O28 INH d         -15.407  95.519  81.139  0.00  0.00    -0.271 OA
BRANCH   8  11
ATOM     11  C30 INH d         -13.370  96.154  79.157  0.00  0.00     0.034 A 
ATOM     12  C35 INH d         -12.194  95.432  79.291  0.00  0.00    -0.057 A 
ATOM     13  C34 INH d         -10.958  96.082  79.377  0.00  0.00    -0.081 A 
ATOM     14  H35 INH d         -12.232  94.350  79.330  0.00  0.00     0.086 H 
ATOM     15  C33 INH d         -10.900  97.465  79.330  0.00  0.00    -0.083 A 
ATOM     16  H34 INH d         -10.047  95.505  79.481  0.00  0.00     0.083 H 
ATOM     17  C32 INH d         -12.064  98.199  79.201  0.00  0.00    -0.081 A 
ATOM     18  H33 INH d          -9.944  97.971  79.395  0.00  0.00     0.083 H 
ATOM     19  C31 INH d         -13.298  97.542  79.116  0.00  0.00    -0.057 A 
ATOM     20  H32 INH d         -12.022  99.282  79.165  0.00  0.00     0.083 H 
ATOM     21  H31 INH d         -14.208  98.124  79.018  0.00  0.00     0.086 H 
ENDBRANCH   8  11
ENDBRANCH   5   7
BRANCH   5  22
ATOM     22  C20 INH d         -17.695  95.702  78.995  0.00  0.00    -0.036 C 
ATOM     23  H19 INH d         -17.196  96.658  79.214  0.00  0.00     0.036 H 
ATOM     24  H20 INH d         -18.614  95.622  79.593  0.00  0.00     0.036 H 
BRANCH  22  25
ATOM     25  C21 INH d         -18.079  95.705  77.566  0.00  0.00    -0.048 C 
ATOM     26  H21 INH d         -18.288  94.682  77.220  0.00  0.00     0.035 H 
ATOM     27  H22 INH d         -17.277  96.142  76.952  0.00  0.00     0.035 H 
BRANCH  25  28
ATOM     28  C22 INH d         -19.299  96.537  77.494  0.00  0.00     0.009 C 
ATOM     29  H23 INH d         -19.468  96.817  76.444  0.00  0.00     0.064 H 
ATOM     30  H24 INH d         -19.137  97.444  78.096  0.00  0.00     0.064 H 
BRANCH  28  31
ATOM     31  N23 INH d         -20.484  95.864  77.986  0.00  0.00    -0.227 N 
ATOM     32  C24 INH d         -21.563  96.524  78.404  0.00  0.00     0.665 C 
ATOM     33  N26 INH d         -21.565  97.860  78.395  0.00  0.00    -0.235 N 
ATOM     34  N25 INH d         -22.633  95.857  78.836  0.00  0.00    -0.235 N 
ATOM     35  H28 INH d         -20.736  98.373  78.060  0.00  0.00     0.174 HD
ATOM     36  H29 INH d         -22.394  98.376  78.722  0.00  0.00     0.174 HD
ATOM     37  H26 INH d         -23.465  96.372  79.157  0.00  0.00     0.174 HD
ATOM     38  H27 INH d         -22.628  94.828  78.847  0.00  0.00     0.174 HD
ATOM     39  H25 INH d         -20.492  94.835  78.013  0.00  0.00     0.177 HD
ENDBRANCH  28  31
ENDBRANCH  25  28
ENDBRANCH  22  25
ENDBRANCH   5  22
ENDBRANCH   3   5
BRANCH   1  40
ATOM     40  C7  INH d         -19.107  93.128  82.024  0.00  0.00     0.179 C 
ATOM     41  H7  INH d         -19.919  93.613  82.586  0.00  0.00     0.099 H 
BRANCH  40  42
ATOM     42  N6  INH d         -19.624  91.952  81.311  0.00  0.00    -0.049 N 
ATOM     43  H5  INH d         -19.091  91.837  80.463  0.00  0.00     0.279 HD
ATOM     44  H6  INH d         -19.498  91.144  81.900  0.00  0.00     0.279 HD
BRANCH  42  45
ATOM     45  C2  INH d         -21.061  92.043  80.947  0.00  0.00     0.182 C 
ATOM     46  H4  INH d         -21.438  92.984  81.371  0.00  0.00     0.101 H 
BRANCH  45  47
ATOM     47  C1  INH d         -21.819  90.884  81.624  0.00  0.00    -0.040 C 
ATOM     48  H1  INH d         -22.723  91.275  82.114  0.00  0.00     0.031 H 
ATOM     49  H2  INH d         -21.171  90.410  82.375  0.00  0.00     0.031 H 
ATOM     50  H3  INH d         -22.106  90.140  80.865  0.00  0.00     0.031 H 
ENDBRANCH  45  47
BRANCH  45  51
ATOM     51  C3  INH d         -21.356  92.094  79.450  0.00  0.00     0.204 C 
ATOM     52  O5  INH d         -21.129  93.129  78.772  0.00  0.00    -0.646 OA
ATOM     53  O4  INH d         -21.828  91.078  78.924  0.00  0.00    -0.646 OA
ENDBRANCH  45  51
ENDBRANCH  42  45
ENDBRANCH  40  42
BRANCH  40  54
ATOM     54  C8  INH d         -18.000  92.688  82.996  0.00  0.00    -0.026 C 
ATOM     55  H8  INH d         -17.245  92.122  82.431  0.00  0.00     0.037 H 
ATOM     56  H9  INH d         -18.448  92.039  83.762  0.00  0.00     0.037 H 
BRANCH  54  57
ATOM     57  C9  INH d         -17.304  93.847  83.696  0.00  0.00    -0.039 C 
ATOM     58  H10 INH d         -18.079  94.431  84.216  0.00  0.00     0.040 H 
ATOM     59  H11 INH d         -16.836  94.469  82.919  0.00  0.00     0.040 H 
BRANCH  57  60
ATOM     60  C10 INH d         -16.246  93.514  84.699  0.00  0.00    -0.058 A 
ATOM     61  C15 INH d         -16.004  94.345  85.784  0.00  0.00    -0.077 A 
ATOM     62  C14 INH d         -15.039  94.015  86.726  0.00  0.00    -0.082 A 
ATOM     63  H16 INH d         -16.574  95.260  85.896  0.00  0.00     0.084 H 
ATOM     64  C13 INH d         -14.307  92.841  86.582  0.00  0.00    -0.083 A 
ATOM     65  H15 INH d         -14.857  94.670  87.570  0.00  0.00     0.083 H 
ATOM     66  C12 INH d         -14.541  92.008  85.504  0.00  0.00    -0.082 A 
ATOM     67  H14 INH d         -13.554  92.579  87.315  0.00  0.00     0.083 H 
ATOM     68  C11 INH d         -15.503  92.343  84.574  0.00  0.00    -0.077 A 
ATOM     69  H13 INH d         -13.971  91.094  85.390  0.00  0.00     0.083 H 
ATOM     70  H12 INH d         -15.683  91.683  83.733  0.00  0.00     0.084 H 
ENDBRANCH  57  60
ENDBRANCH  54  57
ENDBRANCH  40  54
ENDBRANCH   1  40
TORSDOF 15
ENDMDL
MODEL 6
REMARK VINA RESULT:      -7.4      1.879      6.058
REMARK  15 active torsions:
REMARK  status: ('A' for Active; 'I' for Inactive)
REMARK    1  A    between atoms: C1_1  and  C2_2 
REMARK    2  A    between atoms: C2_2  and  N6_6 
REMARK    3  A    between atoms: C2_2  and  C3_3 
REMARK    4  A    between atoms: N6_6  and  C7_7 
REMARK    5  A    between atoms: C7_7  and  C16_16 
REMARK    6  A    between atoms: C7_7  and  C8_8 
REMARK    7  A    between atoms: C8_8  and  C9_9 
REMARK    8  A    between atoms: C9_9  and  C10_10 
REMARK       I    between atoms: C16_16  and  N18_18 
REMARK    9  A    between atoms: N18_18  and  C19_19 
REMARK   10  A    between atoms: C19_19  and  C27_27 
REMARK   11  A    between atoms: C19_19  and  C20_20 
REMARK   12  A    between atoms: C20_20  and  C21_21 
REMARK   13  A    between atoms: C21_21  and  C22_22 
REMARK   14  A    between atoms: C22_22  and  N23_23 
REMARK       I    between atoms: N23_23  and  C24_24 
REMARK       I    between atoms: C24_24  and  N25_25 
REMARK       I    between atoms: C27_27  and  N29_29 
REMARK   15  A    between atoms: N29_29  and  C30_30 
ROOT
ATOM      1  C16 INH d         -18.043  94.168  80.683  0.00  0.00     0.249 C 
ATOM      2  O17 INH d         -18.184  93.242  79.883  0.00  0.00    -0.271 OA
ATOM      3  N18 INH d         -18.904  95.172  80.794  0.00  0.00    -0.346 N 
ATOM      4  H17 INH d         -18.743  95.884  81.478  0.00  0.00     0.163 HD
ENDROOT
BRANCH   3   5
ATOM      5  C19 INH d         -20.080  95.256  79.940  0.00  0.00     0.089 C 
ATOM      6  H18 INH d         -20.387  94.237  79.660  0.00  0.00     0.087 H 
BRANCH   5   7
ATOM      7  C27 INH d         -19.787  96.059  78.685  0.00  0.00     0.245 C 
ATOM      8  N29 INH d         -18.715  96.850  78.748  0.00  0.00    -0.325 N 
ATOM      9  H30 INH d         -18.224  96.821  79.619  0.00  0.00     0.169 HD
ATOM     10  O28 INH d         -20.449  95.880  77.665  0.00  0.00    -0.271 OA
BRANCH   8  11
ATOM     11  C30 INH d         -18.176  97.693  77.817  0.00  0.00     0.034 A 
ATOM     12  C35 INH d         -18.743  98.913  77.480  0.00  0.00    -0.057 A 
ATOM     13  C34 INH d         -18.127  99.759  76.552  0.00  0.00    -0.081 A 
ATOM     14  H35 INH d         -19.676  99.215  77.942  0.00  0.00     0.086 H 
ATOM     15  C33 INH d         -16.936  99.382  75.957  0.00  0.00    -0.083 A 
ATOM     16  H34 INH d         -18.582 100.710  76.299  0.00  0.00     0.083 H 
ATOM     17  C32 INH d         -16.359  98.168  76.279  0.00  0.00    -0.081 A 
ATOM     18  H33 INH d         -16.456 100.037  75.240  0.00  0.00     0.083 H 
ATOM     19  C31 INH d         -16.982  97.324  77.208  0.00  0.00    -0.057 A 
ATOM     20  H32 INH d         -15.427  97.868  75.814  0.00  0.00     0.083 H 
ATOM     21  H31 INH d         -16.526  96.371  77.455  0.00  0.00     0.086 H 
ENDBRANCH   8  11
ENDBRANCH   5   7
BRANCH   5  22
ATOM     22  C20 INH d         -21.215  95.946  80.655  0.00  0.00    -0.036 C 
ATOM     23  H19 INH d         -21.294  96.968  80.257  0.00  0.00     0.036 H 
ATOM     24  H20 INH d         -20.966  95.987  81.725  0.00  0.00     0.036 H 
BRANCH  22  25
ATOM     25  C21 INH d         -22.538  95.299  80.517  0.00  0.00    -0.048 C 
ATOM     26  H21 INH d         -23.104  95.749  79.689  0.00  0.00     0.035 H 
ATOM     27  H22 INH d         -23.114  95.396  81.450  0.00  0.00     0.035 H 
BRANCH  25  28
ATOM     28  C22 INH d         -22.246  93.878  80.234  0.00  0.00     0.009 C 
ATOM     29  H23 INH d         -21.313  93.822  79.654  0.00  0.00     0.064 H 
ATOM     30  H24 INH d         -23.074  93.464  79.638  0.00  0.00     0.064 H 
BRANCH  28  31
ATOM     31  N23 INH d         -22.093  93.072  81.428  0.00  0.00    -0.227 N 
ATOM     32  C24 INH d         -21.289  92.010  81.480  0.00  0.00     0.665 C 
ATOM     33  N26 INH d         -20.605  91.647  80.393  0.00  0.00    -0.235 N 
ATOM     34  N25 INH d         -21.175  91.309  82.607  0.00  0.00    -0.235 N 
ATOM     35  H28 INH d         -20.695  92.190  79.522  0.00  0.00     0.174 HD
ATOM     36  H29 INH d         -19.986  90.823  80.424  0.00  0.00     0.174 HD
ATOM     37  H26 INH d         -20.552  90.490  82.643  0.00  0.00     0.174 HD
ATOM     38  H27 INH d         -21.708  91.588  83.443  0.00  0.00     0.174 HD
ATOM     39  H25 INH d         -22.626  93.330  82.270  0.00  0.00     0.177 HD
ENDBRANCH  28  31
ENDBRANCH  25  28
ENDBRANCH  22  25
ENDBRANCH   5  22
ENDBRANCH   3   5
BRANCH   1  40
ATOM     40  C7  INH d         -16.841  94.198  81.616  0.00  0.00     0.179 C 
ATOM     41  H7  INH d         -17.026  94.906  82.439  0.00  0.00     0.099 H 
BRANCH  40  42
ATOM     42  N6  INH d         -16.644  92.846  82.155  0.00  0.00    -0.049 N 
ATOM     43  H5  INH d         -17.288  92.224  81.692  0.00  0.00     0.279 HD
ATOM     44  H6  INH d         -15.698  92.561  81.953  0.00  0.00     0.279 HD
BRANCH  42  45
ATOM     45  C2  INH d         -16.861  92.735  83.619  0.00  0.00     0.182 C 
ATOM     46  H4  INH d         -17.884  92.359  83.762  0.00  0.00     0.101 H 
BRANCH  45  47
ATOM     47  C1  INH d         -16.786  94.143  84.242  0.00  0.00    -0.040 C 
ATOM     48  H1  INH d         -15.948  94.185  84.953  0.00  0.00     0.031 H 
ATOM     49  H2  INH d         -17.726  94.361  84.770  0.00  0.00     0.031 H 
ATOM     50  H3  INH d         -16.630  94.888  83.447  0.00  0.00     0.031 H 
ENDBRANCH  45  47
BRANCH  45  51
ATOM     51  C3  INH d         -15.936  91.761  84.346  0.00  0.00     0.204 C 
ATOM     52  O5  INH d         -16.294  90.581  84.598  0.00  0.00    -0.646 OA
ATOM     53  O4  INH d         -14.818  92.174  84.681  0.00  0.00    -0.646 OA
ENDBRANCH  45  51
ENDBRANCH  42  45
ENDBRANCH  40  42
BRANCH  40  54
ATOM     54  C8  INH d         -15.586  94.628  80.839  0.00  0.00    -0.026 C 
ATOM     55  H8  INH d         -15.514  94.014  79.929  0.00  0.00     0.037 H 
ATOM     56  H9  INH d         -14.706  94.447  81.474  0.00  0.00     0.037 H 
BRANCH  54  57
ATOM     57  C9  INH d         -15.590  96.094  80.430  0.00  0.00    -0.039 C 
ATOM     58  H10 INH d         -16.036  96.665  81.258  0.00  0.00     0.040 H 
ATOM     59  H11 INH d         -16.225  96.185  79.537  0.00  0.00     0.040 H 
BRANCH  57  60
ATOM     60  C10 INH d         -14.272  96.725  80.109  0.00  0.00    -0.058 A 
ATOM     61  C15 INH d         -13.123  95.956  79.992  0.00  0.00    -0.077 A 
ATOM     62  C14 INH d         -11.909  96.546  79.667  0.00  0.00    -0.082 A 
ATOM     63  H16 INH d         -13.175  94.886  80.155  0.00  0.00     0.084 H 
ATOM     64  C13 INH d         -11.843  97.919  79.457  0.00  0.00    -0.083 A 
ATOM     65  H15 INH d         -11.016  95.938  79.576  0.00  0.00     0.083 H 
ATOM     66  C12 INH d         -12.982  98.692  79.573  0.00  0.00    -0.082 A 
ATOM     67  H14 INH d         -10.897  98.383  79.202  0.00  0.00     0.083 H 
ATOM     68  C11 INH d         -14.184  98.098  79.894  0.00  0.00    -0.077 A 
ATOM     69  H13 INH d         -12.931  99.762  79.411  0.00  0.00     0.083 H 
ATOM     70  H12 INH d         -15.075  98.710  79.981  0.00  0.00     0.084 H 
ENDBRANCH  57  60
ENDBRANCH  54  57
ENDBRANCH  40  54
ENDBRANCH   1  40
TORSDOF 15
ENDMDL
MODEL 7
REMARK VINA RESULT:      -7.3      2.558      5.333
REMARK  15 active torsions:
REMARK  status: ('A' for Active; 'I' for Inactive)
REMARK    1  A    between atoms: C1_1  and  C2_2 
REMARK    2  A    between atoms: C2_2  and  N6_6 
REMARK    3  A    between atoms: C2_2  and  C3_3 
REMARK    4  A    between atoms: N6_6  and  C7_7 
REMARK    5  A    between atoms: C7_7  and  C16_16 
REMARK    6  A    between atoms: C7_7  and  C8_8 
REMARK    7  A    between atoms: C8_8  and  C9_9 
REMARK    8  A    between atoms: C9_9  and  C10_10 
REMARK       I    between atoms: C16_16  and  N18_18 
REMARK    9  A    between atoms: N18_18  and  C19_19 
REMARK   10  A    between atoms: C19_19  and  C27_27 
REMARK   11  A    between atoms: C19_19  and  C20_20 
REMARK   12  A    between atoms: C20_20  and  C21_21 
REMARK   13  A    between atoms: C21_21  and  C22_22 
REMARK   14  A    between atoms: C22_22  and  N23_23 
REMARK       I    between atoms: N23_23  and  C24_24 
REMARK       I    between atoms: C24_24  and  N25_25 
REMARK       I    between atoms: C27_27  and  N29_29 
REMARK   15  A    between atoms: N29_29  and  C30_30 
ROOT
ATOM      1  C16 INH d         -19.533  96.076  79.782  0.00  0.00     0.249 C 
ATOM      2  O17 INH d         -20.644  95.868  80.271  0.00  0.00    -0.271 OA
ATOM      3  N18 INH d         -18.490  95.277  79.976  0.00  0.00    -0.346 N 
ATOM      4  H17 INH d         -17.619  95.490  79.533  0.00  0.00     0.163 HD
ENDROOT
BRANCH   3   5
ATOM      5  C19 INH d         -18.592  94.095  80.820  0.00  0.00     0.089 C 
ATOM      6  H18 INH d         -19.462  94.209  81.484  0.00  0.00     0.087 H 
BRANCH   5   7
ATOM      7  C27 INH d         -17.337  93.910  81.655  0.00  0.00     0.245 C 
ATOM      8  N29 INH d         -17.543  93.568  82.928  0.00  0.00    -0.325 N 
ATOM      9  H30 INH d         -18.504  93.472  83.186  0.00  0.00     0.169 HD
ATOM     10  O28 INH d         -16.228  93.968  81.129  0.00  0.00    -0.271 OA
BRANCH   8  11
ATOM     11  C30 INH d         -16.653  93.327  83.938  0.00  0.00     0.034 A 
ATOM     12  C35 INH d         -15.830  92.212  83.974  0.00  0.00    -0.057 A 
ATOM     13  C34 INH d         -14.905  92.036  85.008  0.00  0.00    -0.081 A 
ATOM     14  H35 INH d         -15.904  91.467  83.190  0.00  0.00     0.086 H 
ATOM     15  C33 INH d         -14.805  92.982  86.014  0.00  0.00    -0.083 A 
ATOM     16  H34 INH d         -14.268  91.159  85.023  0.00  0.00     0.083 H 
ATOM     17  C32 INH d         -15.620  94.097  85.995  0.00  0.00    -0.081 A 
ATOM     18  H33 INH d         -14.087  92.848  86.815  0.00  0.00     0.083 H 
ATOM     19  C31 INH d         -16.546  94.267  84.957  0.00  0.00    -0.057 A 
ATOM     20  H32 INH d         -15.545  94.839  86.781  0.00  0.00     0.083 H 
ATOM     21  H31 INH d         -17.185  95.143  84.949  0.00  0.00     0.086 H 
ENDBRANCH   8  11
ENDBRANCH   5   7
BRANCH   5  22
ATOM     22  C20 INH d         -18.756  92.851  79.983  0.00  0.00    -0.036 C 
ATOM     23  H19 INH d         -18.152  92.053  80.439  0.00  0.00     0.036 H 
ATOM     24  H20 INH d         -18.377  93.068  78.974  0.00  0.00     0.036 H 
BRANCH  22  25
ATOM     25  C21 INH d         -20.144  92.353  79.851  0.00  0.00    -0.048 C 
ATOM     26  H21 INH d         -20.150  91.325  79.460  0.00  0.00     0.035 H 
ATOM     27  H22 INH d         -20.725  93.004  79.181  0.00  0.00     0.035 H 
BRANCH  25  28
ATOM     28  C22 INH d         -20.700  92.391  81.220  0.00  0.00     0.009 C 
ATOM     29  H23 INH d         -21.535  93.108  81.238  0.00  0.00     0.064 H 
ATOM     30  H24 INH d         -19.911  92.729  81.908  0.00  0.00     0.064 H 
BRANCH  28  31
ATOM     31  N23 INH d         -21.190  91.107  81.679  0.00  0.00    -0.227 N 
ATOM     32  C24 INH d         -22.396  90.950  82.223  0.00  0.00     0.665 C 
ATOM     33  N26 INH d         -23.193  92.010  82.378  0.00  0.00    -0.235 N 
ATOM     34  N25 INH d         -22.803  89.744  82.617  0.00  0.00    -0.235 N 
ATOM     35  H28 INH d         -22.876  92.942  82.072  0.00  0.00     0.174 HD
ATOM     36  H29 INH d         -24.124  91.897  82.803  0.00  0.00     0.174 HD
ATOM     37  H26 INH d         -23.737  89.628  83.037  0.00  0.00     0.174 HD
ATOM     38  H27 INH d         -22.185  88.929  82.502  0.00  0.00     0.174 HD
ATOM     39  H25 INH d         -20.581  90.283  81.580  0.00  0.00     0.177 HD
ENDBRANCH  28  31
ENDBRANCH  25  28
ENDBRANCH  22  25
ENDBRANCH   5  22
ENDBRANCH   3   5
BRANCH   1  40
ATOM     40  C7  INH d         -19.300  97.291  78.896  0.00  0.00     0.179 C 
ATOM     41  H7  INH d         -18.701  98.038  79.437  0.00  0.00     0.099 H 
BRANCH  40  42
ATOM     42  N6  INH d         -18.583  96.851  77.692  0.00  0.00    -0.049 N 
ATOM     43  H5  INH d         -18.272  95.903  77.838  0.00  0.00     0.279 HD
ATOM     44  H6  INH d         -19.224  96.877  76.914  0.00  0.00     0.279 HD
BRANCH  42  45
ATOM     45  C2  INH d         -17.401  97.681  77.348  0.00  0.00     0.182 C 
ATOM     46  H4  INH d         -17.559  98.667  77.808  0.00  0.00     0.101 H 
BRANCH  45  47
ATOM     47  C1  INH d         -17.358  97.877  75.820  0.00  0.00    -0.040 C 
ATOM     48  H1  INH d         -16.464  98.458  75.550  0.00  0.00     0.031 H 
ATOM     49  H2  INH d         -18.259  98.418  75.494  0.00  0.00     0.031 H 
ATOM     50  H3  INH d         -17.322  96.895  75.324  0.00  0.00     0.031 H 
ENDBRANCH  45  47
BRANCH  45  51
ATOM     51  C3  INH d         -16.064  97.166  77.875  0.00  0.00     0.204 C 
ATOM     52  O5  INH d         -16.002  96.186  78.661  0.00  0.00    -0.646 OA
ATOM     53  O4  INH d         -15.038  97.749  77.500  0.00  0.00    -0.646 OA
ENDBRANCH  45  51
ENDBRANCH  42  45
ENDBRANCH  40  42
BRANCH  40  54
ATOM     54  C8  INH d         -20.649  97.908  78.490  0.00  0.00    -0.026 C 
ATOM     55  H8  INH d         -20.612  98.988  78.694  0.00  0.00     0.037 H 
ATOM     56  H9  INH d         -21.439  97.447  79.100  0.00  0.00     0.037 H 
BRANCH  54  57
ATOM     57  C9  INH d         -20.997  97.708  77.022  0.00  0.00    -0.039 C 
ATOM     58  H10 INH d         -20.053  97.561  76.477  0.00  0.00     0.040 H 
ATOM     59  H11 INH d         -21.484  98.629  76.670  0.00  0.00     0.040 H 
BRANCH  57  60
ATOM     60  C10 INH d         -21.898  96.565  76.675  0.00  0.00    -0.058 A 
ATOM     61  C15 INH d         -21.787  95.915  75.454  0.00  0.00    -0.077 A 
ATOM     62  C14 INH d         -22.608  94.837  75.151  0.00  0.00    -0.082 A 
ATOM     63  H16 INH d         -21.052  96.252  74.732  0.00  0.00     0.084 H 
ATOM     64  C13 INH d         -23.550  94.405  76.077  0.00  0.00    -0.083 A 
ATOM     65  H15 INH d         -22.514  94.335  74.195  0.00  0.00     0.083 H 
ATOM     66  C12 INH d         -23.668  95.048  77.294  0.00  0.00    -0.082 A 
ATOM     67  H14 INH d         -24.193  93.564  75.845  0.00  0.00     0.083 H 
ATOM     68  C11 INH d         -22.848  96.116  77.589  0.00  0.00    -0.077 A 
ATOM     69  H13 INH d         -24.403  94.713  78.016  0.00  0.00     0.083 H 
ATOM     70  H12 INH d         -22.944  96.614  78.547  0.00  0.00     0.084 H 
ENDBRANCH  57  60
ENDBRANCH  54  57
ENDBRANCH  40  54
ENDBRANCH   1  40
TORSDOF 15
ENDMDL
MODEL 8
REMARK VINA RESULT:      -7.2      1.471      2.187
REMARK  15 active torsions:
REMARK  status: ('A' for Active; 'I' for Inactive)
REMARK    1  A    between atoms: C1_1  and  C2_2 
REMARK    2  A    between atoms: C2_2  and  N6_6 
REMARK    3  A    between atoms: C2_2  and  C3_3 
REMARK    4  A    between atoms: N6_6  and  C7_7 
REMARK    5  A    between atoms: C7_7  and  C16_16 
REMARK    6  A    between atoms: C7_7  and  C8_8 
REMARK    7  A    between atoms: C8_8  and  C9_9 
REMARK    8  A    between atoms: C9_9  and  C10_10 
REMARK       I    between atoms: C16_16  and  N18_18 
REMARK    9  A    between atoms: N18_18  and  C19_19 
REMARK   10  A    between atoms: C19_19  and  C27_27 
REMARK   11  A    between atoms: C19_19  and  C20_20 
REMARK   12  A    between atoms: C20_20  and  C21_21 
REMARK   13  A    between atoms: C21_21  and  C22_22 
REMARK   14  A    between atoms: C22_22  and  N23_23 
REMARK       I    between atoms: N23_23  and  C24_24 
REMARK       I    between atoms: C24_24  and  N25_25 
REMARK       I    between atoms: C27_27  and  N29_29 
REMARK   15  A    between atoms: N29_29  and  C30_30 
ROOT
ATOM      1  C16 INH d         -17.439  94.463  79.739  0.00  0.00     0.249 C 
ATOM      2  O17 INH d         -17.108  93.288  79.580  0.00  0.00    -0.271 OA
ATOM      3  N18 INH d         -18.491  94.832  80.462  0.00  0.00    -0.346 N 
ATOM      4  H17 INH d         -18.696  95.805  80.569  0.00  0.00     0.163 HD
ENDROOT
BRANCH   3   5
ATOM      5  C19 INH d         -19.349  93.846  81.101  0.00  0.00     0.089 C 
ATOM      6  H18 INH d         -20.284  94.338  81.410  0.00  0.00     0.087 H 
BRANCH   5   7
ATOM      7  C27 INH d         -18.672  93.238  82.317  0.00  0.00     0.245 C 
ATOM      8  N29 INH d         -17.510  93.795  82.664  0.00  0.00    -0.325 N 
ATOM      9  H30 INH d         -17.219  94.553  82.081  0.00  0.00     0.169 HD
ATOM     10  O28 INH d         -19.241  92.370  82.975  0.00  0.00    -0.271 OA
BRANCH   8  11
ATOM     11  C30 INH d         -16.653  93.498  83.686  0.00  0.00     0.034 A 
ATOM     12  C35 INH d         -16.577  94.244  84.853  0.00  0.00    -0.057 A 
ATOM     13  C34 INH d         -15.714  93.872  85.888  0.00  0.00    -0.081 A 
ATOM     14  H35 INH d         -17.195  95.128  84.964  0.00  0.00     0.086 H 
ATOM     15  C33 INH d         -14.920  92.745  85.754  0.00  0.00    -0.083 A 
ATOM     16  H34 INH d         -15.666  94.465  86.795  0.00  0.00     0.083 H 
ATOM     17  C32 INH d         -14.981  91.993  84.597  0.00  0.00    -0.081 A 
ATOM     18  H33 INH d         -14.252  92.454  86.556  0.00  0.00     0.083 H 
ATOM     19  C31 INH d         -15.847  92.372  83.563  0.00  0.00    -0.057 A 
ATOM     20  H32 INH d         -14.360  91.111  84.488  0.00  0.00     0.083 H 
ATOM     21  H31 INH d         -15.888  91.780  82.656  0.00  0.00     0.086 H 
ENDBRANCH   8  11
ENDBRANCH   5   7
BRANCH   5  22
ATOM     22  C20 INH d         -19.664  92.714  80.155  0.00  0.00    -0.036 C 
ATOM     23  H19 INH d         -19.225  91.794  80.569  0.00  0.00     0.036 H 
ATOM     24  H20 INH d         -19.195  92.942  79.186  0.00  0.00     0.036 H 
BRANCH  22  25
ATOM     25  C21 INH d         -21.103  92.466  79.918  0.00  0.00    -0.048 C 
ATOM     26  H21 INH d         -21.635  92.336  80.873  0.00  0.00     0.035 H 
ATOM     27  H22 INH d         -21.243  91.570  79.296  0.00  0.00     0.035 H 
BRANCH  25  28
ATOM     28  C22 INH d         -21.592  93.670  79.213  0.00  0.00     0.009 C 
ATOM     29  H23 INH d         -22.122  93.349  78.303  0.00  0.00     0.064 H 
ATOM     30  H24 INH d         -20.725  94.287  78.935  0.00  0.00     0.064 H 
BRANCH  28  31
ATOM     31  N23 INH d         -22.495  94.476  80.008  0.00  0.00    -0.227 N 
ATOM     32  C24 INH d         -22.423  95.806  80.050  0.00  0.00     0.665 C 
ATOM     33  N26 INH d         -21.475  96.438  79.354  0.00  0.00    -0.235 N 
ATOM     34  N25 INH d         -23.286  96.503  80.789  0.00  0.00    -0.235 N 
ATOM     35  H28 INH d         -20.809  95.897  78.783  0.00  0.00     0.174 HD
ATOM     36  H29 INH d         -21.409  97.466  79.387  0.00  0.00     0.174 HD
ATOM     37  H26 INH d         -23.227  97.531  80.818  0.00  0.00     0.174 HD
ATOM     38  H27 INH d         -24.013  96.014  81.330  0.00  0.00     0.174 HD
ATOM     39  H25 INH d         -23.222  94.003  80.563  0.00  0.00     0.177 HD
ENDBRANCH  28  31
ENDBRANCH  25  28
ENDBRANCH  22  25
ENDBRANCH   5  22
ENDBRANCH   3   5
BRANCH   1  40
ATOM     40  C7  INH d         -16.628  95.582  79.103  0.00  0.00     0.179 C 
ATOM     41  H7  INH d         -16.058  95.190  78.248  0.00  0.00     0.099 H 
BRANCH  40  42
ATOM     42  N6  INH d         -17.559  96.623  78.648  0.00  0.00    -0.049 N 
ATOM     43  H5  INH d         -18.496  96.335  78.884  0.00  0.00     0.279 HD
ATOM     44  H6  INH d         -17.339  97.479  79.134  0.00  0.00     0.279 HD
BRANCH  42  45
ATOM     45  C2  INH d         -17.509  96.891  77.189  0.00  0.00     0.182 C 
ATOM     46  H4  INH d         -17.483  95.914  76.686  0.00  0.00     0.101 H 
BRANCH  45  47
ATOM     47  C1  INH d         -16.193  97.624  76.862  0.00  0.00    -0.040 C 
ATOM     48  H1  INH d         -15.476  97.472  77.682  0.00  0.00     0.031 H 
ATOM     49  H2  INH d         -16.392  98.699  76.743  0.00  0.00     0.031 H 
ATOM     50  H3  INH d         -15.772  97.223  75.928  0.00  0.00     0.031 H 
ENDBRANCH  45  47
BRANCH  45  51
ATOM     51  C3  INH d         -18.712  97.639  76.618  0.00  0.00     0.204 C 
ATOM     52  O5  INH d         -19.818  97.657  77.219  0.00  0.00    -0.646 OA
ATOM     53  O4  INH d         -18.562  98.229  75.541  0.00  0.00    -0.646 OA
ENDBRANCH  45  51
ENDBRANCH  42  45
ENDBRANCH  40  42
BRANCH  40  54
ATOM     54  C8  INH d         -15.660  96.180  80.137  0.00  0.00    -0.026 C 
ATOM     55  H8  INH d         -16.155  96.178  81.119  0.00  0.00     0.037 H 
ATOM     56  H9  INH d         -15.433  97.215  79.843  0.00  0.00     0.037 H 
BRANCH  54  57
ATOM     57  C9  INH d         -14.348  95.417  80.261  0.00  0.00    -0.039 C 
ATOM     58  H10 INH d         -14.440  94.504  79.654  0.00  0.00     0.040 H 
ATOM     59  H11 INH d         -14.224  95.144  81.318  0.00  0.00     0.040 H 
BRANCH  57  60
ATOM     60  C10 INH d         -13.099  96.117  79.829  0.00  0.00    -0.058 A 
ATOM     61  C15 INH d         -11.928  95.409  79.600  0.00  0.00    -0.077 A 
ATOM     62  C14 INH d         -10.779  96.063  79.173  0.00  0.00    -0.082 A 
ATOM     63  H16 INH d         -11.910  94.337  79.755  0.00  0.00     0.084 H 
ATOM     64  C13 INH d         -10.802  97.439  78.974  0.00  0.00    -0.083 A 
ATOM     65  H15 INH d          -9.868  95.502  78.996  0.00  0.00     0.083 H 
ATOM     66  C12 INH d         -11.964  98.151  79.201  0.00  0.00    -0.082 A 
ATOM     67  H14 INH d          -9.908  97.953  78.640  0.00  0.00     0.083 H 
ATOM     68  C11 INH d         -13.100  97.495  79.623  0.00  0.00    -0.077 A 
ATOM     69  H13 INH d         -11.982  99.224  79.047  0.00  0.00     0.083 H 
ATOM     70  H12 INH d         -14.009  98.059  79.796  0.00  0.00     0.084 H 
ENDBRANCH  57  60
ENDBRANCH  54  57
ENDBRANCH  40  54
ENDBRANCH   1  40
TORSDOF 15
ENDMDL
MODEL 9
REMARK VINA RESULT:      -7.1      2.079      3.082
REMARK  15 active torsions:
REMARK  status: ('A' for Active; 'I' for Inactive)
REMARK    1  A    between atoms: C1_1  and  C2_2 
REMARK    2  A    between atoms: C2_2  and  N6_6 
REMARK    3  A    between atoms: C2_2  and  C3_3 
REMARK    4  A    between atoms: N6_6  and  C7_7 
REMARK    5  A    between atoms: C7_7  and  C16_16 
REMARK    6  A    between atoms: C7_7  and  C8_8 
REMARK    7  A    between atoms: C8_8  and  C9_9 
REMARK    8  A    between atoms: C9_9  and  C10_10 
REMARK       I    between atoms: C16_16  and  N18_18 
REMARK    9  A    between atoms: N18_18  and  C19_19 
REMARK   10  A    between atoms: C19_19  and  C27_27 
REMARK   11  A    between atoms: C19_19  and  C20_20 
REMARK   12  A    between atoms: C20_20  and  C21_21 
REMARK   13  A    between atoms: C21_21  and  C22_22 
REMARK   14  A    between atoms: C22_22  and  N23_23 
REMARK       I    between atoms: N23_23  and  C24_24 
REMARK       I    between atoms: C24_24  and  N25_25 
REMARK       I    between atoms: C27_27  and  N29_29 
REMARK   15  A    between atoms: N29_29  and  C30_30 
ROOT
ATOM      1  C16 INH d         -19.028  94.216  79.657  0.00  0.00     0.249 C 
ATOM      2  O17 INH d         -19.249  93.083  79.227  0.00  0.00    -0.271 OA
ATOM      3  N18 INH d         -19.007  94.513  80.951  0.00  0.00    -0.346 N 
ATOM      4  H17 INH d         -18.802  95.450  81.236  0.00  0.00     0.163 HD
ENDROOT
BRANCH   3   5
ATOM      5  C19 INH d         -19.275  93.500  81.961  0.00  0.00     0.089 C 
ATOM      6  H18 INH d         -19.920  93.938  82.738  0.00  0.00     0.087 H 
BRANCH   5   7
ATOM      7  C27 INH d         -17.987  93.004  82.594  0.00  0.00     0.245 C 
ATOM      8  N29 INH d         -17.635  93.613  83.728  0.00  0.00    -0.325 N 
ATOM      9  H30 INH d         -18.264  94.328  84.032  0.00  0.00     0.169 HD
ATOM     10  O28 INH d         -17.399  92.033  82.124  0.00  0.00    -0.271 OA
BRANCH   8  11
ATOM     11  C30 INH d         -16.554  93.418  84.542  0.00  0.00     0.034 A 
ATOM     12  C35 INH d         -16.203  94.294  85.559  0.00  0.00    -0.057 A 
ATOM     13  C34 INH d         -15.113  94.025  86.393  0.00  0.00    -0.081 A 
ATOM     14  H35 INH d         -16.781  95.198  85.709  0.00  0.00     0.086 H 
ATOM     15  C33 INH d         -14.369  92.872  86.208  0.00  0.00    -0.083 A 
ATOM     16  H34 INH d         -14.851  94.718  87.185  0.00  0.00     0.083 H 
ATOM     17  C32 INH d         -14.703  91.991  85.197  0.00  0.00    -0.081 A 
ATOM     18  H33 INH d         -13.525  92.661  86.855  0.00  0.00     0.083 H 
ATOM     19  C31 INH d         -15.795  92.267  84.364  0.00  0.00    -0.057 A 
ATOM     20  H32 INH d         -14.122  91.088  85.049  0.00  0.00     0.083 H 
ATOM     21  H31 INH d         -16.051  91.574  83.571  0.00  0.00     0.086 H 
ENDBRANCH   8  11
ENDBRANCH   5   7
BRANCH   5  22
ATOM     22  C20 INH d         -19.960  92.302  81.352  0.00  0.00    -0.036 C 
ATOM     23  H19 INH d         -19.266  91.451  81.406  0.00  0.00     0.036 H 
ATOM     24  H20 INH d         -20.176  92.534  80.299  0.00  0.00     0.036 H 
BRANCH  22  25
ATOM     25  C21 INH d         -21.228  91.899  82.000  0.00  0.00    -0.048 C 
ATOM     26  H21 INH d         -21.658  92.740  82.565  0.00  0.00     0.035 H 
ATOM     27  H22 INH d         -21.062  91.049  82.678  0.00  0.00     0.035 H 
BRANCH  25  28
ATOM     28  C22 INH d         -22.123  91.509  80.890  0.00  0.00     0.009 C 
ATOM     29  H23 INH d         -23.098  91.222  81.312  0.00  0.00     0.064 H 
ATOM     30  H24 INH d         -21.679  90.646  80.371  0.00  0.00     0.064 H 
BRANCH  28  31
ATOM     31  N23 INH d         -22.336  92.567  79.923  0.00  0.00    -0.227 N 
ATOM     32  C24 INH d         -22.389  92.341  78.611  0.00  0.00     0.665 C 
ATOM     33  N26 INH d         -22.220  91.100  78.148  0.00  0.00    -0.235 N 
ATOM     34  N25 INH d         -22.599  93.348  77.764  0.00  0.00    -0.235 N 
ATOM     35  H28 INH d         -22.058  90.323  78.804  0.00  0.00     0.174 HD
ATOM     36  H29 INH d         -22.254  90.920  77.134  0.00  0.00     0.174 HD
ATOM     37  H26 INH d         -22.639  93.169  76.751  0.00  0.00     0.174 HD
ATOM     38  H27 INH d         -22.723  94.305  78.123  0.00  0.00     0.174 HD
ATOM     39  H25 INH d         -22.452  93.531  80.264  0.00  0.00     0.177 HD
ENDBRANCH  28  31
ENDBRANCH  25  28
ENDBRANCH  22  25
ENDBRANCH   5  22
ENDBRANCH   3   5
BRANCH   1  40
ATOM     40  C7  INH d         -18.752  95.361  78.694  0.00  0.00     0.179 C 
ATOM     41  H7  INH d         -19.263  95.176  77.737  0.00  0.00     0.099 H 
BRANCH  40  42
ATOM     42  N6  INH d         -19.257  96.601  79.298  0.00  0.00    -0.049 N 
ATOM     43  H5  INH d         -19.252  96.489  80.300  0.00  0.00     0.279 HD
ATOM     44  H6  INH d         -18.638  97.354  79.041  0.00  0.00     0.279 HD
BRANCH  42  45
ATOM     45  C2  INH d         -20.633  96.968  78.879  0.00  0.00     0.182 C 
ATOM     46  H4  INH d         -20.769  96.582  77.858  0.00  0.00     0.101 H 
BRANCH  45  47
ATOM     47  C1  INH d         -20.742  98.504  78.819  0.00  0.00    -0.040 C 
ATOM     48  H1  INH d         -19.777  98.952  79.100  0.00  0.00     0.031 H 
ATOM     49  H2  INH d         -21.521  98.844  79.517  0.00  0.00     0.031 H 
ATOM     50  H3  INH d         -21.006  98.814  77.796  0.00  0.00     0.031 H 
ENDBRANCH  45  47
BRANCH  45  51
ATOM     51  C3  INH d         -21.757  96.369  79.722  0.00  0.00     0.204 C 
ATOM     52  O5  INH d         -22.831  95.977  79.198  0.00  0.00    -0.646 OA
ATOM     53  O4  INH d         -21.573  96.282  80.943  0.00  0.00    -0.646 OA
ENDBRANCH  45  51
ENDBRANCH  42  45
ENDBRANCH  40  42
BRANCH  40  54
ATOM     54  C8  INH d         -17.239  95.489  78.453  0.00  0.00    -0.026 C 
ATOM     55  H8  INH d         -17.048  95.388  77.375  0.00  0.00     0.037 H 
ATOM     56  H9  INH d         -16.732  94.676  78.994  0.00  0.00     0.037 H 
BRANCH  54  57
ATOM     57  C9  INH d         -16.654  96.815  78.921  0.00  0.00    -0.039 C 
ATOM     58  H10 INH d         -17.162  97.085  79.859  0.00  0.00     0.040 H 
ATOM     59  H11 INH d         -16.881  97.565  78.151  0.00  0.00     0.040 H 
BRANCH  57  60
ATOM     60  C10 INH d         -15.182  96.868  79.178  0.00  0.00    -0.058 A 
ATOM     61  C15 INH d         -14.494  98.072  79.135  0.00  0.00    -0.077 A 
ATOM     62  C14 INH d         -13.132  98.117  79.401  0.00  0.00    -0.082 A 
ATOM     63  H16 INH d         -15.024  98.985  78.890  0.00  0.00     0.084 H 
ATOM     64  C13 INH d         -12.450  96.946  79.714  0.00  0.00    -0.083 A 
ATOM     65  H15 INH d         -12.601  99.062  79.365  0.00  0.00     0.083 H 
ATOM     66  C12 INH d         -13.128  95.743  79.759  0.00  0.00    -0.082 A 
ATOM     67  H14 INH d         -11.387  96.977  79.924  0.00  0.00     0.083 H 
ATOM     68  C11 INH d         -14.481  95.707  79.494  0.00  0.00    -0.077 A 
ATOM     69  H13 INH d         -12.598  94.829  80.001  0.00  0.00     0.083 H 
ATOM     70  H12 INH d         -15.007  94.760  79.534  0.00  0.00     0.084 H 
ENDBRANCH  57  60
ENDBRANCH  54  57
ENDBRANCH  40  54
ENDBRANCH   1  40
TORSDOF 15
ENDMDL
MODEL 10
REMARK VINA RESULT:      -7.1      2.517      7.227
REMARK  15 active torsions:
REMARK  status: ('A' for Active; 'I' for Inactive)
REMARK    1  A    between atoms: C1_1  and  C2_2 
REMARK    2  A    between atoms: C2_2  and  N6_6 
REMARK    3  A    between atoms: C2_2  and  C3_3 
REMARK    4  A    between atoms: N6_6  and  C7_7 
REMARK    5  A    between atoms: C7_7  and  C16_16 
REMARK    6  A    between atoms: C7_7  and  C8_8 
REMARK    7  A    between atoms: C8_8  and  C9_9 
REMARK    8  A    between atoms: C9_9  and  C10_10 
REMARK       I    between atoms: C16_16  and  N18_18 
REMARK    9  A    between atoms: N18_18  and  C19_19 
REMARK   10  A    between atoms: C19_19  and  C27_27 
REMARK   11  A    between atoms: C19_19  and  C20_20 
REMARK   12  A    between atoms: C20_20  and  C21_21 
REMARK   13  A    between atoms: C21_21  and  C22_22 
REMARK   14  A    between atoms: C22_22  and  N23_23 
REMARK       I    between atoms: N23_23  and  C24_24 
REMARK       I    between atoms: C24_24  and  N25_25 
REMARK       I    between atoms: C27_27  and  N29_29 
REMARK   15  A    between atoms: N29_29  and  C30_30 
ROOT
ATOM      1  C16 INH d         -18.376  95.922  79.629  0.00  0.00     0.249 C 
ATOM      2  O17 INH d         -18.878  96.529  80.576  0.00  0.00    -0.271 OA
ATOM      3  N18 INH d         -17.134  95.453  79.641  0.00  0.00    -0.346 N 
ATOM      4  H17 INH d         -16.791  94.950  78.847  0.00  0.00     0.163 HD
ENDROOT
BRANCH   3   5
ATOM      5  C19 INH d         -16.262  95.656  80.788  0.00  0.00     0.089 C 
ATOM      6  H18 INH d         -16.764  96.331  81.499  0.00  0.00     0.087 H 
BRANCH   5   7
ATOM      7  C27 INH d         -14.935  96.261  80.366  0.00  0.00     0.245 C 
ATOM      8  N29 INH d         -14.161  95.476  79.616  0.00  0.00    -0.325 N 
ATOM      9  H30 INH d         -14.547  94.575  79.416  0.00  0.00     0.169 HD
ATOM     10  O28 INH d         -14.678  97.435  80.623  0.00  0.00    -0.271 OA
BRANCH   8  11
ATOM     11  C30 INH d         -12.926  95.700  79.074  0.00  0.00     0.034 A 
ATOM     12  C35 INH d         -11.771  95.802  79.835  0.00  0.00    -0.057 A 
ATOM     13  C34 INH d         -10.525  95.988  79.228  0.00  0.00    -0.081 A 
ATOM     14  H35 INH d         -11.835  95.737  80.915  0.00  0.00     0.086 H 
ATOM     15  C33 INH d         -10.434  96.074  77.849  0.00  0.00    -0.083 A 
ATOM     16  H34 INH d          -9.631  96.065  79.836  0.00  0.00     0.083 H 
ATOM     17  C32 INH d         -11.576  95.979  77.076  0.00  0.00    -0.081 A 
ATOM     18  H33 INH d          -9.470  96.217  77.376  0.00  0.00     0.083 H 
ATOM     19  C31 INH d         -12.821  95.794  77.691  0.00  0.00    -0.057 A 
ATOM     20  H32 INH d         -11.509  96.046  75.997  0.00  0.00     0.083 H 
ATOM     21  H31 INH d         -13.714  95.722  77.080  0.00  0.00     0.086 H 
ENDBRANCH   8  11
ENDBRANCH   5   7
BRANCH   5  22
ATOM     22  C20 INH d         -15.956  94.345  81.469  0.00  0.00    -0.036 C 
ATOM     23  H19 INH d         -15.583  94.566  82.480  0.00  0.00     0.036 H 
ATOM     24  H20 INH d         -15.170  93.838  80.890  0.00  0.00     0.036 H 
BRANCH  22  25
ATOM     25  C21 INH d         -17.100  93.415  81.598  0.00  0.00    -0.048 C 
ATOM     26  H21 INH d         -17.035  92.616  80.844  0.00  0.00     0.035 H 
ATOM     27  H22 INH d         -18.051  93.954  81.478  0.00  0.00     0.035 H 
BRANCH  25  28
ATOM     28  C22 INH d         -16.990  92.852  82.960  0.00  0.00     0.009 C 
ATOM     29  H23 INH d         -16.047  92.289  83.029  0.00  0.00     0.064 H 
ATOM     30  H24 INH d         -17.838  92.171  83.125  0.00  0.00     0.064 H 
BRANCH  28  31
ATOM     31  N23 INH d         -17.000  93.859  84.001  0.00  0.00    -0.227 N 
ATOM     32  C24 INH d         -16.200  93.801  85.065  0.00  0.00     0.665 C 
ATOM     33  N26 INH d         -15.361  92.771  85.204  0.00  0.00    -0.235 N 
ATOM     34  N25 INH d         -16.240  94.760  85.989  0.00  0.00    -0.235 N 
ATOM     35  H28 INH d         -15.332  92.031  84.489  0.00  0.00     0.174 HD
ATOM     36  H29 INH d         -14.744  92.717  86.028  0.00  0.00     0.174 HD
ATOM     37  H26 INH d         -15.619  94.712  86.809  0.00  0.00     0.174 HD
ATOM     38  H27 INH d         -16.891  95.551  85.883  0.00  0.00     0.174 HD
ATOM     39  H25 INH d         -17.652  94.651  83.916  0.00  0.00     0.177 HD
ENDBRANCH  28  31
ENDBRANCH  25  28
ENDBRANCH  22  25
ENDBRANCH   5  22
ENDBRANCH   3   5
BRANCH   1  40
ATOM     40  C7  INH d         -19.186  95.665  78.366  0.00  0.00     0.179 C 
ATOM     41  H7  INH d         -19.977  96.423  78.270  0.00  0.00     0.099 H 
BRANCH  40  42
ATOM     42  N6  INH d         -18.277  95.741  77.215  0.00  0.00    -0.049 N 
ATOM     43  H5  INH d         -17.355  95.474  77.522  0.00  0.00     0.279 HD
ATOM     44  H6  INH d         -18.599  95.091  76.514  0.00  0.00     0.279 HD
BRANCH  42  45
ATOM     45  C2  INH d         -18.189  97.086  76.595  0.00  0.00     0.182 C 
ATOM     46  H4  INH d         -18.930  97.720  77.102  0.00  0.00     0.101 H 
BRANCH  45  47
ATOM     47  C1  INH d         -18.599  96.979  75.112  0.00  0.00    -0.040 C 
ATOM     48  H1  INH d         -18.400  95.959  74.750  0.00  0.00     0.031 H 
ATOM     49  H2  INH d         -18.017  97.698  74.518  0.00  0.00     0.031 H 
ATOM     50  H3  INH d         -19.671  97.202  75.011  0.00  0.00     0.031 H 
ENDBRANCH  45  47
BRANCH  45  51
ATOM     51  C3  INH d         -16.842  97.790  76.744  0.00  0.00     0.204 C 
ATOM     52  O5  INH d         -15.876  97.239  77.332  0.00  0.00    -0.646 OA
ATOM     53  O4  INH d         -16.733  98.926  76.265  0.00  0.00    -0.646 OA
ENDBRANCH  45  51
ENDBRANCH  42  45
ENDBRANCH  40  42
BRANCH  40  54
ATOM     54  C8  INH d         -19.818  94.265  78.427  0.00  0.00    -0.026 C 
ATOM     55  H8  INH d         -19.265  93.665  79.165  0.00  0.00     0.037 H 
ATOM     56  H9  INH d         -19.728  93.800  77.434  0.00  0.00     0.037 H 
BRANCH  54  57
ATOM     57  C9  INH d         -21.289  94.273  78.821  0.00  0.00    -0.039 C 
ATOM     58  H10 INH d         -21.713  95.232  78.487  0.00  0.00     0.040 H 
ATOM     59  H11 INH d         -21.336  94.213  79.918  0.00  0.00     0.040 H 
BRANCH  57  60
ATOM     60  C10 INH d         -22.156  93.184  78.274  0.00  0.00    -0.058 A 
ATOM     61  C15 INH d         -23.046  93.433  77.239  0.00  0.00    -0.077 A 
ATOM     62  C14 INH d         -23.829  92.411  76.719  0.00  0.00    -0.082 A 
ATOM     63  H16 INH d         -23.131  94.435  76.834  0.00  0.00     0.084 H 
ATOM     64  C13 INH d         -23.721  91.126  77.239  0.00  0.00    -0.083 A 
ATOM     65  H15 INH d         -24.521  92.614  75.910  0.00  0.00     0.083 H 
ATOM     66  C12 INH d         -22.838  90.870  78.271  0.00  0.00    -0.082 A 
ATOM     67  H14 INH d         -24.329  90.325  76.836  0.00  0.00     0.083 H 
ATOM     68  C11 INH d         -22.063  91.890  78.781  0.00  0.00    -0.077 A 
ATOM     69  H13 INH d         -22.754  89.869  78.678  0.00  0.00     0.083 H 
ATOM     70  H12 INH d         -21.370  91.681  79.588  0.00  0.00     0.084 H 
ENDBRANCH  57  60
ENDBRANCH  54  57
ENDBRANCH  40  54
ENDBRANCH   1  40
TORSDOF 15
ENDMDL
