MODEL 1
REMARK VINA RESULT:      -7.0      0.000      0.000
REMARK  10 active torsions:
REMARK  status: ('A' for Active; 'I' for Inactive)
REMARK    1  A    between atoms: C2_1  and  O2_7 
REMARK    2  A    between atoms: C3_2  and  O3_8 
REMARK    3  A    between atoms: C4_3  and  O4_9 
REMARK    4  A    between atoms: C5_4  and  C6_5 
REMARK    5  A    between atoms: C6_5  and  O6_11 
REMARK    6  A    between atoms: O4_19  and  C1_6 
REMARK    7  A    between atoms: C5_13  and  C6_12 
REMARK    8  A    between atoms: C6_12  and  O6_17 
REMARK    9  A    between atoms: C4_14  and  O4_19 
REMARK   10  A    between atoms: C3_15  and  O3_20 
ROOT
ATOM      1  C2  BGC d          61.124  47.752  36.325  0.00  0.00     0.110 C 
ATOM      2  C3  BGC d          60.452  48.744  37.286  0.00  0.00     0.092 C 
ATOM      3  C4  BGC d          58.935  48.546  37.320  0.00  0.00     0.090 C 
ATOM      4  C5  BGC d          58.630  47.079  37.620  0.00  0.00     0.089 C 
ATOM      5  C1  BGC d          60.692  46.332  36.662  0.00  0.00     0.159 C 
ATOM      6  O5  BGC d          59.267  46.279  36.618  0.00  0.00    -0.348 OA
ATOM      7  H1  BGC d          60.792  47.983  35.303  0.00  0.00     0.094 H 
ATOM      8  H2  BGC d          60.850  48.571  38.298  0.00  0.00     0.091 H 
ATOM      9  H3  BGC d          58.517  48.810  36.338  0.00  0.00     0.091 H 
ATOM     10  H4  BGC d          59.056  46.835  38.605  0.00  0.00     0.090 H 
ATOM     11  H7  BGC d          61.085  46.013  37.638  0.00  0.00     0.133 H 
ENDROOT
BRANCH   5  12
ATOM     12  O4  BGC d          61.107  45.526  35.658  0.00  0.00    -0.348 OA
BRANCH  12  13
ATOM     13  C4  BGC d          61.046  44.120  35.861  0.00  0.00     0.097 C 
ATOM     14  C5  BGC d          62.461  43.521  35.935  0.00  0.00     0.119 C 
ATOM     15  O5  BGC d          62.358  42.114  36.134  0.00  0.00    -0.195 OA
ATOM     16  H14 BGC d          62.998  43.747  35.001  0.00  0.00     0.094 H 
ATOM     17  N1  BGC d          61.672  41.509  35.011  0.00  0.00     0.042 N 
ATOM     18  C2  BGC d          60.289  41.956  34.816  0.00  0.00     0.135 C 
ATOM     19  H21 BGC d          62.192  41.725  34.174  0.00  0.00     0.315 HD
ATOM     20  H22 BGC d          61.662  40.511  35.151  0.00  0.00     0.315 HD
ATOM     21  C3  BGC d          60.285  43.494  34.683  0.00  0.00     0.088 C 
ATOM     22  H17 BGC d          59.878  41.504  33.902  0.00  0.00     0.084 H 
ATOM     23  H18 BGC d          59.677  41.656  35.680  0.00  0.00     0.084 H 
ATOM     24  H16 BGC d          60.792  43.781  33.750  0.00  0.00     0.089 H 
ATOM     25  H15 BGC d          60.514  43.909  36.801  0.00  0.00     0.091 H 
BRANCH  14  26
ATOM     26  C6  BGC d          63.262  44.015  37.124  0.00  0.00     0.045 C 
ATOM     27  H12 BGC d          63.946  43.220  37.453  0.00  0.00     0.078 H 
ATOM     28  H13 BGC d          62.572  44.267  37.942  0.00  0.00     0.078 H 
BRANCH  26  29
ATOM     29  O6  BGC d          64.020  45.171  36.780  0.00  0.00    -0.398 OA
ATOM     30  H19 BGC d          64.105  45.223  35.835  0.00  0.00     0.209 HD
ENDBRANCH  26  29
ENDBRANCH  14  26
BRANCH  21  31
ATOM     31  O3  BGC d          58.962  43.909  34.619  0.00  0.00    -0.391 OA
ATOM     32  H20 BGC d          58.716  44.042  33.711  0.00  0.00     0.210 HD
ENDBRANCH  21  31
ENDBRANCH  12  13
ENDBRANCH   5  12
BRANCH   1  33
ATOM     33  O2  BGC d          62.535  47.869  36.365  0.00  0.00    -0.388 OA
ATOM     34  H8  BGC d          62.843  47.680  37.243  0.00  0.00     0.210 HD
ENDBRANCH   1  33
BRANCH   2  35
ATOM     35  O3  BGC d          60.745  50.079  36.901  0.00  0.00    -0.390 OA
ATOM     36  H9  BGC d          60.491  50.672  37.599  0.00  0.00     0.210 HD
ENDBRANCH   2  35
BRANCH   4  37
ATOM     37  C6  BGC d          57.150  46.740  37.653  0.00  0.00     0.043 C 
ATOM     38  H5  BGC d          56.844  46.322  36.683  0.00  0.00     0.078 H 
ATOM     39  H6  BGC d          56.566  47.648  37.861  0.00  0.00     0.078 H 
BRANCH  37  40
ATOM     40  O6  BGC d          56.928  45.784  38.677  0.00  0.00    -0.398 OA
ATOM     41  H11 BGC d          56.060  45.909  39.042  0.00  0.00     0.209 HD
ENDBRANCH  37  40
ENDBRANCH   4  37
BRANCH   3  42
ATOM     42  O4  BGC d          58.339  49.373  38.311  0.00  0.00    -0.390 OA
ATOM     43  H10 BGC d          57.770  48.847  38.861  0.00  0.00     0.210 HD
ENDBRANCH   3  42
TORSDOF 10
ENDMDL
MODEL 2
REMARK VINA RESULT:      -6.8      0.825      2.403
REMARK  10 active torsions:
REMARK  status: ('A' for Active; 'I' for Inactive)
REMARK    1  A    between atoms: C2_1  and  O2_7 
REMARK    2  A    between atoms: C3_2  and  O3_8 
REMARK    3  A    between atoms: C4_3  and  O4_9 
REMARK    4  A    between atoms: C5_4  and  C6_5 
REMARK    5  A    between atoms: C6_5  and  O6_11 
REMARK    6  A    between atoms: O4_19  and  C1_6 
REMARK    7  A    between atoms: C5_13  and  C6_12 
REMARK    8  A    between atoms: C6_12  and  O6_17 
REMARK    9  A    between atoms: C4_14  and  O4_19 
REMARK   10  A    between atoms: C3_15  and  O3_20 
ROOT
ATOM      1  C2  BGC d          61.267  47.540  36.270  0.00  0.00     0.110 C 
ATOM      2  C3  BGC d          60.595  48.476  37.287  0.00  0.00     0.092 C 
ATOM      3  C4  BGC d          59.087  48.225  37.362  0.00  0.00     0.090 C 
ATOM      4  C5  BGC d          58.841  46.739  37.620  0.00  0.00     0.089 C 
ATOM      5  C1  BGC d          60.893  46.096  36.571  0.00  0.00     0.159 C 
ATOM      6  O5  BGC d          59.470  45.995  36.570  0.00  0.00    -0.348 OA
ATOM      7  H1  BGC d          60.893  47.794  35.267  0.00  0.00     0.094 H 
ATOM      8  H2  BGC d          61.032  48.282  38.278  0.00  0.00     0.091 H 
ATOM      9  H3  BGC d          58.628  48.507  36.403  0.00  0.00     0.091 H 
ATOM     10  H4  BGC d          59.307  46.475  38.581  0.00  0.00     0.090 H 
ATOM     11  H7  BGC d          61.329  45.757  37.522  0.00  0.00     0.133 H 
ENDROOT
BRANCH   5  12
ATOM     12  O4  BGC d          61.302  45.339  35.526  0.00  0.00    -0.348 OA
BRANCH  12  13
ATOM     13  C4  BGC d          61.934  44.097  35.807  0.00  0.00     0.097 C 
ATOM     14  C5  BGC d          60.887  43.016  36.127  0.00  0.00     0.119 C 
ATOM     15  O5  BGC d          61.558  41.791  36.407  0.00  0.00    -0.195 OA
ATOM     16  H14 BGC d          60.285  43.340  36.989  0.00  0.00     0.094 H 
ATOM     17  N1  BGC d          62.406  41.952  37.570  0.00  0.00     0.042 N 
ATOM     18  C2  BGC d          63.484  42.935  37.419  0.00  0.00     0.135 C 
ATOM     19  H21 BGC d          61.826  42.239  38.343  0.00  0.00     0.315 HD
ATOM     20  H22 BGC d          62.825  41.058  37.778  0.00  0.00     0.315 HD
ATOM     21  C3  BGC d          62.858  44.289  37.018  0.00  0.00     0.088 C 
ATOM     22  H17 BGC d          64.024  43.044  38.371  0.00  0.00     0.084 H 
ATOM     23  H18 BGC d          64.183  42.603  36.637  0.00  0.00     0.084 H 
ATOM     24  H16 BGC d          62.259  44.676  37.855  0.00  0.00     0.089 H 
ATOM     25  H15 BGC d          62.526  43.782  34.935  0.00  0.00     0.091 H 
BRANCH  14  26
ATOM     26  C6  BGC d          59.980  42.693  34.955  0.00  0.00     0.045 C 
ATOM     27  H12 BGC d          59.249  41.932  35.264  0.00  0.00     0.078 H 
ATOM     28  H13 BGC d          60.588  42.302  34.127  0.00  0.00     0.078 H 
BRANCH  26  29
ATOM     29  O6  BGC d          59.286  43.857  34.516  0.00  0.00    -0.398 OA
ATOM     30  H19 BGC d          58.649  44.112  35.172  0.00  0.00     0.209 HD
ENDBRANCH  26  29
ENDBRANCH  14  26
BRANCH  21  31
ATOM     31  O3  BGC d          63.897  45.175  36.765  0.00  0.00    -0.391 OA
ATOM     32  H20 BGC d          64.242  45.016  35.894  0.00  0.00     0.210 HD
ENDBRANCH  21  31
ENDBRANCH  12  13
ENDBRANCH   5  12
BRANCH   1  33
ATOM     33  O2  BGC d          62.674  47.704  36.269  0.00  0.00    -0.388 OA
ATOM     34  H8  BGC d          63.040  47.300  37.046  0.00  0.00     0.210 HD
ENDBRANCH   1  33
BRANCH   2  35
ATOM     35  O3  BGC d          60.830  49.832  36.940  0.00  0.00    -0.390 OA
ATOM     36  H9  BGC d          60.080  50.172  36.465  0.00  0.00     0.210 HD
ENDBRANCH   2  35
BRANCH   4  37
ATOM     37  C6  BGC d          57.374  46.348  37.688  0.00  0.00     0.043 C 
ATOM     38  H5  BGC d          57.254  45.304  37.364  0.00  0.00     0.078 H 
ATOM     39  H6  BGC d          56.785  47.004  37.032  0.00  0.00     0.078 H 
BRANCH  37  40
ATOM     40  O6  BGC d          56.932  46.488  39.027  0.00  0.00    -0.398 OA
ATOM     41  H11 BGC d          56.162  45.947  39.163  0.00  0.00     0.209 HD
ENDBRANCH  37  40
ENDBRANCH   4  37
BRANCH   3  42
ATOM     42  O4  BGC d          58.497  48.996  38.400  0.00  0.00    -0.390 OA
ATOM     43  H10 BGC d          59.138  49.606  38.745  0.00  0.00     0.210 HD
ENDBRANCH   3  42
TORSDOF 10
ENDMDL
MODEL 3
REMARK VINA RESULT:      -5.7      1.488      2.685
REMARK  10 active torsions:
REMARK  status: ('A' for Active; 'I' for Inactive)
REMARK    1  A    between atoms: C2_1  and  O2_7 
REMARK    2  A    between atoms: C3_2  and  O3_8 
REMARK    3  A    between atoms: C4_3  and  O4_9 
REMARK    4  A    between atoms: C5_4  and  C6_5 
REMARK    5  A    between atoms: C6_5  and  O6_11 
REMARK    6  A    between atoms: O4_19  and  C1_6 
REMARK    7  A    between atoms: C5_13  and  C6_12 
REMARK    8  A    between atoms: C6_12  and  O6_17 
REMARK    9  A    between atoms: C4_14  and  O4_19 
REMARK   10  A    between atoms: C3_15  and  O3_20 
ROOT
ATOM      1  C2  BGC d          61.199  46.117  36.542  0.00  0.00     0.110 C 
ATOM      2  C3  BGC d          61.216  47.636  36.773  0.00  0.00     0.092 C 
ATOM      3  C4  BGC d          59.823  48.243  36.596  0.00  0.00     0.090 C 
ATOM      4  C5  BGC d          58.833  47.485  37.480  0.00  0.00     0.089 C 
ATOM      5  C1  BGC d          60.128  45.474  37.411  0.00  0.00     0.159 C 
ATOM      6  O5  BGC d          58.881  46.101  37.117  0.00  0.00    -0.348 OA
ATOM      7  H1  BGC d          60.948  45.932  35.488  0.00  0.00     0.094 H 
ATOM      8  H2  BGC d          61.552  47.827  37.804  0.00  0.00     0.091 H 
ATOM      9  H3  BGC d          59.519  48.142  35.544  0.00  0.00     0.091 H 
ATOM     10  H4  BGC d          59.153  47.597  38.527  0.00  0.00     0.090 H 
ATOM     11  H7  BGC d          60.381  45.544  38.479  0.00  0.00     0.133 H 
ENDROOT
BRANCH   5  12
ATOM     12  O4  BGC d          59.984  44.191  37.005  0.00  0.00    -0.348 OA
BRANCH  12  13
ATOM     13  C4  BGC d          61.160  43.431  36.765  0.00  0.00     0.097 C 
ATOM     14  C5  BGC d          60.966  42.499  35.556  0.00  0.00     0.119 C 
ATOM     15  O5  BGC d          62.162  41.753  35.351  0.00  0.00    -0.195 OA
ATOM     16  H14 BGC d          60.114  41.830  35.749  0.00  0.00     0.094 H 
ATOM     17  N1  BGC d          62.431  40.930  36.512  0.00  0.00     0.042 N 
ATOM     18  C2  BGC d          62.669  41.672  37.755  0.00  0.00     0.135 C 
ATOM     19  H21 BGC d          61.639  40.324  36.657  0.00  0.00     0.315 HD
ATOM     20  H22 BGC d          63.249  40.373  36.319  0.00  0.00     0.315 HD
ATOM     21  C3  BGC d          61.457  42.591  38.016  0.00  0.00     0.088 C 
ATOM     22  H17 BGC d          62.788  40.968  38.591  0.00  0.00     0.084 H 
ATOM     23  H18 BGC d          63.581  42.280  37.655  0.00  0.00     0.084 H 
ATOM     24  H16 BGC d          60.573  41.975  38.239  0.00  0.00     0.089 H 
ATOM     25  H15 BGC d          62.002  44.111  36.567  0.00  0.00     0.091 H 
BRANCH  14  26
ATOM     26  C6  BGC d          60.755  43.244  34.252  0.00  0.00     0.045 C 
ATOM     27  H12 BGC d          60.755  42.523  33.421  0.00  0.00     0.078 H 
ATOM     28  H13 BGC d          61.574  43.964  34.113  0.00  0.00     0.078 H 
BRANCH  26  29
ATOM     29  O6  BGC d          59.514  43.944  34.263  0.00  0.00    -0.398 OA
ATOM     30  H19 BGC d          58.888  43.468  34.796  0.00  0.00     0.209 HD
ENDBRANCH  26  29
ENDBRANCH  14  26
BRANCH  21  31
ATOM     31  O3  BGC d          61.750  43.370  39.128  0.00  0.00    -0.391 OA
ATOM     32  H20 BGC d          61.882  44.271  38.856  0.00  0.00     0.210 HD
ENDBRANCH  21  31
ENDBRANCH  12  13
ENDBRANCH   5  12
BRANCH   1  33
ATOM     33  O2  BGC d          62.467  45.541  36.800  0.00  0.00    -0.388 OA
ATOM     34  H8  BGC d          63.115  45.934  36.228  0.00  0.00     0.210 HD
ENDBRANCH   1  33
BRANCH   2  35
ATOM     35  O3  BGC d          62.120  48.262  35.875  0.00  0.00    -0.390 OA
ATOM     36  H9  BGC d          62.458  49.058  36.270  0.00  0.00     0.210 HD
ENDBRANCH   2  35
BRANCH   4  37
ATOM     37  C6  BGC d          57.397  47.972  37.375  0.00  0.00     0.043 C 
ATOM     38  H5  BGC d          56.725  47.249  37.860  0.00  0.00     0.078 H 
ATOM     39  H6  BGC d          57.119  48.078  36.317  0.00  0.00     0.078 H 
BRANCH  37  40
ATOM     40  O6  BGC d          57.297  49.228  38.025  0.00  0.00    -0.398 OA
ATOM     41  H11 BGC d          57.255  49.917  37.372  0.00  0.00     0.209 HD
ENDBRANCH  37  40
ENDBRANCH   4  37
BRANCH   3  42
ATOM     42  O4  BGC d          59.821  49.621  36.945  0.00  0.00    -0.390 OA
ATOM     43  H10 BGC d          59.992  50.143  36.170  0.00  0.00     0.210 HD
ENDBRANCH   3  42
TORSDOF 10
ENDMDL
MODEL 4
REMARK VINA RESULT:      -5.6      2.757      5.890
REMARK  10 active torsions:
REMARK  status: ('A' for Active; 'I' for Inactive)
REMARK    1  A    between atoms: C2_1  and  O2_7 
REMARK    2  A    between atoms: C3_2  and  O3_8 
REMARK    3  A    between atoms: C4_3  and  O4_9 
REMARK    4  A    between atoms: C5_4  and  C6_5 
REMARK    5  A    between atoms: C6_5  and  O6_11 
REMARK    6  A    between atoms: O4_19  and  C1_6 
REMARK    7  A    between atoms: C5_13  and  C6_12 
REMARK    8  A    between atoms: C6_12  and  O6_17 
REMARK    9  A    between atoms: C4_14  and  O4_19 
REMARK   10  A    between atoms: C3_15  and  O3_20 
ROOT
ATOM      1  C2  BGC d          61.495  45.040  36.636  0.00  0.00     0.110 C 
ATOM      2  C3  BGC d          61.777  43.727  35.890  0.00  0.00     0.092 C 
ATOM      3  C4  BGC d          61.929  42.555  36.862  0.00  0.00     0.090 C 
ATOM      4  C5  BGC d          60.706  42.505  37.777  0.00  0.00     0.089 C 
ATOM      5  C1  BGC d          60.312  44.857  37.575  0.00  0.00     0.159 C 
ATOM      6  O5  BGC d          60.601  43.766  38.448  0.00  0.00    -0.348 OA
ATOM      7  H1  BGC d          62.380  45.292  37.237  0.00  0.00     0.094 H 
ATOM      8  H2  BGC d          60.929  43.518  35.221  0.00  0.00     0.091 H 
ATOM      9  H3  BGC d          62.832  42.709  37.471  0.00  0.00     0.091 H 
ATOM     10  H4  BGC d          59.815  42.352  37.151  0.00  0.00     0.090 H 
ATOM     11  H7  BGC d          59.376  44.700  37.018  0.00  0.00     0.133 H 
ENDROOT
BRANCH   5  12
ATOM     12  O4  BGC d          60.250  45.945  38.376  0.00  0.00    -0.348 OA
BRANCH  12  13
ATOM     13  C4  BGC d          59.224  46.898  38.132  0.00  0.00     0.097 C 
ATOM     14  C5  BGC d          59.758  48.329  38.314  0.00  0.00     0.119 C 
ATOM     15  O5  BGC d          58.701  49.252  38.064  0.00  0.00    -0.195 OA
ATOM     16  H14 BGC d          60.144  48.442  39.337  0.00  0.00     0.094 H 
ATOM     17  N1  BGC d          57.634  49.046  39.022  0.00  0.00     0.042 N 
ATOM     18  C2  BGC d          56.994  47.728  38.961  0.00  0.00     0.135 C 
ATOM     19  H21 BGC d          58.017  49.165  39.947  0.00  0.00     0.315 HD
ATOM     20  H22 BGC d          56.927  49.746  38.859  0.00  0.00     0.315 HD
ATOM     21  C3  BGC d          58.082  46.646  39.128  0.00  0.00     0.088 C 
ATOM     22  H17 BGC d          56.254  47.637  39.769  0.00  0.00     0.084 H 
ATOM     23  H18 BGC d          56.492  47.604  37.990  0.00  0.00     0.084 H 
ATOM     24  H16 BGC d          58.493  46.696  40.147  0.00  0.00     0.089 H 
ATOM     25  H15 BGC d          58.851  46.778  37.103  0.00  0.00     0.091 H 
BRANCH  14  26
ATOM     26  C6  BGC d          60.832  48.701  37.310  0.00  0.00     0.045 C 
ATOM     27  H12 BGC d          60.868  49.796  37.211  0.00  0.00     0.078 H 
ATOM     28  H13 BGC d          60.586  48.253  36.337  0.00  0.00     0.078 H 
BRANCH  26  29
ATOM     29  O6  BGC d          62.107  48.228  37.734  0.00  0.00    -0.398 OA
ATOM     30  H19 BGC d          62.009  47.730  38.537  0.00  0.00     0.209 HD
ENDBRANCH  26  29
ENDBRANCH  14  26
BRANCH  21  31
ATOM     31  O3  BGC d          57.478  45.409  38.949  0.00  0.00    -0.391 OA
ATOM     32  H20 BGC d          57.253  45.042  39.796  0.00  0.00     0.210 HD
ENDBRANCH  21  31
ENDBRANCH  12  13
ENDBRANCH   5  12
BRANCH   1  33
ATOM     33  O2  BGC d          61.259  46.106  35.734  0.00  0.00    -0.388 OA
ATOM     34  H8  BGC d          62.067  46.583  35.589  0.00  0.00     0.210 HD
ENDBRANCH   1  33
BRANCH   2  35
ATOM     35  O3  BGC d          62.957  43.847  35.109  0.00  0.00    -0.390 OA
ATOM     36  H9  BGC d          63.539  43.121  35.301  0.00  0.00     0.210 HD
ENDBRANCH   2  35
BRANCH   4  37
ATOM     37  C6  BGC d          60.745  41.398  38.817  0.00  0.00     0.043 C 
ATOM     38  H5  BGC d          60.049  40.596  38.531  0.00  0.00     0.078 H 
ATOM     39  H6  BGC d          60.456  41.801  39.798  0.00  0.00     0.078 H 
BRANCH  37  40
ATOM     40  O6  BGC d          62.065  40.885  38.881  0.00  0.00    -0.398 OA
ATOM     41  H11 BGC d          62.077  40.001  38.531  0.00  0.00     0.209 HD
ENDBRANCH  37  40
ENDBRANCH   4  37
BRANCH   3  42
ATOM     42  O4  BGC d          62.053  41.326  36.159  0.00  0.00    -0.390 OA
ATOM     43  H10 BGC d          62.866  40.901  36.405  0.00  0.00     0.210 HD
ENDBRANCH   3  42
TORSDOF 10
ENDMDL
MODEL 5
REMARK VINA RESULT:      -5.3      1.527      1.757
REMARK  10 active torsions:
REMARK  status: ('A' for Active; 'I' for Inactive)
REMARK    1  A    between atoms: C2_1  and  O2_7 
REMARK    2  A    between atoms: C3_2  and  O3_8 
REMARK    3  A    between atoms: C4_3  and  O4_9 
REMARK    4  A    between atoms: C5_4  and  C6_5 
REMARK    5  A    between atoms: C6_5  and  O6_11 
REMARK    6  A    between atoms: O4_19  and  C1_6 
REMARK    7  A    between atoms: C5_13  and  C6_12 
REMARK    8  A    between atoms: C6_12  and  O6_17 
REMARK    9  A    between atoms: C4_14  and  O4_19 
REMARK   10  A    between atoms: C3_15  and  O3_20 
ROOT
ATOM      1  C2  BGC d          60.897  47.419  36.788  0.00  0.00     0.110 C 
ATOM      2  C3  BGC d          60.487  48.694  37.542  0.00  0.00     0.092 C 
ATOM      3  C4  BGC d          59.000  48.675  37.902  0.00  0.00     0.090 C 
ATOM      4  C5  BGC d          58.684  47.378  38.645  0.00  0.00     0.089 C 
ATOM      5  C1  BGC d          60.465  46.192  37.577  0.00  0.00     0.159 C 
ATOM      6  O5  BGC d          59.060  46.281  37.806  0.00  0.00    -0.348 OA
ATOM      7  H1  BGC d          60.377  47.410  35.819  0.00  0.00     0.094 H 
ATOM      8  H2  BGC d          61.071  48.750  38.473  0.00  0.00     0.091 H 
ATOM      9  H3  BGC d          58.407  48.716  36.977  0.00  0.00     0.091 H 
ATOM     10  H4  BGC d          59.286  47.355  39.566  0.00  0.00     0.090 H 
ATOM     11  H7  BGC d          61.030  46.098  38.516  0.00  0.00     0.133 H 
ENDROOT
BRANCH   5  12
ATOM     12  O4  BGC d          60.626  45.111  36.777  0.00  0.00    -0.348 OA
BRANCH  12  13
ATOM     13  C4  BGC d          61.197  43.940  37.343  0.00  0.00     0.097 C 
ATOM     14  C5  BGC d          61.936  43.123  36.269  0.00  0.00     0.119 C 
ATOM     15  O5  BGC d          62.490  41.958  36.874  0.00  0.00    -0.195 OA
ATOM     16  H14 BGC d          61.228  42.853  35.471  0.00  0.00     0.094 H 
ATOM     17  N1  BGC d          61.427  41.134  37.412  0.00  0.00     0.042 N 
ATOM     18  C2  BGC d          60.637  41.760  38.477  0.00  0.00     0.135 C 
ATOM     19  H21 BGC d          60.803  40.896  36.658  0.00  0.00     0.315 HD
ATOM     20  H22 BGC d          61.842  40.292  37.783  0.00  0.00     0.315 HD
ATOM     21  C3  BGC d          60.066  43.092  37.944  0.00  0.00     0.088 C 
ATOM     22  H17 BGC d          59.813  41.094  38.769  0.00  0.00     0.084 H 
ATOM     23  H18 BGC d          61.278  41.954  39.350  0.00  0.00     0.084 H 
ATOM     24  H16 BGC d          59.331  42.884  37.154  0.00  0.00     0.089 H 
ATOM     25  H15 BGC d          61.907  44.224  38.134  0.00  0.00     0.091 H 
BRANCH  14  26
ATOM     26  C6  BGC d          63.129  43.848  35.678  0.00  0.00     0.045 C 
ATOM     27  H12 BGC d          62.841  44.290  34.713  0.00  0.00     0.078 H 
ATOM     28  H13 BGC d          63.947  43.130  35.523  0.00  0.00     0.078 H 
BRANCH  26  29
ATOM     29  O6  BGC d          63.576  44.883  36.550  0.00  0.00    -0.398 OA
ATOM     30  H19 BGC d          63.439  44.617  37.452  0.00  0.00     0.209 HD
ENDBRANCH  26  29
ENDBRANCH  14  26
BRANCH  21  31
ATOM     31  O3  BGC d          59.423  43.727  38.998  0.00  0.00    -0.391 OA
ATOM     32  H20 BGC d          59.620  43.272  39.809  0.00  0.00     0.210 HD
ENDBRANCH  21  31
ENDBRANCH  12  13
ENDBRANCH   5  12
BRANCH   1  33
ATOM     33  O2  BGC d          62.291  47.391  36.539  0.00  0.00    -0.388 OA
ATOM     34  H8  BGC d          62.666  46.611  36.930  0.00  0.00     0.210 HD
ENDBRANCH   1  33
BRANCH   2  35
ATOM     35  O3  BGC d          60.767  49.843  36.757  0.00  0.00    -0.390 OA
ATOM     36  H9  BGC d          59.973  50.131  36.323  0.00  0.00     0.210 HD
ENDBRANCH   2  35
BRANCH   4  37
ATOM     37  C6  BGC d          57.224  47.219  39.037  0.00  0.00     0.043 C 
ATOM     38  H5  BGC d          56.583  47.688  38.275  0.00  0.00     0.078 H 
ATOM     39  H6  BGC d          57.047  47.699  40.010  0.00  0.00     0.078 H 
BRANCH  37  40
ATOM     40  O6  BGC d          56.929  45.836  39.125  0.00  0.00    -0.398 OA
ATOM     41  H11 BGC d          57.698  45.333  38.883  0.00  0.00     0.209 HD
ENDBRANCH  37  40
ENDBRANCH   4  37
BRANCH   3  42
ATOM     42  O4  BGC d          58.661  49.790  38.716  0.00  0.00    -0.390 OA
ATOM     43  H10 BGC d          59.087  49.706  39.561  0.00  0.00     0.210 HD
ENDBRANCH   3  42
TORSDOF 10
ENDMDL
MODEL 6
REMARK VINA RESULT:      -5.2      1.460      1.782
REMARK  10 active torsions:
REMARK  status: ('A' for Active; 'I' for Inactive)
REMARK    1  A    between atoms: C2_1  and  O2_7 
REMARK    2  A    between atoms: C3_2  and  O3_8 
REMARK    3  A    between atoms: C4_3  and  O4_9 
REMARK    4  A    between atoms: C5_4  and  C6_5 
REMARK    5  A    between atoms: C6_5  and  O6_11 
REMARK    6  A    between atoms: O4_19  and  C1_6 
REMARK    7  A    between atoms: C5_13  and  C6_12 
REMARK    8  A    between atoms: C6_12  and  O6_17 
REMARK    9  A    between atoms: C4_14  and  O4_19 
REMARK   10  A    between atoms: C3_15  and  O3_20 
ROOT
ATOM      1  C2  BGC d          61.299  47.644  37.268  0.00  0.00     0.110 C 
ATOM      2  C3  BGC d          60.399  48.830  37.649  0.00  0.00     0.092 C 
ATOM      3  C4  BGC d          58.918  48.481  37.486  0.00  0.00     0.090 C 
ATOM      4  C5  BGC d          58.621  47.196  38.257  0.00  0.00     0.089 C 
ATOM      5  C1  BGC d          60.867  46.401  38.032  0.00  0.00     0.159 C 
ATOM      6  O5  BGC d          59.486  46.168  37.760  0.00  0.00    -0.348 OA
ATOM      7  H1  BGC d          61.177  47.450  36.192  0.00  0.00     0.094 H 
ATOM      8  H2  BGC d          60.585  49.081  38.704  0.00  0.00     0.091 H 
ATOM      9  H3  BGC d          58.702  48.322  36.419  0.00  0.00     0.091 H 
ATOM     10  H4  BGC d          58.843  47.374  39.320  0.00  0.00     0.090 H 
ATOM     11  H7  BGC d          61.062  46.504  39.110  0.00  0.00     0.133 H 
ENDROOT
BRANCH   5  12
ATOM     12  O4  BGC d          61.517  45.342  37.497  0.00  0.00    -0.348 OA
BRANCH  12  13
ATOM     13  C4  BGC d          60.738  44.289  36.945  0.00  0.00     0.097 C 
ATOM     14  C5  BGC d          61.316  42.920  37.344  0.00  0.00     0.119 C 
ATOM     15  O5  BGC d          60.511  41.894  36.770  0.00  0.00    -0.195 OA
ATOM     16  H14 BGC d          62.354  42.850  36.989  0.00  0.00     0.094 H 
ATOM     17  N1  BGC d          60.548  41.993  35.326  0.00  0.00     0.042 N 
ATOM     18  C2  BGC d          60.002  43.238  34.776  0.00  0.00     0.135 C 
ATOM     19  H21 BGC d          61.509  41.915  35.031  0.00  0.00     0.315 HD
ATOM     20  H22 BGC d          60.018  41.224  34.946  0.00  0.00     0.315 HD
ATOM     21  C3  BGC d          60.753  44.426  35.416  0.00  0.00     0.088 C 
ATOM     22  H17 BGC d          60.141  43.255  33.686  0.00  0.00     0.084 H 
ATOM     23  H18 BGC d          58.929  43.308  35.010  0.00  0.00     0.084 H 
ATOM     24  H16 BGC d          61.799  44.421  35.077  0.00  0.00     0.089 H 
ATOM     25  H15 BGC d          59.704  44.367  37.314  0.00  0.00     0.091 H 
BRANCH  14  26
ATOM     26  C6  BGC d          61.260  42.657  38.836  0.00  0.00     0.045 C 
ATOM     27  H12 BGC d          60.243  42.865  39.201  0.00  0.00     0.078 H 
ATOM     28  H13 BGC d          61.975  43.319  39.346  0.00  0.00     0.078 H 
BRANCH  26  29
ATOM     29  O6  BGC d          61.591  41.301  39.125  0.00  0.00    -0.398 OA
ATOM     30  H19 BGC d          62.532  41.188  39.067  0.00  0.00     0.209 HD
ENDBRANCH  26  29
ENDBRANCH  14  26
BRANCH  21  31
ATOM     31  O3  BGC d          60.146  45.595  34.976  0.00  0.00    -0.391 OA
ATOM     32  H20 BGC d          60.420  45.777  34.085  0.00  0.00     0.210 HD
ENDBRANCH  21  31
ENDBRANCH  12  13
ENDBRANCH   5  12
BRANCH   1  33
ATOM     33  O2  BGC d          62.664  47.933  37.510  0.00  0.00    -0.388 OA
ATOM     34  H8  BGC d          62.919  47.571  38.350  0.00  0.00     0.210 HD
ENDBRANCH   1  33
BRANCH   2  35
ATOM     35  O3  BGC d          60.707  49.961  36.848  0.00  0.00    -0.390 OA
ATOM     36  H9  BGC d          60.728  49.705  35.934  0.00  0.00     0.210 HD
ENDBRANCH   2  35
BRANCH   4  37
ATOM     37  C6  BGC d          57.182  46.719  38.153  0.00  0.00     0.043 C 
ATOM     38  H5  BGC d          56.501  47.580  38.220  0.00  0.00     0.078 H 
ATOM     39  H6  BGC d          56.965  46.016  38.970  0.00  0.00     0.078 H 
BRANCH  37  40
ATOM     40  O6  BGC d          57.011  46.070  36.904  0.00  0.00    -0.398 OA
ATOM     41  H11 BGC d          57.326  45.176  36.968  0.00  0.00     0.209 HD
ENDBRANCH  37  40
ENDBRANCH   4  37
BRANCH   3  42
ATOM     42  O4  BGC d          58.093  49.533  37.970  0.00  0.00    -0.390 OA
ATOM     43  H10 BGC d          57.928  50.153  37.270  0.00  0.00     0.210 HD
ENDBRANCH   3  42
TORSDOF 10
ENDMDL
MODEL 7
REMARK VINA RESULT:      -5.0      1.453      1.868
REMARK  10 active torsions:
REMARK  status: ('A' for Active; 'I' for Inactive)
REMARK    1  A    between atoms: C2_1  and  O2_7 
REMARK    2  A    between atoms: C3_2  and  O3_8 
REMARK    3  A    between atoms: C4_3  and  O4_9 
REMARK    4  A    between atoms: C5_4  and  C6_5 
REMARK    5  A    between atoms: C6_5  and  O6_11 
REMARK    6  A    between atoms: O4_19  and  C1_6 
REMARK    7  A    between atoms: C5_13  and  C6_12 
REMARK    8  A    between atoms: C6_12  and  O6_17 
REMARK    9  A    between atoms: C4_14  and  O4_19 
REMARK   10  A    between atoms: C3_15  and  O3_20 
ROOT
ATOM      1  C2  BGC d          61.082  47.575  36.497  0.00  0.00     0.110 C 
ATOM      2  C3  BGC d          60.511  48.694  37.382  0.00  0.00     0.092 C 
ATOM      3  C4  BGC d          58.989  48.587  37.502  0.00  0.00     0.090 C 
ATOM      4  C5  BGC d          58.623  47.176  37.962  0.00  0.00     0.089 C 
ATOM      5  C1  BGC d          60.593  46.222  36.995  0.00  0.00     0.159 C 
ATOM      6  O5  BGC d          59.167  46.246  37.019  0.00  0.00    -0.348 OA
ATOM      7  H1  BGC d          60.712  47.722  35.473  0.00  0.00     0.094 H 
ATOM      8  H2  BGC d          60.948  48.599  38.387  0.00  0.00     0.091 H 
ATOM      9  H3  BGC d          58.537  48.776  36.517  0.00  0.00     0.091 H 
ATOM     10  H4  BGC d          59.084  47.006  38.947  0.00  0.00     0.090 H 
ATOM     11  H7  BGC d          61.017  45.979  37.980  0.00  0.00     0.133 H 
ENDROOT
BRANCH   5  12
ATOM     12  O4  BGC d          60.916  45.298  36.060  0.00  0.00    -0.348 OA
BRANCH  12  13
ATOM     13  C4  BGC d          61.041  43.945  36.474  0.00  0.00     0.097 C 
ATOM     14  C5  BGC d          61.578  43.866  37.914  0.00  0.00     0.119 C 
ATOM     15  O5  BGC d          61.693  42.496  38.290  0.00  0.00    -0.195 OA
ATOM     16  H14 BGC d          62.555  44.369  37.963  0.00  0.00     0.094 H 
ATOM     17  N1  BGC d          62.639  41.827  37.421  0.00  0.00     0.042 N 
ATOM     18  C2  BGC d          62.259  41.789  36.004  0.00  0.00     0.135 C 
ATOM     19  H21 BGC d          63.524  42.305  37.495  0.00  0.00     0.315 HD
ATOM     20  H22 BGC d          62.743  40.877  37.742  0.00  0.00     0.315 HD
ATOM     21  C3  BGC d          62.017  43.236  35.524  0.00  0.00     0.088 C 
ATOM     22  H17 BGC d          63.068  41.333  35.415  0.00  0.00     0.084 H 
ATOM     23  H18 BGC d          61.339  41.199  35.883  0.00  0.00     0.084 H 
ATOM     24  H16 BGC d          62.969  43.787  35.530  0.00  0.00     0.089 H 
ATOM     25  H15 BGC d          60.057  43.455  36.428  0.00  0.00     0.091 H 
BRANCH  14  26
ATOM     26  C6  BGC d          60.636  44.463  38.940  0.00  0.00     0.045 C 
ATOM     27  H12 BGC d          60.565  45.548  38.775  0.00  0.00     0.078 H 
ATOM     28  H13 BGC d          61.032  44.271  39.948  0.00  0.00     0.078 H 
BRANCH  26  29
ATOM     29  O6  BGC d          59.337  43.888  38.831  0.00  0.00    -0.398 OA
ATOM     30  H19 BGC d          59.364  43.159  38.222  0.00  0.00     0.209 HD
ENDBRANCH  26  29
ENDBRANCH  14  26
BRANCH  21  31
ATOM     31  O3  BGC d          61.545  43.174  34.219  0.00  0.00    -0.391 OA
ATOM     32  H20 BGC d          60.606  43.032  34.230  0.00  0.00     0.210 HD
ENDBRANCH  21  31
ENDBRANCH  12  13
ENDBRANCH   5  12
BRANCH   1  33
ATOM     33  O2  BGC d          62.498  47.615  36.463  0.00  0.00    -0.388 OA
ATOM     34  H8  BGC d          62.846  47.022  37.119  0.00  0.00     0.210 HD
ENDBRANCH   1  33
BRANCH   2  35
ATOM     35  O3  BGC d          60.853  49.966  36.852  0.00  0.00    -0.390 OA
ATOM     36  H9  BGC d          61.558  49.866  36.222  0.00  0.00     0.210 HD
ENDBRANCH   2  35
BRANCH   4  37
ATOM     37  C6  BGC d          57.130  46.926  38.094  0.00  0.00     0.043 C 
ATOM     38  H5  BGC d          56.717  46.631  37.118  0.00  0.00     0.078 H 
ATOM     39  H6  BGC d          56.630  47.842  38.440  0.00  0.00     0.078 H 
BRANCH  37  40
ATOM     40  O6  BGC d          56.928  45.886  39.035  0.00  0.00    -0.398 OA
ATOM     41  H11 BGC d          56.258  45.295  38.712  0.00  0.00     0.209 HD
ENDBRANCH  37  40
ENDBRANCH   4  37
BRANCH   3  42
ATOM     42  O4  BGC d          58.486  49.540  38.429  0.00  0.00    -0.390 OA
ATOM     43  H10 BGC d          59.065  49.585  39.181  0.00  0.00     0.210 HD
ENDBRANCH   3  42
TORSDOF 10
ENDMDL
MODEL 8
REMARK VINA RESULT:      -4.9      2.508      5.805
REMARK  10 active torsions:
REMARK  status: ('A' for Active; 'I' for Inactive)
REMARK    1  A    between atoms: C2_1  and  O2_7 
REMARK    2  A    between atoms: C3_2  and  O3_8 
REMARK    3  A    between atoms: C4_3  and  O4_9 
REMARK    4  A    between atoms: C5_4  and  C6_5 
REMARK    5  A    between atoms: C6_5  and  O6_11 
REMARK    6  A    between atoms: O4_19  and  C1_6 
REMARK    7  A    between atoms: C5_13  and  C6_12 
REMARK    8  A    between atoms: C6_12  and  O6_17 
REMARK    9  A    between atoms: C4_14  and  O4_19 
REMARK   10  A    between atoms: C3_15  and  O3_20 
ROOT
ATOM      1  C2  BGC d          60.380  44.290  38.000  0.00  0.00     0.110 C 
ATOM      2  C3  BGC d          61.487  43.267  37.698  0.00  0.00     0.092 C 
ATOM      3  C4  BGC d          61.186  42.481  36.420  0.00  0.00     0.090 C 
ATOM      4  C5  BGC d          60.914  43.464  35.282  0.00  0.00     0.089 C 
ATOM      5  C1  BGC d          60.136  45.163  36.777  0.00  0.00     0.159 C 
ATOM      6  O5  BGC d          59.828  44.310  35.676  0.00  0.00    -0.348 OA
ATOM      7  H1  BGC d          59.455  43.740  38.224  0.00  0.00     0.094 H 
ATOM      8  H2  BGC d          62.433  43.812  37.559  0.00  0.00     0.091 H 
ATOM      9  H3  BGC d          60.294  41.859  36.584  0.00  0.00     0.091 H 
ATOM     10  H4  BGC d          61.816  44.076  35.134  0.00  0.00     0.090 H 
ATOM     11  H7  BGC d          60.999  45.810  36.566  0.00  0.00     0.133 H 
ENDROOT
BRANCH   5  12
ATOM     12  O4  BGC d          59.007  45.876  37.000  0.00  0.00    -0.348 OA
BRANCH  12  13
ATOM     13  C4  BGC d          59.136  47.269  37.250  0.00  0.00     0.097 C 
ATOM     14  C5  BGC d          60.615  47.654  37.426  0.00  0.00     0.119 C 
ATOM     15  O5  BGC d          60.701  49.053  37.678  0.00  0.00    -0.195 OA
ATOM     16  H14 BGC d          61.041  47.077  38.260  0.00  0.00     0.094 H 
ATOM     17  N1  BGC d          60.005  49.373  38.908  0.00  0.00     0.042 N 
ATOM     18  C2  BGC d          58.566  49.090  38.897  0.00  0.00     0.135 C 
ATOM     19  H21 BGC d          60.424  48.838  39.652  0.00  0.00     0.315 HD
ATOM     20  H22 BGC d          60.129  50.357  39.091  0.00  0.00     0.315 HD
ATOM     21  C3  BGC d          58.363  47.602  38.535  0.00  0.00     0.088 C 
ATOM     22  H17 BGC d          58.140  49.291  39.890  0.00  0.00     0.084 H 
ATOM     23  H18 BGC d          58.069  49.725  38.149  0.00  0.00     0.084 H 
ATOM     24  H16 BGC d          58.753  46.972  39.348  0.00  0.00     0.089 H 
ATOM     25  H15 BGC d          58.712  47.833  36.406  0.00  0.00     0.091 H 
BRANCH  14  26
ATOM     26  C6  BGC d          61.443  47.442  36.174  0.00  0.00     0.045 C 
ATOM     27  H12 BGC d          61.076  48.112  35.381  0.00  0.00     0.078 H 
ATOM     28  H13 BGC d          61.341  46.398  35.847  0.00  0.00     0.078 H 
BRANCH  26  29
ATOM     29  O6  BGC d          62.818  47.723  36.422  0.00  0.00    -0.398 OA
ATOM     30  H19 BGC d          62.933  47.955  37.335  0.00  0.00     0.209 HD
ENDBRANCH  26  29
ENDBRANCH  14  26
BRANCH  21  31
ATOM     31  O3  BGC d          56.998  47.381  38.412  0.00  0.00    -0.391 OA
ATOM     32  H20 BGC d          56.730  47.549  37.516  0.00  0.00     0.210 HD
ENDBRANCH  21  31
ENDBRANCH  12  13
ENDBRANCH   5  12
BRANCH   1  33
ATOM     33  O2  BGC d          60.703  45.084  39.127  0.00  0.00    -0.388 OA
ATOM     34  H8  BGC d          61.444  45.641  38.919  0.00  0.00     0.210 HD
ENDBRANCH   1  33
BRANCH   2  35
ATOM     35  O3  BGC d          61.634  42.364  38.784  0.00  0.00    -0.390 OA
ATOM     36  H9  BGC d          60.828  42.341  39.286  0.00  0.00     0.210 HD
ENDBRANCH   2  35
BRANCH   4  37
ATOM     37  C6  BGC d          60.570  42.808  33.955  0.00  0.00     0.043 C 
ATOM     38  H5  BGC d          61.493  42.598  33.396  0.00  0.00     0.078 H 
ATOM     39  H6  BGC d          59.929  43.480  33.366  0.00  0.00     0.078 H 
BRANCH  37  40
ATOM     40  O6  BGC d          59.882  41.596  34.215  0.00  0.00    -0.398 OA
ATOM     41  H11 BGC d          60.116  41.280  35.080  0.00  0.00     0.209 HD
ENDBRANCH  37  40
ENDBRANCH   4  37
BRANCH   3  42
ATOM     42  O4  BGC d          62.277  41.638  36.076  0.00  0.00    -0.390 OA
ATOM     43  H10 BGC d          62.234  41.427  35.150  0.00  0.00     0.210 HD
ENDBRANCH   3  42
TORSDOF 10
ENDMDL
MODEL 9
REMARK VINA RESULT:      -4.7      2.561      5.837
REMARK  10 active torsions:
REMARK  status: ('A' for Active; 'I' for Inactive)
REMARK    1  A    between atoms: C2_1  and  O2_7 
REMARK    2  A    between atoms: C3_2  and  O3_8 
REMARK    3  A    between atoms: C4_3  and  O4_9 
REMARK    4  A    between atoms: C5_4  and  C6_5 
REMARK    5  A    between atoms: C6_5  and  O6_11 
REMARK    6  A    between atoms: O4_19  and  C1_6 
REMARK    7  A    between atoms: C5_13  and  C6_12 
REMARK    8  A    between atoms: C6_12  and  O6_17 
REMARK    9  A    between atoms: C4_14  and  O4_19 
REMARK   10  A    between atoms: C3_15  and  O3_20 
ROOT
ATOM      1  C2  BGC d          61.773  45.211  36.852  0.00  0.00     0.110 C 
ATOM      2  C3  BGC d          62.023  43.983  35.961  0.00  0.00     0.092 C 
ATOM      3  C4  BGC d          61.908  42.683  36.760  0.00  0.00     0.090 C 
ATOM      4  C5  BGC d          60.565  42.664  37.490  0.00  0.00     0.089 C 
ATOM      5  C1  BGC d          60.452  45.052  37.590  0.00  0.00     0.159 C 
ATOM      6  O5  BGC d          60.495  43.828  38.321  0.00  0.00    -0.348 OA
ATOM      7  H1  BGC d          62.582  45.269  37.595  0.00  0.00     0.094 H 
ATOM      8  H2  BGC d          61.265  43.973  35.164  0.00  0.00     0.091 H 
ATOM      9  H3  BGC d          62.722  42.641  37.497  0.00  0.00     0.091 H 
ATOM     10  H4  BGC d          59.764  42.707  36.737  0.00  0.00     0.090 H 
ATOM     11  H7  BGC d          59.598  45.089  36.899  0.00  0.00     0.133 H 
ENDROOT
BRANCH   5  12
ATOM     12  O4  BGC d          60.387  46.024  38.531  0.00  0.00    -0.348 OA
BRANCH  12  13
ATOM     13  C4  BGC d          59.428  47.058  38.357  0.00  0.00     0.097 C 
ATOM     14  C5  BGC d          58.050  46.467  38.013  0.00  0.00     0.119 C 
ATOM     15  O5  BGC d          57.120  47.533  37.844  0.00  0.00    -0.195 OA
ATOM     16  H14 BGC d          58.133  45.869  37.094  0.00  0.00     0.094 H 
ATOM     17  N1  BGC d          57.535  48.375  36.741  0.00  0.00     0.042 N 
ATOM     18  C2  BGC d          58.828  49.042  36.924  0.00  0.00     0.135 C 
ATOM     19  H21 BGC d          57.593  47.802  35.914  0.00  0.00     0.315 HD
ATOM     20  H22 BGC d          56.832  49.086  36.608  0.00  0.00     0.315 HD
ATOM     21  C3  BGC d          59.898  47.966  37.211  0.00  0.00     0.088 C 
ATOM     22  H17 BGC d          59.094  49.594  36.011  0.00  0.00     0.084 H 
ATOM     23  H18 BGC d          58.769  49.741  37.771  0.00  0.00     0.084 H 
ATOM     24  H16 BGC d          60.041  47.346  36.314  0.00  0.00     0.089 H 
ATOM     25  H15 BGC d          59.350  47.644  39.286  0.00  0.00     0.091 H 
BRANCH  14  26
ATOM     26  C6  BGC d          57.463  45.624  39.128  0.00  0.00     0.045 C 
ATOM     27  H12 BGC d          56.367  45.606  39.027  0.00  0.00     0.078 H 
ATOM     28  H13 BGC d          57.734  46.068  40.096  0.00  0.00     0.078 H 
BRANCH  26  29
ATOM     29  O6  BGC d          57.959  44.290  39.070  0.00  0.00    -0.398 OA
ATOM     30  H19 BGC d          58.285  44.112  38.196  0.00  0.00     0.209 HD
ENDBRANCH  26  29
ENDBRANCH  14  26
BRANCH  21  31
ATOM     31  O3  BGC d          61.088  48.620  37.499  0.00  0.00    -0.391 OA
ATOM     32  H20 BGC d          61.097  49.465  37.064  0.00  0.00     0.210 HD
ENDBRANCH  21  31
ENDBRANCH  12  13
ENDBRANCH   5  12
BRANCH   1  33
ATOM     33  O2  BGC d          61.785  46.409  36.096  0.00  0.00    -0.388 OA
ATOM     34  H8  BGC d          61.150  47.016  36.457  0.00  0.00     0.210 HD
ENDBRANCH   1  33
BRANCH   2  35
ATOM     35  O3  BGC d          63.311  44.059  35.368  0.00  0.00    -0.390 OA
ATOM     36  H9  BGC d          63.783  43.252  35.534  0.00  0.00     0.210 HD
ENDBRANCH   2  35
BRANCH   4  37
ATOM     37  C6  BGC d          60.335  41.432  38.349  0.00  0.00     0.043 C 
ATOM     38  H5  BGC d          59.551  40.807  37.898  0.00  0.00     0.078 H 
ATOM     39  H6  BGC d          60.025  41.737  39.359  0.00  0.00     0.078 H 
BRANCH  37  40
ATOM     40  O6  BGC d          61.547  40.700  38.422  0.00  0.00    -0.398 OA
ATOM     41  H11 BGC d          62.149  41.144  39.008  0.00  0.00     0.209 HD
ENDBRANCH  37  40
ENDBRANCH   4  37
BRANCH   3  42
ATOM     42  O4  BGC d          62.004  41.553  35.903  0.00  0.00    -0.390 OA
ATOM     43  H10 BGC d          62.919  41.361  35.735  0.00  0.00     0.210 HD
ENDBRANCH   3  42
TORSDOF 10
ENDMDL
MODEL 10
REMARK VINA RESULT:      -4.6      2.614      6.147
REMARK  10 active torsions:
REMARK  status: ('A' for Active; 'I' for Inactive)
REMARK    1  A    between atoms: C2_1  and  O2_7 
REMARK    2  A    between atoms: C3_2  and  O3_8 
REMARK    3  A    between atoms: C4_3  and  O4_9 
REMARK    4  A    between atoms: C5_4  and  C6_5 
REMARK    5  A    between atoms: C6_5  and  O6_11 
REMARK    6  A    between atoms: O4_19  and  C1_6 
REMARK    7  A    between atoms: C5_13  and  C6_12 
REMARK    8  A    between atoms: C6_12  and  O6_17 
REMARK    9  A    between atoms: C4_14  and  O4_19 
REMARK   10  A    between atoms: C3_15  and  O3_20 
ROOT
ATOM      1  C2  BGC d          60.580  44.520  37.952  0.00  0.00     0.110 C 
ATOM      2  C3  BGC d          61.353  43.192  37.928  0.00  0.00     0.092 C 
ATOM      3  C4  BGC d          60.945  42.331  36.731  0.00  0.00     0.090 C 
ATOM      4  C5  BGC d          61.081  43.158  35.453  0.00  0.00     0.089 C 
ATOM      5  C1  BGC d          60.718  45.222  36.608  0.00  0.00     0.159 C 
ATOM      6  O5  BGC d          60.267  44.328  35.592  0.00  0.00    -0.348 OA
ATOM      7  H1  BGC d          59.517  44.297  38.120  0.00  0.00     0.094 H 
ATOM      8  H2  BGC d          62.427  43.417  37.847  0.00  0.00     0.091 H 
ATOM      9  H3  BGC d          59.897  42.022  36.852  0.00  0.00     0.091 H 
ATOM     10  H4  BGC d          62.134  43.459  35.349  0.00  0.00     0.090 H 
ATOM     11  H7  BGC d          61.750  45.557  36.433  0.00  0.00     0.133 H 
ENDROOT
BRANCH   5  12
ATOM     12  O4  BGC d          59.839  46.251  36.590  0.00  0.00    -0.348 OA
BRANCH  12  13
ATOM     13  C4  BGC d          59.685  47.019  37.776  0.00  0.00     0.097 C 
ATOM     14  C5  BGC d          58.227  47.487  37.933  0.00  0.00     0.119 C 
ATOM     15  O5  BGC d          58.115  48.255  39.128  0.00  0.00    -0.195 OA
ATOM     16  H14 BGC d          57.944  48.085  37.054  0.00  0.00     0.094 H 
ATOM     17  N1  BGC d          58.956  49.430  39.036  0.00  0.00     0.042 N 
ATOM     18  C2  BGC d          60.391  49.156  38.909  0.00  0.00     0.135 C 
ATOM     19  H21 BGC d          58.666  49.960  38.229  0.00  0.00     0.315 HD
ATOM     20  H22 BGC d          58.815  49.982  39.868  0.00  0.00     0.315 HD
ATOM     21  C3  BGC d          60.609  48.242  37.684  0.00  0.00     0.088 C 
ATOM     22  H17 BGC d          60.939  50.099  38.770  0.00  0.00     0.084 H 
ATOM     23  H18 BGC d          60.755  48.652  39.817  0.00  0.00     0.084 H 
ATOM     24  H16 BGC d          60.361  48.796  36.767  0.00  0.00     0.089 H 
ATOM     25  H15 BGC d          59.965  46.408  38.647  0.00  0.00     0.091 H 
BRANCH  14  26
ATOM     26  C6  BGC d          57.247  46.346  38.121  0.00  0.00     0.045 C 
ATOM     27  H12 BGC d          57.009  45.910  37.140  0.00  0.00     0.078 H 
ATOM     28  H13 BGC d          56.328  46.733  38.583  0.00  0.00     0.078 H 
BRANCH  26  29
ATOM     29  O6  BGC d          57.801  45.335  38.959  0.00  0.00    -0.398 OA
ATOM     30  H19 BGC d          57.099  44.822  39.341  0.00  0.00     0.209 HD
ENDBRANCH  26  29
ENDBRANCH  14  26
BRANCH  21  31
ATOM     31  O3  BGC d          61.953  47.897  37.648  0.00  0.00    -0.391 OA
ATOM     32  H20 BGC d          62.145  47.299  38.362  0.00  0.00     0.210 HD
ENDBRANCH  21  31
ENDBRANCH  12  13
ENDBRANCH   5  12
BRANCH   1  33
ATOM     33  O2  BGC d          61.026  45.358  39.003  0.00  0.00    -0.388 OA
ATOM     34  H8  BGC d          60.878  46.266  38.767  0.00  0.00     0.210 HD
ENDBRANCH   1  33
BRANCH   2  35
ATOM     35  O3  BGC d          61.127  42.468  39.128  0.00  0.00    -0.390 OA
ATOM     36  H9  BGC d          61.773  42.722  39.777  0.00  0.00     0.210 HD
ENDBRANCH   2  35
BRANCH   4  37
ATOM     37  C6  BGC d          60.675  42.426  34.185  0.00  0.00     0.043 C 
ATOM     38  H5  BGC d          61.527  41.842  33.806  0.00  0.00     0.078 H 
ATOM     39  H6  BGC d          60.361  43.152  33.421  0.00  0.00     0.078 H 
BRANCH  37  40
ATOM     40  O6  BGC d          59.598  41.557  34.491  0.00  0.00    -0.398 OA
ATOM     41  H11 BGC d          58.818  41.849  34.033  0.00  0.00     0.209 HD
ENDBRANCH  37  40
ENDBRANCH   4  37
BRANCH   3  42
ATOM     42  O4  BGC d          61.760  41.170  36.640  0.00  0.00    -0.390 OA
ATOM     43  H10 BGC d          62.530  41.281  37.185  0.00  0.00     0.210 HD
ENDBRANCH   3  42
TORSDOF 10
ENDMDL
