MODEL 1
REMARK VINA RESULT:      -5.8      0.000      0.000
REMARK  2 active torsions:
REMARK  status: ('A' for Active; 'I' for Inactive)
REMARK    1  A    between atoms: OAH_8  and  CAA_1 
REMARK    2  A    between atoms: OAH_8  and  CAI_9 
ROOT
ATOM      1  CAB BZ3 d          14.898  10.447  -0.103  0.00  0.00    -0.022 A 
ATOM      2  CAC BZ3 d          14.519   9.715  -4.613  0.00  0.00    -0.049 A 
ATOM      3  CAD BZ3 d          13.593  10.273  -0.543  0.00  0.00    -0.056 A 
ATOM      4  CAE BZ3 d          15.496   9.940  -3.642  0.00  0.00    -0.054 A 
ATOM      5  CAF BZ3 d          12.788   9.845  -2.919  0.00  0.00    -0.039 A 
ATOM      6  NAG BZ3 d          15.762  10.342  -1.152  0.00  0.00    -0.365 N 
ATOM      7  CAI BZ3 d          13.174   9.657  -4.251  0.00  0.00     0.069 A 
ATOM      8  CAJ BZ3 d          13.767  10.068  -1.944  0.00  0.00    -0.005 A 
ATOM      9  CAK BZ3 d          15.097  10.121  -2.308  0.00  0.00     0.042 A 
ATOM     10  H4  BZ3 d          15.189  10.640   0.929  0.00  0.00     0.111 H 
ATOM     11  H5  BZ3 d          14.806   9.584  -5.650  0.00  0.00     0.087 H 
ATOM     12  H6  BZ3 d          12.670  10.289   0.035  0.00  0.00     0.086 H 
ATOM     13  H7  BZ3 d          16.544   9.976  -3.913  0.00  0.00     0.087 H 
ATOM     14  H8  BZ3 d          11.740   9.817  -2.644  0.00  0.00     0.089 H 
ATOM     15  H9  BZ3 d          16.787  10.420  -1.074  0.00  0.00     0.165 HD
ENDROOT
BRANCH   7  16
ATOM     16  OAH BZ3 d          12.229   9.440  -5.226  0.00  0.00    -0.356 OA
BRANCH  16  17
ATOM     17  CAA BZ3 d          10.834   9.549  -4.933  0.00  0.00     0.010 C 
ATOM     18  H1  BZ3 d          10.656  10.453  -4.331  0.00  0.00     0.066 H 
ATOM     19  H2  BZ3 d          10.507   8.663  -4.371  0.00  0.00     0.066 H 
ATOM     20  H3  BZ3 d          10.266   9.618  -5.872  0.00  0.00     0.066 H 
ENDBRANCH  16  17
ENDBRANCH   7  16
TORSDOF 2
ENDMDL
MODEL 2
REMARK VINA RESULT:      -5.8      2.549      4.551
REMARK  2 active torsions:
REMARK  status: ('A' for Active; 'I' for Inactive)
REMARK    1  A    between atoms: OAH_8  and  CAA_1 
REMARK    2  A    between atoms: OAH_8  and  CAI_9 
ROOT
ATOM      1  CAB BZ3 d          12.345   9.257  -4.573  0.00  0.00    -0.022 A 
ATOM      2  CAC BZ3 d          14.394  10.737  -0.747  0.00  0.00    -0.049 A 
ATOM      3  CAD BZ3 d          13.730   9.151  -4.592  0.00  0.00    -0.056 A 
ATOM      4  CAE BZ3 d          13.117  10.592  -1.292  0.00  0.00    -0.054 A 
ATOM      5  CAF BZ3 d          15.373   9.816  -2.767  0.00  0.00    -0.039 A 
ATOM      6  NAG BZ3 d          11.933   9.779  -3.384  0.00  0.00    -0.365 N 
ATOM      7  CAI BZ3 d          15.514  10.342  -1.477  0.00  0.00     0.069 A 
ATOM      8  CAJ BZ3 d          14.094   9.668  -3.313  0.00  0.00    -0.005 A 
ATOM      9  CAK BZ3 d          12.988  10.057  -2.584  0.00  0.00     0.042 A 
ATOM     10  H4  BZ3 d          11.685   8.966  -5.390  0.00  0.00     0.111 H 
ATOM     11  H5  BZ3 d          14.515  11.158   0.244  0.00  0.00     0.087 H 
ATOM     12  H6  BZ3 d          14.374   8.770  -5.382  0.00  0.00     0.086 H 
ATOM     13  H7  BZ3 d          12.240  10.886  -0.728  0.00  0.00     0.087 H 
ATOM     14  H8  BZ3 d          16.248   9.527  -3.337  0.00  0.00     0.089 H 
ATOM     15  H9  BZ3 d          10.948   9.940  -3.127  0.00  0.00     0.165 HD
ENDROOT
BRANCH   7  16
ATOM     16  OAH BZ3 d          16.762  10.501  -0.922  0.00  0.00    -0.356 OA
BRANCH  16  17
ATOM     17  CAA BZ3 d          16.930  11.180   0.324  0.00  0.00     0.010 C 
ATOM     18  H1  BZ3 d          17.609  10.602   0.968  0.00  0.00     0.066 H 
ATOM     19  H2  BZ3 d          15.954  11.284   0.820  0.00  0.00     0.066 H 
ATOM     20  H3  BZ3 d          17.357  12.178   0.144  0.00  0.00     0.066 H 
ENDBRANCH  16  17
ENDBRANCH   7  16
TORSDOF 2
ENDMDL
MODEL 3
REMARK VINA RESULT:      -5.1      1.140      2.130
REMARK  2 active torsions:
REMARK  status: ('A' for Active; 'I' for Inactive)
REMARK    1  A    between atoms: OAH_8  and  CAA_1 
REMARK    2  A    between atoms: OAH_8  and  CAI_9 
ROOT
ATOM      1  CAB BZ3 d          16.352  10.797   0.092  0.00  0.00    -0.022 A 
ATOM      2  CAC BZ3 d          12.557  10.057  -2.371  0.00  0.00    -0.049 A 
ATOM      3  CAD BZ3 d          16.592  10.433  -1.226  0.00  0.00    -0.056 A 
ATOM      4  CAE BZ3 d          12.943  10.427  -1.082  0.00  0.00    -0.054 A 
ATOM      5  CAF BZ3 d          14.885   9.898  -3.035  0.00  0.00    -0.039 A 
ATOM      6  NAG BZ3 d          15.010  10.855   0.324  0.00  0.00    -0.365 N 
ATOM      7  CAI BZ3 d          13.522   9.804  -3.344  0.00  0.00     0.069 A 
ATOM      8  CAJ BZ3 d          15.272  10.271  -1.744  0.00  0.00    -0.005 A 
ATOM      9  CAK BZ3 d          14.312  10.523  -0.786  0.00  0.00     0.042 A 
ATOM     10  H4  BZ3 d          17.123  11.006   0.833  0.00  0.00     0.111 H 
ATOM     11  H5  BZ3 d          11.505   9.966  -2.617  0.00  0.00     0.087 H 
ATOM     12  H6  BZ3 d          17.545  10.304  -1.736  0.00  0.00     0.086 H 
ATOM     13  H7  BZ3 d          12.199  10.635  -0.322  0.00  0.00     0.087 H 
ATOM     14  H8  BZ3 d          15.632   9.683  -3.790  0.00  0.00     0.089 H 
ATOM     15  H9  BZ3 d          14.584  11.118   1.225  0.00  0.00     0.165 HD
ENDROOT
BRANCH   7  16
ATOM     16  OAH BZ3 d          13.118   9.436  -4.606  0.00  0.00    -0.356 OA
BRANCH  16  17
ATOM     17  CAA BZ3 d          11.731   9.315  -4.926  0.00  0.00     0.010 C 
ATOM     18  H1  BZ3 d          11.416   8.268  -4.805  0.00  0.00     0.066 H 
ATOM     19  H2  BZ3 d          11.566   9.631  -5.967  0.00  0.00     0.066 H 
ATOM     20  H3  BZ3 d          11.141   9.954  -4.252  0.00  0.00     0.066 H 
ENDBRANCH  16  17
ENDBRANCH   7  16
TORSDOF 2
ENDMDL
MODEL 4
REMARK VINA RESULT:      -4.6      1.402      2.489
REMARK  2 active torsions:
REMARK  status: ('A' for Active; 'I' for Inactive)
REMARK    1  A    between atoms: OAH_8  and  CAA_1 
REMARK    2  A    between atoms: OAH_8  and  CAI_9 
ROOT
ATOM      1  CAB BZ3 d          15.983  10.896   0.324  0.00  0.00    -0.022 A 
ATOM      2  CAC BZ3 d          13.035   9.901  -3.044  0.00  0.00    -0.049 A 
ATOM      3  CAD BZ3 d          16.584  10.638  -0.901  0.00  0.00    -0.056 A 
ATOM      4  CAE BZ3 d          13.041  10.234  -1.689  0.00  0.00    -0.054 A 
ATOM      5  CAF BZ3 d          15.456  10.031  -3.099  0.00  0.00    -0.039 A 
ATOM      6  NAG BZ3 d          14.628  10.797   0.209  0.00  0.00    -0.365 N 
ATOM      7  CAI BZ3 d          14.235   9.811  -3.746  0.00  0.00     0.069 A 
ATOM      8  CAJ BZ3 d          15.464  10.367  -1.741  0.00  0.00    -0.005 A 
ATOM      9  CAK BZ3 d          14.272  10.458  -1.051  0.00  0.00     0.042 A 
ATOM     10  H4  BZ3 d          16.515  11.143   1.242  0.00  0.00     0.111 H 
ATOM     11  H5  BZ3 d          12.095   9.714  -3.551  0.00  0.00     0.087 H 
ATOM     12  H6  BZ3 d          17.643  10.641  -1.155  0.00  0.00     0.086 H 
ATOM     13  H7  BZ3 d          12.112  10.317  -1.137  0.00  0.00     0.087 H 
ATOM     14  H8  BZ3 d          16.388   9.942  -3.645  0.00  0.00     0.089 H 
ATOM     15  H9  BZ3 d          13.964  10.959   0.979  0.00  0.00     0.165 HD
ENDROOT
BRANCH   7  16
ATOM     16  OAH BZ3 d          14.204   9.476  -5.080  0.00  0.00    -0.356 OA
BRANCH  16  17
ATOM     17  CAA BZ3 d          15.371   9.603  -5.895  0.00  0.00     0.010 C 
ATOM     18  H1  BZ3 d          15.110   9.400  -6.945  0.00  0.00     0.066 H 
ATOM     19  H2  BZ3 d          16.132   8.883  -5.561  0.00  0.00     0.066 H 
ATOM     20  H3  BZ3 d          15.770  10.625  -5.809  0.00  0.00     0.066 H 
ENDBRANCH  16  17
ENDBRANCH   7  16
TORSDOF 2
ENDMDL
