MODEL 1
REMARK VINA RESULT:      -8.9      0.000      0.000
REMARK  4 active torsions:
REMARK  status: ('A' for Active; 'I' for Inactive)
REMARK    1  A    between atoms: C9_9  and  O20_18 
REMARK    2  A    between atoms: C10_10  and  O19_17 
REMARK    3  A    between atoms: C15_15  and  O23_21 
REMARK    4  A    between atoms: C16_16  and  O22_20 
ROOT
ATOM      1  C1  REF d          36.136  -4.537  11.380  0.00  0.00     0.042 A 
ATOM      2  C2  REF d          36.585  -4.162  10.129  0.00  0.00     0.030 A 
ATOM      3  C3  REF d          36.912  -5.165   9.256  0.00  0.00     0.030 A 
ATOM      4  C4  REF d          36.795  -6.497   9.638  0.00  0.00     0.126 A 
ATOM      5  O5  REF d          36.361  -6.824  10.828  0.00  0.00    -0.281 OA
ATOM      6  C6  REF d          36.030  -5.896  11.689  0.00  0.00     0.232 A 
ATOM      7  C7  REF d          37.357  -4.786   8.005  0.00  0.00     0.042 A 
ATOM      8  C8  REF d          37.715  -5.756   7.078  0.00  0.00    -0.033 A 
ATOM      9  C9  REF d          37.616  -7.091   7.441  0.00  0.00     0.102 A 
ATOM     10  C10 REF d          37.165  -7.453   8.697  0.00  0.00     0.134 A 
ATOM     11  C11 REF d          36.715  -2.829   9.739  0.00  0.00     0.126 A 
ATOM     12  O12 REF d          37.130  -2.501   8.550  0.00  0.00    -0.281 OA
ATOM     13  C13 REF d          37.446  -3.431   7.693  0.00  0.00     0.232 A 
ATOM     14  C14 REF d          35.804  -3.544  12.292  0.00  0.00    -0.033 A 
ATOM     15  C15 REF d          35.945  -2.208  11.924  0.00  0.00     0.102 A 
ATOM     16  C16 REF d          36.396  -1.845  10.658  0.00  0.00     0.134 A 
ATOM     17  O21 REF d          37.877  -3.099   6.473  0.00  0.00    -0.163 OA
ATOM     18  O24 REF d          35.571  -6.250  12.916  0.00  0.00    -0.163 OA
ATOM     19  H1  REF d          38.066  -5.475   6.092  0.00  0.00     0.089 H 
ATOM     20  H2  REF d          35.441  -3.805  13.280  0.00  0.00     0.089 H 
ENDROOT
BRANCH   9  21
ATOM     21  O20 REF d          37.970  -8.097   6.563  0.00  0.00    -0.358 OA
ATOM     22  H4  REF d          37.494  -7.987   5.748  0.00  0.00     0.217 HD
ENDBRANCH   9  21
BRANCH  10  23
ATOM     23  O19 REF d          37.112  -8.755   8.942  0.00  0.00    -0.356 OA
ATOM     24  H3  REF d          37.384  -9.233   8.168  0.00  0.00     0.218 HD
ENDBRANCH  10  23
BRANCH  16  25
ATOM     25  O22 REF d          36.538  -0.506  10.332  0.00  0.00    -0.356 OA
ATOM     26  H5  REF d          36.700  -0.423   9.399  0.00  0.00     0.218 HD
ENDBRANCH  16  25
BRANCH  15  27
ATOM     27  O23 REF d          35.648  -1.226  12.817  0.00  0.00    -0.358 OA
ATOM     28  H6  REF d          34.710  -1.199  12.956  0.00  0.00     0.217 HD
ENDBRANCH  15  27
TORSDOF 4
ENDMDL
MODEL 2
REMARK VINA RESULT:      -8.9      0.077      6.135
REMARK  4 active torsions:
REMARK  status: ('A' for Active; 'I' for Inactive)
REMARK    1  A    between atoms: C9_9  and  O20_18 
REMARK    2  A    between atoms: C10_10  and  O19_17 
REMARK    3  A    between atoms: C15_15  and  O23_21 
REMARK    4  A    between atoms: C16_16  and  O22_20 
ROOT
ATOM      1  C1  REF d          37.347  -4.771   8.026  0.00  0.00     0.042 A 
ATOM      2  C2  REF d          36.899  -5.152   9.275  0.00  0.00     0.030 A 
ATOM      3  C3  REF d          36.583  -4.152  10.156  0.00  0.00     0.030 A 
ATOM      4  C4  REF d          36.723  -2.818   9.787  0.00  0.00     0.126 A 
ATOM      5  O5  REF d          37.145  -2.487   8.594  0.00  0.00    -0.281 OA
ATOM      6  C6  REF d          37.450  -3.411   7.720  0.00  0.00     0.232 A 
ATOM      7  C7  REF d          36.130  -4.535  11.403  0.00  0.00     0.042 A 
ATOM      8  C8  REF d          35.805  -3.568  12.345  0.00  0.00    -0.033 A 
ATOM      9  C9  REF d          35.947  -2.232  12.003  0.00  0.00     0.102 A 
ATOM     10  C10 REF d          36.398  -1.866  10.748  0.00  0.00     0.134 A 
ATOM     11  C11 REF d          36.763  -6.486   9.658  0.00  0.00     0.126 A 
ATOM     12  O12 REF d          36.327  -6.818  10.838  0.00  0.00    -0.281 OA
ATOM     13  C13 REF d          36.013  -5.891  11.700  0.00  0.00     0.232 A 
ATOM     14  C14 REF d          37.684  -5.762   7.111  0.00  0.00    -0.033 A 
ATOM     15  C15 REF d          37.571  -7.098   7.485  0.00  0.00     0.102 A 
ATOM     16  C16 REF d          37.114  -7.466   8.746  0.00  0.00     0.134 A 
ATOM     17  O21 REF d          35.571  -6.228  12.914  0.00  0.00    -0.163 OA
ATOM     18  O24 REF d          37.875  -3.053   6.483  0.00  0.00    -0.163 OA
ATOM     19  H1  REF d          35.448  -3.853  13.329  0.00  0.00     0.089 H 
ATOM     20  H2  REF d          38.032  -5.497   6.119  0.00  0.00     0.089 H 
ENDROOT
BRANCH   9  21
ATOM     21  O20 REF d          35.649  -1.229  12.905  0.00  0.00    -0.358 OA
ATOM     22  H4  REF d          36.397  -1.083  13.473  0.00  0.00     0.217 HD
ENDBRANCH   9  21
BRANCH  10  23
ATOM     23  O19 REF d          36.501  -0.562  10.526  0.00  0.00    -0.356 OA
ATOM     24  H3  REF d          36.175  -0.087  11.281  0.00  0.00     0.218 HD
ENDBRANCH  10  23
BRANCH  16  25
ATOM     25  O22 REF d          37.028  -8.807   9.088  0.00  0.00    -0.356 OA
ATOM     26  H5  REF d          36.159  -9.130   8.882  0.00  0.00     0.218 HD
ENDBRANCH  16  25
BRANCH  15  27
ATOM     27  O23 REF d          37.923  -8.077   6.607  0.00  0.00    -0.358 OA
ATOM     28  H6  REF d          37.201  -8.242   6.014  0.00  0.00     0.217 HD
ENDBRANCH  15  27
TORSDOF 4
ENDMDL
MODEL 3
REMARK VINA RESULT:      -8.7      1.360      4.520
REMARK  4 active torsions:
REMARK  status: ('A' for Active; 'I' for Inactive)
REMARK    1  A    between atoms: C9_9  and  O20_18 
REMARK    2  A    between atoms: C10_10  and  O19_17 
REMARK    3  A    between atoms: C15_15  and  O23_21 
REMARK    4  A    between atoms: C16_16  and  O22_20 
ROOT
ATOM      1  C1  REF d          36.163  -4.210  11.314  0.00  0.00     0.042 A 
ATOM      2  C2  REF d          36.609  -4.638  10.079  0.00  0.00     0.030 A 
ATOM      3  C3  REF d          36.859  -3.675   9.138  0.00  0.00     0.030 A 
ATOM      4  C4  REF d          36.657  -2.331   9.434  0.00  0.00     0.126 A 
ATOM      5  O5  REF d          36.240  -1.954  10.615  0.00  0.00    -0.281 OA
ATOM      6  C6  REF d          35.997  -2.842  11.545  0.00  0.00     0.232 A 
ATOM      7  C7  REF d          37.308  -4.106   7.905  0.00  0.00     0.042 A 
ATOM      8  C8  REF d          37.568  -3.179   6.904  0.00  0.00    -0.033 A 
ATOM      9  C9  REF d          37.364  -1.834   7.174  0.00  0.00     0.102 A 
ATOM     10  C10 REF d          36.917  -1.420   8.416  0.00  0.00     0.134 A 
ATOM     11  C11 REF d          36.806  -5.983   9.768  0.00  0.00     0.126 A 
ATOM     12  O12 REF d          37.238  -6.360   8.600  0.00  0.00    -0.281 OA
ATOM     13  C13 REF d          37.489  -5.469   7.682  0.00  0.00     0.232 A 
ATOM     14  C14 REF d          35.893  -5.162  12.289  0.00  0.00    -0.033 A 
ATOM     15  C15 REF d          36.068  -6.511  11.988  0.00  0.00     0.102 A 
ATOM     16  C16 REF d          36.521  -6.926  10.740  0.00  0.00     0.134 A 
ATOM     17  O21 REF d          37.928  -5.852   6.480  0.00  0.00    -0.163 OA
ATOM     18  O24 REF d          35.576  -2.436  12.769  0.00  0.00    -0.163 OA
ATOM     19  H1  REF d          37.922  -3.500   5.931  0.00  0.00     0.089 H 
ATOM     20  H2  REF d          35.549  -4.859  13.271  0.00  0.00     0.089 H 
ENDROOT
BRANCH   9  21
ATOM     21  O20 REF d          37.595  -0.870   6.211  0.00  0.00    -0.358 OA
ATOM     22  H4  REF d          36.994  -0.997   5.486  0.00  0.00     0.217 HD
ENDBRANCH   9  21
BRANCH  10  23
ATOM     23  O19 REF d          36.752  -0.113   8.566  0.00  0.00    -0.356 OA
ATOM     24  H3  REF d          37.484   0.244   9.055  0.00  0.00     0.218 HD
ENDBRANCH  10  23
BRANCH  16  25
ATOM     25  O22 REF d          36.669  -8.278  10.472  0.00  0.00    -0.356 OA
ATOM     26  H5  REF d          35.999  -8.767  10.936  0.00  0.00     0.218 HD
ENDBRANCH  16  25
BRANCH  15  27
ATOM     27  O23 REF d          35.781  -7.454  12.926  0.00  0.00    -0.358 OA
ATOM     28  H6  REF d          35.238  -7.071  13.604  0.00  0.00     0.217 HD
ENDBRANCH  15  27
TORSDOF 4
ENDMDL
MODEL 4
REMARK VINA RESULT:      -8.6      1.309      4.170
REMARK  4 active torsions:
REMARK  status: ('A' for Active; 'I' for Inactive)
REMARK    1  A    between atoms: C9_9  and  O20_18 
REMARK    2  A    between atoms: C10_10  and  O19_17 
REMARK    3  A    between atoms: C15_15  and  O23_21 
REMARK    4  A    between atoms: C16_16  and  O22_20 
ROOT
ATOM      1  C1  REF d          37.365  -4.505   7.896  0.00  0.00     0.042 A 
ATOM      2  C2  REF d          36.902  -4.098   9.132  0.00  0.00     0.030 A 
ATOM      3  C3  REF d          36.652  -5.075  10.058  0.00  0.00     0.030 A 
ATOM      4  C4  REF d          36.858  -6.414   9.741  0.00  0.00     0.126 A 
ATOM      5  O5  REF d          37.303  -6.771   8.564  0.00  0.00    -0.281 OA
ATOM      6  C6  REF d          37.562  -5.867   7.654  0.00  0.00     0.232 A 
ATOM      7  C7  REF d          36.193  -4.665  11.294  0.00  0.00     0.042 A 
ATOM      8  C8  REF d          35.910  -5.610  12.272  0.00  0.00    -0.033 A 
ATOM      9  C9  REF d          36.098  -6.952  11.975  0.00  0.00     0.102 A 
ATOM     10  C10 REF d          36.563  -7.344  10.733  0.00  0.00     0.134 A 
ATOM     11  C11 REF d          36.684  -2.759   9.457  0.00  0.00     0.126 A 
ATOM     12  O12 REF d          36.257  -2.401  10.633  0.00  0.00    -0.281 OA
ATOM     13  C13 REF d          36.014  -3.306  11.539  0.00  0.00     0.232 A 
ATOM     14  C14 REF d          37.620  -3.538   6.931  0.00  0.00    -0.033 A 
ATOM     15  C15 REF d          37.390  -2.199   7.235  0.00  0.00     0.102 A 
ATOM     16  C16 REF d          36.927  -1.804   8.486  0.00  0.00     0.134 A 
ATOM     17  O21 REF d          35.571  -2.942  12.746  0.00  0.00    -0.163 OA
ATOM     18  O24 REF d          38.034  -6.250   6.441  0.00  0.00    -0.163 OA
ATOM     19  H1  REF d          35.549  -5.304  13.247  0.00  0.00     0.089 H 
ATOM     20  H2  REF d          37.992  -3.823   5.954  0.00  0.00     0.089 H 
ENDROOT
BRANCH   9  21
ATOM     21  O20 REF d          35.821  -7.933  12.907  0.00  0.00    -0.358 OA
ATOM     22  H4  REF d          35.332  -7.555  13.628  0.00  0.00     0.217 HD
ENDBRANCH   9  21
BRANCH  10  23
ATOM     23  O19 REF d          36.702  -8.651  10.553  0.00  0.00    -0.356 OA
ATOM     24  H3  REF d          35.928  -8.994  10.124  0.00  0.00     0.218 HD
ENDBRANCH  10  23
BRANCH  16  25
ATOM     25  O22 REF d          36.696  -0.462   8.746  0.00  0.00    -0.356 OA
ATOM     26  H5  REF d          36.885  -0.281   9.660  0.00  0.00     0.218 HD
ENDBRANCH  16  25
BRANCH  15  27
ATOM     27  O23 REF d          37.611  -1.245   6.290  0.00  0.00    -0.358 OA
ATOM     28  H6  REF d          38.480  -0.880   6.407  0.00  0.00     0.217 HD
ENDBRANCH  15  27
TORSDOF 4
ENDMDL
MODEL 5
REMARK VINA RESULT:      -8.4      1.303      3.305
REMARK  4 active torsions:
REMARK  status: ('A' for Active; 'I' for Inactive)
REMARK    1  A    between atoms: C9_9  and  O20_18 
REMARK    2  A    between atoms: C10_10  and  O19_17 
REMARK    3  A    between atoms: C15_15  and  O23_21 
REMARK    4  A    between atoms: C16_16  and  O22_20 
ROOT
ATOM      1  C1  REF d          36.539  -2.870  10.328  0.00  0.00     0.042 A 
ATOM      2  C2  REF d          36.873  -3.918   9.493  0.00  0.00     0.030 A 
ATOM      3  C3  REF d          36.701  -5.186   9.982  0.00  0.00     0.030 A 
ATOM      4  C4  REF d          36.216  -5.383  11.271  0.00  0.00     0.126 A 
ATOM      5  O5  REF d          35.901  -4.372  12.038  0.00  0.00    -0.281 OA
ATOM      6  C6  REF d          36.043  -3.145  11.606  0.00  0.00     0.232 A 
ATOM      7  C7  REF d          37.033  -6.231   9.143  0.00  0.00     0.042 A 
ATOM      8  C8  REF d          36.892  -7.540   9.585  0.00  0.00    -0.033 A 
ATOM      9  C9  REF d          36.419  -7.762  10.870  0.00  0.00     0.102 A 
ATOM     10  C10 REF d          36.088  -6.702  11.695  0.00  0.00     0.134 A 
ATOM     11  C11 REF d          37.370  -3.731   8.203  0.00  0.00     0.126 A 
ATOM     12  O12 REF d          37.667  -4.736   7.431  0.00  0.00    -0.281 OA
ATOM     13  C13 REF d          37.511  -5.956   7.864  0.00  0.00     0.232 A 
ATOM     14  C14 REF d          36.710  -1.572   9.865  0.00  0.00    -0.033 A 
ATOM     15  C15 REF d          37.221  -1.369   8.586  0.00  0.00     0.102 A 
ATOM     16  C16 REF d          37.551  -2.434   7.755  0.00  0.00     0.134 A 
ATOM     17  O21 REF d          37.821  -6.990   7.077  0.00  0.00    -0.163 OA
ATOM     18  O24 REF d          35.702  -2.106  12.408  0.00  0.00    -0.163 OA
ATOM     19  H1  REF d          37.147  -8.372   8.939  0.00  0.00     0.089 H 
ATOM     20  H2  REF d          36.449  -0.727  10.493  0.00  0.00     0.089 H 
ENDROOT
BRANCH   9  21
ATOM     21  O20 REF d          36.271  -9.043  11.365  0.00  0.00    -0.358 OA
ATOM     22  H4  REF d          35.686  -9.534  10.799  0.00  0.00     0.217 HD
ENDBRANCH   9  21
BRANCH  10  23
ATOM     23  O19 REF d          35.650  -7.024  12.905  0.00  0.00    -0.356 OA
ATOM     24  H3  REF d          36.186  -6.593  13.560  0.00  0.00     0.218 HD
ENDBRANCH  10  23
BRANCH  16  25
ATOM     25  O22 REF d          38.071  -2.193   6.493  0.00  0.00    -0.356 OA
ATOM     26  H5  REF d          38.837  -1.636   6.568  0.00  0.00     0.218 HD
ENDBRANCH  16  25
BRANCH  15  27
ATOM     27  O23 REF d          37.418  -0.101   8.131  0.00  0.00    -0.358 OA
ATOM     28  H6  REF d          36.593   0.256   7.825  0.00  0.00     0.217 HD
ENDBRANCH  15  27
TORSDOF 4
ENDMDL
MODEL 6
REMARK VINA RESULT:      -7.8      1.356      5.114
REMARK  4 active torsions:
REMARK  status: ('A' for Active; 'I' for Inactive)
REMARK    1  A    between atoms: C9_9  and  O20_18 
REMARK    2  A    between atoms: C10_10  and  O19_17 
REMARK    3  A    between atoms: C15_15  and  O23_21 
REMARK    4  A    between atoms: C16_16  and  O22_20 
ROOT
ATOM      1  C1  REF d          36.680  -6.186   9.151  0.00  0.00     0.042 A 
ATOM      2  C2  REF d          36.592  -5.124  10.030  0.00  0.00     0.030 A 
ATOM      3  C3  REF d          36.893  -3.881   9.540  0.00  0.00     0.030 A 
ATOM      4  C4  REF d          37.276  -3.722   8.212  0.00  0.00     0.126 A 
ATOM      5  O5  REF d          37.345  -4.744   7.400  0.00  0.00    -0.281 OA
ATOM      6  C6  REF d          37.058  -5.948   7.826  0.00  0.00     0.232 A 
ATOM      7  C7  REF d          36.801  -2.821  10.420  0.00  0.00     0.042 A 
ATOM      8  C8  REF d          37.105  -1.538   9.987  0.00  0.00    -0.033 A 
ATOM      9  C9  REF d          37.499  -1.356   8.670  0.00  0.00     0.102 A 
ATOM     10  C10 REF d          37.583  -2.428   7.801  0.00  0.00     0.134 A 
ATOM     11  C11 REF d          36.218  -5.274  11.365  0.00  0.00     0.126 A 
ATOM     12  O12 REF d          36.132  -4.256  12.171  0.00  0.00    -0.281 OA
ATOM     13  C13 REF d          36.408  -3.058  11.735  0.00  0.00     0.232 A 
ATOM     14  C14 REF d          36.388  -7.461   9.619  0.00  0.00    -0.033 A 
ATOM     15  C15 REF d          36.031  -7.629  10.954  0.00  0.00     0.102 A 
ATOM     16  C16 REF d          35.943  -6.549  11.827  0.00  0.00     0.134 A 
ATOM     17  O21 REF d          36.326  -2.011  12.561  0.00  0.00    -0.163 OA
ATOM     18  O24 REF d          37.122  -6.998   6.970  0.00  0.00    -0.163 OA
ATOM     19  H1  REF d          37.037  -0.695  10.665  0.00  0.00     0.089 H 
ATOM     20  H2  REF d          36.440  -8.314   8.952  0.00  0.00     0.089 H 
ENDROOT
BRANCH   9  21
ATOM     21  O20 REF d          37.825  -0.102   8.189  0.00  0.00    -0.358 OA
ATOM     22  H4  REF d          37.029   0.387   8.018  0.00  0.00     0.217 HD
ENDBRANCH   9  21
BRANCH  10  23
ATOM     23  O19 REF d          37.973  -2.145   6.565  0.00  0.00    -0.356 OA
ATOM     24  H3  REF d          37.256  -1.741   6.092  0.00  0.00     0.218 HD
ENDBRANCH  10  23
BRANCH  16  25
ATOM     25  O22 REF d          35.598  -6.758  13.153  0.00  0.00    -0.356 OA
ATOM     26  H5  REF d          34.702  -7.071  13.201  0.00  0.00     0.218 HD
ENDBRANCH  16  25
BRANCH  15  27
ATOM     27  O23 REF d          35.768  -8.877  11.430  0.00  0.00    -0.358 OA
ATOM     28  H6  REF d          36.180  -9.522  10.869  0.00  0.00     0.217 HD
ENDBRANCH  15  27
TORSDOF 4
ENDMDL
MODEL 7
REMARK VINA RESULT:      -7.4      0.914      4.993
REMARK  4 active torsions:
REMARK  status: ('A' for Active; 'I' for Inactive)
REMARK    1  A    between atoms: C9_9  and  O20_18 
REMARK    2  A    between atoms: C10_10  and  O19_17 
REMARK    3  A    between atoms: C15_15  and  O23_21 
REMARK    4  A    between atoms: C16_16  and  O22_20 
ROOT
ATOM      1  C1  REF d          36.534  -6.367  10.359  0.00  0.00     0.042 A 
ATOM      2  C2  REF d          36.856  -5.307   9.536  0.00  0.00     0.030 A 
ATOM      3  C3  REF d          36.685  -4.047  10.044  0.00  0.00     0.030 A 
ATOM      4  C4  REF d          36.200  -3.869  11.336  0.00  0.00     0.126 A 
ATOM      5  O5  REF d          35.909  -4.892  12.097  0.00  0.00    -0.281 OA
ATOM      6  C6  REF d          36.065  -6.112  11.652  0.00  0.00     0.232 A 
ATOM      7  C7  REF d          37.012  -2.989   9.220  0.00  0.00     0.042 A 
ATOM      8  C8  REF d          36.850  -1.686   9.673  0.00  0.00    -0.033 A 
ATOM      9  C9  REF d          36.358  -1.484  10.954  0.00  0.00     0.102 A 
ATOM     10  C10 REF d          36.040  -2.556  11.769  0.00  0.00     0.134 A 
ATOM     11  C11 REF d          37.334  -5.474   8.236  0.00  0.00     0.126 A 
ATOM     12  O12 REF d          37.641  -4.458   7.483  0.00  0.00    -0.281 OA
ATOM     13  C13 REF d          37.494  -3.245   7.938  0.00  0.00     0.232 A 
ATOM     14  C14 REF d          36.687  -7.659   9.870  0.00  0.00    -0.033 A 
ATOM     15  C15 REF d          37.147  -7.841   8.569  0.00  0.00     0.102 A 
ATOM     16  C16 REF d          37.470  -6.763   7.752  0.00  0.00     0.134 A 
ATOM     17  O21 REF d          37.803  -2.199   7.167  0.00  0.00    -0.163 OA
ATOM     18  O24 REF d          35.770  -7.165  12.455  0.00  0.00    -0.163 OA
ATOM     19  H1  REF d          37.102  -0.844   9.038  0.00  0.00     0.089 H 
ATOM     20  H2  REF d          36.451  -8.513  10.494  0.00  0.00     0.089 H 
ENDROOT
BRANCH   9  21
ATOM     21  O20 REF d          36.166  -0.210  11.452  0.00  0.00    -0.358 OA
ATOM     22  H4  REF d          35.237  -0.008  11.455  0.00  0.00     0.217 HD
ENDBRANCH   9  21
BRANCH  10  23
ATOM     23  O19 REF d          35.574  -2.252  12.972  0.00  0.00    -0.356 OA
ATOM     24  H3  REF d          34.625  -2.234  12.948  0.00  0.00     0.218 HD
ENDBRANCH  10  23
BRANCH  16  25
ATOM     25  O22 REF d          37.911  -6.984   6.456  0.00  0.00    -0.356 OA
ATOM     26  H5  REF d          37.377  -7.658   6.051  0.00  0.00     0.218 HD
ENDBRANCH  16  25
BRANCH  15  27
ATOM     27  O23 REF d          37.277  -9.101   8.069  0.00  0.00    -0.358 OA
ATOM     28  H6  REF d          37.200  -9.075   7.123  0.00  0.00     0.217 HD
ENDBRANCH  15  27
TORSDOF 4
ENDMDL
