MODEL 1
REMARK VINA RESULT:      -9.5      0.000      0.000
REMARK  14 active torsions:
REMARK  status: ('A' for Active; 'I' for Inactive)
REMARK    1  A    between atoms: CG_6  and  CB_7 
REMARK    2  A    between atoms: CB_7  and  CA_8 
REMARK    3  A    between atoms: CA_8  and  C_9 
REMARK    4  A    between atoms: CA_8  and  N_12 
REMARK       I    between atoms: N_12  and  CBC_13 
REMARK    5  A    between atoms: CBC_13  and  CAV_15 
REMARK    6  A    between atoms: CAV_15  and  CAW_16 
REMARK    7  A    between atoms: CAW_16  and  CBM_17 
REMARK    8  A    between atoms: CBM_17  and  OAE_18 
REMARK    9  A    between atoms: CBM_17  and  OAF_19 
REMARK   10  A    between atoms: CBM_17  and  CBL_20 
REMARK   11  A    between atoms: CBL_20  and  CAX_21 
REMARK   12  A    between atoms: CBL_20  and  NBA_28 
REMARK   13  A    between atoms: CAX_21  and  CBF_22 
REMARK       I    between atoms: NBA_28  and  CBE_29 
REMARK   14  A    between atoms: CBE_29  and  CBG_31 
ROOT
ATOM      1  CBM KAF d          45.521  45.743  47.022  0.00  0.00     0.180 C 
ENDROOT
BRANCH   1   2
ATOM      2  CAW KAF d          46.438  46.764  46.343  0.00  0.00    -0.003 C 
ATOM      3  H12 KAF d          47.069  47.242  47.107  0.00  0.00     0.041 H 
ATOM      4  H13 KAF d          47.077  46.242  45.614  0.00  0.00     0.041 H 
BRANCH   2   5
ATOM      5  CAV KAF d          45.630  47.851  45.610  0.00  0.00     0.014 C 
ATOM      6  H10 KAF d          44.574  47.793  45.910  0.00  0.00     0.047 H 
ATOM      7  H11 KAF d          46.029  48.844  45.863  0.00  0.00     0.047 H 
BRANCH   5   8
ATOM      8  CBC KAF d          45.753  47.614  44.108  0.00  0.00     0.218 C 
ATOM      9  N   KAF d          46.341  48.572  43.398  0.00  0.00    -0.346 N 
ATOM     10  H9  KAF d          46.669  49.396  43.859  0.00  0.00     0.163 HD
ATOM     11  OAA KAF d          45.340  46.567  43.609  0.00  0.00    -0.274 OA
BRANCH   9  12
ATOM     12  CA  KAF d          46.516  48.438  41.957  0.00  0.00     0.100 C 
ATOM     13  H8  KAF d          46.480  47.367  41.705  0.00  0.00     0.090 H 
BRANCH  12  14
ATOM     14  CB  KAF d          45.389  49.146  41.201  0.00  0.00    -0.013 C 
ATOM     15  H6  KAF d          44.930  49.880  41.879  0.00  0.00     0.043 H 
ATOM     16  H7  KAF d          45.830  49.669  40.340  0.00  0.00     0.043 H 
BRANCH  14  17
ATOM     17  CG  KAF d          44.305  48.239  40.691  0.00  0.00    -0.056 A 
ATOM     18  CD1 KAF d          42.987  48.666  40.666  0.00  0.00    -0.077 A 
ATOM     19  CE1 KAF d          41.975  47.837  40.217  0.00  0.00    -0.082 A 
ATOM     20  H1  KAF d          42.745  49.667  41.004  0.00  0.00     0.084 H 
ATOM     21  CZ  KAF d          42.279  46.559  39.782  0.00  0.00    -0.083 A 
ATOM     22  H2  KAF d          40.949  48.186  40.206  0.00  0.00     0.083 H 
ATOM     23  CE2 KAF d          43.591  46.120  39.801  0.00  0.00    -0.082 A 
ATOM     24  H3  KAF d          41.491  45.904  39.429  0.00  0.00     0.083 H 
ATOM     25  CD2 KAF d          44.594  46.958  40.252  0.00  0.00    -0.077 A 
ATOM     26  H4  KAF d          43.832  45.119  39.461  0.00  0.00     0.083 H 
ATOM     27  H5  KAF d          45.620  46.608  40.262  0.00  0.00     0.084 H 
ENDBRANCH  14  17
ENDBRANCH  12  14
BRANCH  12  28
ATOM     28  C   KAF d          47.873  48.986  41.529  0.00  0.00     0.197 C 
ATOM     29  O   KAF d          48.793  48.161  41.345  0.00  0.00    -0.646 OA
ATOM     30  OXT KAF d          47.997  50.218  41.361  0.00  0.00    -0.646 OA
ENDBRANCH  12  28
ENDBRANCH   9  12
ENDBRANCH   5   8
ENDBRANCH   2   5
ENDBRANCH   1   2
BRANCH   1  31
ATOM     31  OAE KAF d          45.312  44.616  46.164  0.00  0.00    -0.364 OA
ATOM     32  H14 KAF d          44.388  44.547  45.953  0.00  0.00     0.213 HD
ENDBRANCH   1  31
BRANCH   1  33
ATOM     33  OAF KAF d          44.260  46.374  47.269  0.00  0.00    -0.364 OA
ATOM     34  H15 KAF d          43.938  46.762  46.464  0.00  0.00     0.213 HD
ENDBRANCH   1  33
BRANCH   1  35
ATOM     35  CBL KAF d          46.108  45.298  48.366  0.00  0.00     0.070 C 
ATOM     36  H16 KAF d          45.721  45.979  49.137  0.00  0.00     0.081 H 
BRANCH  35  37
ATOM     37  CAX KAF d          47.646  45.384  48.380  0.00  0.00    -0.017 C 
ATOM     38  H17 KAF d          47.954  46.314  47.880  0.00  0.00     0.043 H 
ATOM     39  H18 KAF d          48.055  44.520  47.835  0.00  0.00     0.043 H 
BRANCH  37  40
ATOM     40  CBF KAF d          48.203  45.380  49.777  0.00  0.00    -0.056 A 
ATOM     41  CAO KAF d          48.651  44.206  50.359  0.00  0.00    -0.077 A 
ATOM     42  CAI KAF d          49.182  44.201  51.635  0.00  0.00    -0.082 A 
ATOM     43  H19 KAF d          48.583  43.277  49.805  0.00  0.00     0.084 H 
ATOM     44  CAG KAF d          49.272  45.385  52.346  0.00  0.00    -0.083 A 
ATOM     45  H20 KAF d          49.528  43.274  52.076  0.00  0.00     0.083 H 
ATOM     46  CAJ KAF d          48.828  46.564  51.779  0.00  0.00    -0.082 A 
ATOM     47  H21 KAF d          49.689  45.387  53.347  0.00  0.00     0.083 H 
ATOM     48  CAP KAF d          48.298  46.557  50.501  0.00  0.00    -0.077 A 
ATOM     49  H22 KAF d          48.895  47.493  52.334  0.00  0.00     0.083 H 
ATOM     50  H23 KAF d          47.952  47.486  50.061  0.00  0.00     0.084 H 
ENDBRANCH  37  40
ENDBRANCH  35  37
BRANCH  35  51
ATOM     51  NBA KAF d          45.702  43.941  48.717  0.00  0.00    -0.347 N 
ATOM     52  CBE KAF d          45.004  43.677  49.818  0.00  0.00     0.252 C 
ATOM     53  OAC KAF d          44.624  44.538  50.614  0.00  0.00    -0.268 OA
ATOM     54  H24 KAF d          45.956  43.186  48.112  0.00  0.00     0.163 HD
BRANCH  52  55
ATOM     55  CBG KAF d          44.667  42.202  50.032  0.00  0.00     0.032 A 
ATOM     56  CAR KAF d          43.379  41.822  50.370  0.00  0.00    -0.068 A 
ATOM     57  CAL KAF d          43.071  40.489  50.570  0.00  0.00    -0.082 A 
ATOM     58  H25 KAF d          42.607  42.575  50.479  0.00  0.00     0.085 H 
ATOM     59  CAH KAF d          44.048  39.521  50.435  0.00  0.00    -0.083 A 
ATOM     60  H26 KAF d          42.059  40.202  50.832  0.00  0.00     0.083 H 
ATOM     61  CAK KAF d          45.336  39.894  50.102  0.00  0.00    -0.082 A 
ATOM     62  H27 KAF d          43.805  38.476  50.590  0.00  0.00     0.083 H 
ATOM     63  CAQ KAF d          45.642  41.228  49.903  0.00  0.00    -0.068 A 
ATOM     64  H28 KAF d          46.108  39.140  49.996  0.00  0.00     0.083 H 
ATOM     65  H29 KAF d          46.655  41.514  49.643  0.00  0.00     0.085 H 
ENDBRANCH  52  55
ENDBRANCH  35  51
ENDBRANCH   1  35
TORSDOF 14
ENDMDL
MODEL 2
REMARK VINA RESULT:      -8.8      1.196      4.528
REMARK  14 active torsions:
REMARK  status: ('A' for Active; 'I' for Inactive)
REMARK    1  A    between atoms: CG_6  and  CB_7 
REMARK    2  A    between atoms: CB_7  and  CA_8 
REMARK    3  A    between atoms: CA_8  and  C_9 
REMARK    4  A    between atoms: CA_8  and  N_12 
REMARK       I    between atoms: N_12  and  CBC_13 
REMARK    5  A    between atoms: CBC_13  and  CAV_15 
REMARK    6  A    between atoms: CAV_15  and  CAW_16 
REMARK    7  A    between atoms: CAW_16  and  CBM_17 
REMARK    8  A    between atoms: CBM_17  and  OAE_18 
REMARK    9  A    between atoms: CBM_17  and  OAF_19 
REMARK   10  A    between atoms: CBM_17  and  CBL_20 
REMARK   11  A    between atoms: CBL_20  and  CAX_21 
REMARK   12  A    between atoms: CBL_20  and  NBA_28 
REMARK   13  A    between atoms: CAX_21  and  CBF_22 
REMARK       I    between atoms: NBA_28  and  CBE_29 
REMARK   14  A    between atoms: CBE_29  and  CBG_31 
ROOT
ATOM      1  CBM KAF d          45.575  44.965  47.570  0.00  0.00     0.180 C 
ENDROOT
BRANCH   1   2
ATOM      2  CAW KAF d          46.800  45.796  47.178  0.00  0.00    -0.003 C 
ATOM      3  H12 KAF d          47.403  45.990  48.077  0.00  0.00     0.041 H 
ATOM      4  H13 KAF d          47.399  45.228  46.450  0.00  0.00     0.041 H 
BRANCH   2   5
ATOM      5  CAV KAF d          46.393  47.142  46.548  0.00  0.00     0.014 C 
ATOM      6  H10 KAF d          45.542  47.567  47.099  0.00  0.00     0.047 H 
ATOM      7  H11 KAF d          47.241  47.841  46.586  0.00  0.00     0.047 H 
BRANCH   5   8
ATOM      8  CBC KAF d          45.995  46.893  45.097  0.00  0.00     0.218 C 
ATOM      9  N   KAF d          46.603  47.634  44.175  0.00  0.00    -0.346 N 
ATOM     10  H9  KAF d          47.278  48.315  44.458  0.00  0.00     0.163 HD
ATOM     11  OAA KAF d          45.165  46.028  44.820  0.00  0.00    -0.274 OA
BRANCH   9  12
ATOM     12  CA  KAF d          46.299  47.468  42.759  0.00  0.00     0.100 C 
ATOM     13  H8  KAF d          45.953  46.436  42.600  0.00  0.00     0.090 H 
BRANCH  12  14
ATOM     14  CB  KAF d          45.181  48.420  42.324  0.00  0.00    -0.013 C 
ATOM     15  H6  KAF d          44.670  48.783  43.227  0.00  0.00     0.043 H 
ATOM     16  H7  KAF d          45.640  49.269  41.796  0.00  0.00     0.043 H 
BRANCH  14  17
ATOM     17  CG  KAF d          44.151  47.809  41.417  0.00  0.00    -0.056 A 
ATOM     18  CD1 KAF d          44.277  46.496  40.996  0.00  0.00    -0.077 A 
ATOM     19  CE1 KAF d          43.347  45.924  40.146  0.00  0.00    -0.082 A 
ATOM     20  H1  KAF d          45.119  45.906  41.338  0.00  0.00     0.084 H 
ATOM     21  CZ  KAF d          42.269  46.673  39.707  0.00  0.00    -0.083 A 
ATOM     22  H2  KAF d          43.463  44.895  39.824  0.00  0.00     0.083 H 
ATOM     23  CE2 KAF d          42.130  47.986  40.120  0.00  0.00    -0.082 A 
ATOM     24  H3  KAF d          41.537  46.232  39.041  0.00  0.00     0.083 H 
ATOM     25  CD2 KAF d          43.066  48.546  40.970  0.00  0.00    -0.077 A 
ATOM     26  H4  KAF d          41.287  48.575  39.778  0.00  0.00     0.083 H 
ATOM     27  H5  KAF d          42.949  49.575  41.291  0.00  0.00     0.084 H 
ENDBRANCH  14  17
ENDBRANCH  12  14
BRANCH  12  28
ATOM     28  C   KAF d          47.549  47.691  41.914  0.00  0.00     0.197 C 
ATOM     29  O   KAF d          48.208  46.681  41.588  0.00  0.00    -0.646 OA
ATOM     30  OXT KAF d          47.841  48.856  41.570  0.00  0.00    -0.646 OA
ENDBRANCH  12  28
ENDBRANCH   9  12
ENDBRANCH   5   8
ENDBRANCH   2   5
ENDBRANCH   1   2
BRANCH   1  31
ATOM     31  OAE KAF d          45.316  43.963  46.581  0.00  0.00    -0.364 OA
ATOM     32  H14 KAF d          44.389  43.957  46.373  0.00  0.00     0.213 HD
ENDBRANCH   1  31
BRANCH   1  33
ATOM     33  OAF KAF d          44.447  45.844  47.642  0.00  0.00    -0.364 OA
ATOM     34  H15 KAF d          44.275  46.064  48.550  0.00  0.00     0.213 HD
ENDBRANCH   1  33
BRANCH   1  35
ATOM     35  CBL KAF d          45.774  44.325  48.949  0.00  0.00     0.070 C 
ATOM     36  H16 KAF d          46.345  43.397  48.802  0.00  0.00     0.081 H 
BRANCH  35  37
ATOM     37  CAX KAF d          44.433  43.961  49.614  0.00  0.00    -0.017 C 
ATOM     38  H17 KAF d          43.612  44.356  48.997  0.00  0.00     0.043 H 
ATOM     39  H18 KAF d          44.396  44.422  50.613  0.00  0.00     0.043 H 
BRANCH  37  40
ATOM     40  CBF KAF d          44.255  42.476  49.761  0.00  0.00    -0.056 A 
ATOM     41  CAO KAF d          43.250  41.957  50.560  0.00  0.00    -0.077 A 
ATOM     42  CAI KAF d          43.069  40.592  50.682  0.00  0.00    -0.082 A 
ATOM     43  H19 KAF d          42.594  42.632  51.097  0.00  0.00     0.084 H 
ATOM     44  CAG KAF d          43.903  39.725  49.998  0.00  0.00    -0.083 A 
ATOM     45  H20 KAF d          42.278  40.202  51.311  0.00  0.00     0.083 H 
ATOM     46  CAJ KAF d          44.912  40.228  49.198  0.00  0.00    -0.082 A 
ATOM     47  H21 KAF d          43.766  38.654  50.089  0.00  0.00     0.083 H 
ATOM     48  CAP KAF d          45.083  41.596  49.083  0.00  0.00    -0.077 A 
ATOM     49  H22 KAF d          45.569  39.552  48.662  0.00  0.00     0.083 H 
ATOM     50  H23 KAF d          45.876  41.985  48.454  0.00  0.00     0.084 H 
ENDBRANCH  37  40
ENDBRANCH  35  37
BRANCH  35  51
ATOM     51  NBA KAF d          46.535  45.187  49.848  0.00  0.00    -0.347 N 
ATOM     52  CBE KAF d          47.616  44.755  50.490  0.00  0.00     0.252 C 
ATOM     53  OAC KAF d          48.079  43.619  50.370  0.00  0.00    -0.268 OA
ATOM     54  H24 KAF d          46.235  46.131  49.985  0.00  0.00     0.163 HD
BRANCH  52  55
ATOM     55  CBG KAF d          48.289  45.789  51.392  0.00  0.00     0.032 A 
ATOM     56  CAR KAF d          47.994  47.134  51.253  0.00  0.00    -0.068 A 
ATOM     57  CAL KAF d          48.604  48.073  52.065  0.00  0.00    -0.082 A 
ATOM     58  H25 KAF d          47.280  47.454  50.503  0.00  0.00     0.085 H 
ATOM     59  CAH KAF d          49.518  47.676  53.024  0.00  0.00    -0.083 A 
ATOM     60  H26 KAF d          48.366  49.123  51.949  0.00  0.00     0.083 H 
ATOM     61  CAK KAF d          49.818  46.335  53.165  0.00  0.00    -0.082 A 
ATOM     62  H27 KAF d          49.994  48.412  53.660  0.00  0.00     0.083 H 
ATOM     63  CAQ KAF d          49.207  45.398  52.352  0.00  0.00    -0.068 A 
ATOM     64  H28 KAF d          50.535  46.016  53.914  0.00  0.00     0.083 H 
ATOM     65  H29 KAF d          49.449  44.348  52.467  0.00  0.00     0.085 H 
ENDBRANCH  52  55
ENDBRANCH  35  51
ENDBRANCH   1  35
TORSDOF 14
ENDMDL
MODEL 3
REMARK VINA RESULT:      -8.5      1.749      4.657
REMARK  14 active torsions:
REMARK  status: ('A' for Active; 'I' for Inactive)
REMARK    1  A    between atoms: CG_6  and  CB_7 
REMARK    2  A    between atoms: CB_7  and  CA_8 
REMARK    3  A    between atoms: CA_8  and  C_9 
REMARK    4  A    between atoms: CA_8  and  N_12 
REMARK       I    between atoms: N_12  and  CBC_13 
REMARK    5  A    between atoms: CBC_13  and  CAV_15 
REMARK    6  A    between atoms: CAV_15  and  CAW_16 
REMARK    7  A    between atoms: CAW_16  and  CBM_17 
REMARK    8  A    between atoms: CBM_17  and  OAE_18 
REMARK    9  A    between atoms: CBM_17  and  OAF_19 
REMARK   10  A    between atoms: CBM_17  and  CBL_20 
REMARK   11  A    between atoms: CBL_20  and  CAX_21 
REMARK   12  A    between atoms: CBL_20  and  NBA_28 
REMARK   13  A    between atoms: CAX_21  and  CBF_22 
REMARK       I    between atoms: NBA_28  and  CBE_29 
REMARK   14  A    between atoms: CBE_29  and  CBG_31 
ROOT
ATOM      1  CBM KAF d          45.341  44.560  47.683  0.00  0.00     0.180 C 
ENDROOT
BRANCH   1   2
ATOM      2  CAW KAF d          46.373  45.663  47.432  0.00  0.00    -0.003 C 
ATOM      3  H12 KAF d          47.003  45.773  48.328  0.00  0.00     0.041 H 
ATOM      4  H13 KAF d          47.002  45.377  46.575  0.00  0.00     0.041 H 
BRANCH   2   5
ATOM      5  CAV KAF d          45.697  47.013  47.127  0.00  0.00     0.014 C 
ATOM      6  H10 KAF d          44.627  46.955  47.375  0.00  0.00     0.047 H 
ATOM      7  H11 KAF d          46.169  47.808  47.723  0.00  0.00     0.047 H 
BRANCH   5   8
ATOM      8  CBC KAF d          45.866  47.312  45.641  0.00  0.00     0.218 C 
ATOM      9  N   KAF d          45.131  48.301  45.143  0.00  0.00    -0.346 N 
ATOM     10  H9  KAF d          44.504  48.799  45.743  0.00  0.00     0.163 HD
ATOM     11  OAA KAF d          46.668  46.667  44.965  0.00  0.00    -0.274 OA
BRANCH   9  12
ATOM     12  CA  KAF d          45.226  48.672  43.736  0.00  0.00     0.100 C 
ATOM     13  H8  KAF d          46.233  48.411  43.379  0.00  0.00     0.090 H 
BRANCH  12  14
ATOM     14  CB  KAF d          44.204  47.900  42.897  0.00  0.00    -0.013 C 
ATOM     15  H6  KAF d          43.763  47.116  43.530  0.00  0.00     0.043 H 
ATOM     16  H7  KAF d          43.418  48.602  42.582  0.00  0.00     0.043 H 
BRANCH  14  17
ATOM     17  CG  KAF d          44.765  47.245  41.666  0.00  0.00    -0.056 A 
ATOM     18  CD1 KAF d          43.954  46.474  40.850  0.00  0.00    -0.077 A 
ATOM     19  CE1 KAF d          44.459  45.849  39.724  0.00  0.00    -0.082 A 
ATOM     20  H1  KAF d          42.905  46.357  41.099  0.00  0.00     0.084 H 
ATOM     21  CZ  KAF d          45.797  45.995  39.402  0.00  0.00    -0.083 A 
ATOM     22  H2  KAF d          43.811  45.247  39.098  0.00  0.00     0.083 H 
ATOM     23  CE2 KAF d          46.618  46.764  40.207  0.00  0.00    -0.082 A 
ATOM     24  H3  KAF d          46.200  45.510  38.521  0.00  0.00     0.083 H 
ATOM     25  CD2 KAF d          46.102  47.384  41.331  0.00  0.00    -0.077 A 
ATOM     26  H4  KAF d          47.666  46.881  39.958  0.00  0.00     0.083 H 
ATOM     27  H5  KAF d          46.751  47.986  41.956  0.00  0.00     0.084 H 
ENDBRANCH  14  17
ENDBRANCH  12  14
BRANCH  12  28
ATOM     28  C   KAF d          45.031  50.175  43.565  0.00  0.00     0.197 C 
ATOM     29  O   KAF d          45.393  50.911  44.507  0.00  0.00    -0.646 OA
ATOM     30  OXT KAF d          44.547  50.599  42.493  0.00  0.00    -0.646 OA
ENDBRANCH  12  28
ENDBRANCH   9  12
ENDBRANCH   5   8
ENDBRANCH   2   5
ENDBRANCH   1   2
BRANCH   1  31
ATOM     31  OAE KAF d          45.418  43.566  46.655  0.00  0.00    -0.364 OA
ATOM     32  H14 KAF d          45.380  42.702  47.049  0.00  0.00     0.213 HD
ENDBRANCH   1  31
BRANCH   1  33
ATOM     33  OAF KAF d          44.040  45.155  47.652  0.00  0.00    -0.364 OA
ATOM     34  H15 KAF d          43.968  45.719  46.891  0.00  0.00     0.213 HD
ENDBRANCH   1  33
BRANCH   1  35
ATOM     35  CBL KAF d          45.548  43.928  49.063  0.00  0.00     0.070 C 
ATOM     36  H16 KAF d          46.072  42.973  48.914  0.00  0.00     0.081 H 
BRANCH  35  37
ATOM     37  CAX KAF d          44.211  43.633  49.769  0.00  0.00    -0.017 C 
ATOM     38  H17 KAF d          43.405  43.646  49.021  0.00  0.00     0.043 H 
ATOM     39  H18 KAF d          44.027  44.416  50.520  0.00  0.00     0.043 H 
BRANCH  37  40
ATOM     40  CBF KAF d          44.212  42.295  50.455  0.00  0.00    -0.056 A 
ATOM     41  CAO KAF d          44.711  42.157  51.739  0.00  0.00    -0.077 A 
ATOM     42  CAI KAF d          44.696  40.933  52.382  0.00  0.00    -0.082 A 
ATOM     43  H19 KAF d          45.120  43.022  52.248  0.00  0.00     0.084 H 
ATOM     44  CAG KAF d          44.174  39.826  51.737  0.00  0.00    -0.083 A 
ATOM     45  H20 KAF d          45.090  40.842  53.387  0.00  0.00     0.083 H 
ATOM     46  CAJ KAF d          43.673  39.948  50.454  0.00  0.00    -0.082 A 
ATOM     47  H21 KAF d          44.158  38.863  52.236  0.00  0.00     0.083 H 
ATOM     48  CAP KAF d          43.694  41.178  49.821  0.00  0.00    -0.077 A 
ATOM     49  H22 KAF d          43.265  39.082  49.945  0.00  0.00     0.083 H 
ATOM     50  H23 KAF d          43.299  41.268  48.815  0.00  0.00     0.084 H 
ENDBRANCH  37  40
ENDBRANCH  35  37
BRANCH  35  51
ATOM     51  NBA KAF d          46.372  44.765  49.930  0.00  0.00    -0.347 N 
ATOM     52  CBE KAF d          47.540  44.347  50.409  0.00  0.00     0.252 C 
ATOM     53  OAC KAF d          48.036  43.249  50.151  0.00  0.00    -0.268 OA
ATOM     54  H24 KAF d          46.048  45.679  50.172  0.00  0.00     0.163 HD
BRANCH  52  55
ATOM     55  CBG KAF d          48.269  45.350  51.303  0.00  0.00     0.032 A 
ATOM     56  CAR KAF d          48.056  46.709  51.145  0.00  0.00    -0.068 A 
ATOM     57  CAL KAF d          48.717  47.620  51.948  0.00  0.00    -0.082 A 
ATOM     58  H25 KAF d          47.368  47.061  50.386  0.00  0.00     0.085 H 
ATOM     59  CAH KAF d          49.600  47.182  52.918  0.00  0.00    -0.083 A 
ATOM     60  H26 KAF d          48.543  48.681  51.817  0.00  0.00     0.083 H 
ATOM     61  CAK KAF d          49.818  45.826  53.078  0.00  0.00    -0.082 A 
ATOM     62  H27 KAF d          50.116  47.896  53.548  0.00  0.00     0.083 H 
ATOM     63  CAQ KAF d          49.156  44.918  52.273  0.00  0.00    -0.068 A 
ATOM     64  H28 KAF d          50.510  45.475  53.835  0.00  0.00     0.083 H 
ATOM     65  H29 KAF d          49.333  43.856  52.403  0.00  0.00     0.085 H 
ENDBRANCH  52  55
ENDBRANCH  35  51
ENDBRANCH   1  35
TORSDOF 14
ENDMDL
MODEL 4
REMARK VINA RESULT:      -7.4      1.782      2.696
REMARK  14 active torsions:
REMARK  status: ('A' for Active; 'I' for Inactive)
REMARK    1  A    between atoms: CG_6  and  CB_7 
REMARK    2  A    between atoms: CB_7  and  CA_8 
REMARK    3  A    between atoms: CA_8  and  C_9 
REMARK    4  A    between atoms: CA_8  and  N_12 
REMARK       I    between atoms: N_12  and  CBC_13 
REMARK    5  A    between atoms: CBC_13  and  CAV_15 
REMARK    6  A    between atoms: CAV_15  and  CAW_16 
REMARK    7  A    between atoms: CAW_16  and  CBM_17 
REMARK    8  A    between atoms: CBM_17  and  OAE_18 
REMARK    9  A    between atoms: CBM_17  and  OAF_19 
REMARK   10  A    between atoms: CBM_17  and  CBL_20 
REMARK   11  A    between atoms: CBL_20  and  CAX_21 
REMARK   12  A    between atoms: CBL_20  and  NBA_28 
REMARK   13  A    between atoms: CAX_21  and  CBF_22 
REMARK       I    between atoms: NBA_28  and  CBE_29 
REMARK   14  A    between atoms: CBE_29  and  CBG_31 
ROOT
ATOM      1  CBM KAF d          45.333  45.517  47.245  0.00  0.00     0.180 C 
ENDROOT
BRANCH   1   2
ATOM      2  CAW KAF d          45.929  46.798  46.655  0.00  0.00    -0.003 C 
ATOM      3  H12 KAF d          45.300  47.652  46.947  0.00  0.00     0.041 H 
ATOM      4  H13 KAF d          46.945  46.937  47.055  0.00  0.00     0.041 H 
BRANCH   2   5
ATOM      5  CAV KAF d          46.002  46.733  45.118  0.00  0.00     0.014 C 
ATOM      6  H10 KAF d          47.053  46.742  44.795  0.00  0.00     0.047 H 
ATOM      7  H11 KAF d          45.517  45.813  44.762  0.00  0.00     0.047 H 
BRANCH   5   8
ATOM      8  CBC KAF d          45.278  47.950  44.550  0.00  0.00     0.218 C 
ATOM      9  N   KAF d          44.891  47.875  43.280  0.00  0.00    -0.346 N 
ATOM     10  H9  KAF d          45.088  47.049  42.752  0.00  0.00     0.163 HD
ATOM     11  OAA KAF d          45.057  48.929  45.261  0.00  0.00    -0.274 OA
BRANCH   9  12
ATOM     12  CA  KAF d          44.184  48.981  42.645  0.00  0.00     0.100 C 
ATOM     13  H8  KAF d          44.329  49.881  43.261  0.00  0.00     0.090 H 
BRANCH  12  14
ATOM     14  CB  KAF d          44.748  49.262  41.249  0.00  0.00    -0.013 C 
ATOM     15  H6  KAF d          43.921  49.596  40.606  0.00  0.00     0.043 H 
ATOM     16  H7  KAF d          45.493  50.066  41.336  0.00  0.00     0.043 H 
BRANCH  14  17
ATOM     17  CG  KAF d          45.408  48.085  40.587  0.00  0.00    -0.056 A 
ATOM     18  CD1 KAF d          44.708  47.309  39.678  0.00  0.00    -0.077 A 
ATOM     19  CE1 KAF d          45.294  46.211  39.074  0.00  0.00    -0.082 A 
ATOM     20  H1  KAF d          43.684  47.567  39.435  0.00  0.00     0.084 H 
ATOM     21  CZ  KAF d          46.602  45.879  39.379  0.00  0.00    -0.083 A 
ATOM     22  H2  KAF d          44.732  45.613  38.366  0.00  0.00     0.083 H 
ATOM     23  CE2 KAF d          47.313  46.646  40.285  0.00  0.00    -0.082 A 
ATOM     24  H3  KAF d          47.069  45.020  38.910  0.00  0.00     0.083 H 
ATOM     25  CD2 KAF d          46.716  47.741  40.882  0.00  0.00    -0.077 A 
ATOM     26  H4  KAF d          48.338  46.388  40.527  0.00  0.00     0.083 H 
ATOM     27  H5  KAF d          47.280  48.338  41.590  0.00  0.00     0.084 H 
ENDBRANCH  14  17
ENDBRANCH  12  14
BRANCH  12  28
ATOM     28  C   KAF d          42.690  48.687  42.568  0.00  0.00     0.197 C 
ATOM     29  O   KAF d          42.055  48.660  43.643  0.00  0.00    -0.646 OA
ATOM     30  OXT KAF d          42.169  48.513  41.445  0.00  0.00    -0.646 OA
ENDBRANCH  12  28
ENDBRANCH   9  12
ENDBRANCH   5   8
ENDBRANCH   2   5
ENDBRANCH   1   2
BRANCH   1  31
ATOM     31  OAE KAF d          45.574  44.409  46.370  0.00  0.00    -0.364 OA
ATOM     32  H14 KAF d          45.812  43.646  46.885  0.00  0.00     0.213 HD
ENDBRANCH   1  31
BRANCH   1  33
ATOM     33  OAF KAF d          43.920  45.703  47.374  0.00  0.00    -0.364 OA
ATOM     34  H15 KAF d          43.665  46.504  46.932  0.00  0.00     0.213 HD
ENDBRANCH   1  33
BRANCH   1  35
ATOM     35  CBL KAF d          45.911  45.242  48.637  0.00  0.00     0.070 C 
ATOM     36  H16 KAF d          45.677  46.110  49.269  0.00  0.00     0.081 H 
BRANCH  35  37
ATOM     37  CAX KAF d          47.443  45.075  48.603  0.00  0.00    -0.017 C 
ATOM     38  H17 KAF d          47.859  45.776  47.865  0.00  0.00     0.043 H 
ATOM     39  H18 KAF d          47.680  44.043  48.304  0.00  0.00     0.043 H 
BRANCH  37  40
ATOM     40  CBF KAF d          48.075  45.348  49.940  0.00  0.00    -0.056 A 
ATOM     41  CAO KAF d          48.101  46.629  50.463  0.00  0.00    -0.077 A 
ATOM     42  CAI KAF d          48.663  46.882  51.700  0.00  0.00    -0.082 A 
ATOM     43  H19 KAF d          47.675  47.447  49.893  0.00  0.00     0.084 H 
ATOM     44  CAG KAF d          49.209  45.842  52.432  0.00  0.00    -0.083 A 
ATOM     45  H20 KAF d          48.676  47.891  52.096  0.00  0.00     0.083 H 
ATOM     46  CAJ KAF d          49.191  44.558  51.922  0.00  0.00    -0.082 A 
ATOM     47  H21 KAF d          49.650  46.035  53.404  0.00  0.00     0.083 H 
ATOM     48  CAP KAF d          48.626  44.317  50.683  0.00  0.00    -0.077 A 
ATOM     49  H22 KAF d          49.619  43.741  52.492  0.00  0.00     0.083 H 
ATOM     50  H23 KAF d          48.614  43.307  50.288  0.00  0.00     0.084 H 
ENDBRANCH  37  40
ENDBRANCH  35  37
BRANCH  35  51
ATOM     51  NBA KAF d          45.315  44.061  49.253  0.00  0.00    -0.347 N 
ATOM     52  CBE KAF d          45.695  42.828  48.928  0.00  0.00     0.252 C 
ATOM     53  OAC KAF d          46.582  42.576  48.111  0.00  0.00    -0.268 OA
ATOM     54  H24 KAF d          44.600  44.182  49.941  0.00  0.00     0.163 HD
BRANCH  52  55
ATOM     55  CBG KAF d          44.964  41.709  49.669  0.00  0.00     0.032 A 
ATOM     56  CAR KAF d          45.626  40.538  49.992  0.00  0.00    -0.068 A 
ATOM     57  CAL KAF d          44.967  39.521  50.658  0.00  0.00    -0.082 A 
ATOM     58  H25 KAF d          46.668  40.416  49.721  0.00  0.00     0.085 H 
ATOM     59  CAH KAF d          43.637  39.664  51.007  0.00  0.00    -0.083 A 
ATOM     60  H26 KAF d          45.495  38.608  50.907  0.00  0.00     0.083 H 
ATOM     61  CAK KAF d          42.970  40.831  50.683  0.00  0.00    -0.082 A 
ATOM     62  H27 KAF d          43.121  38.867  51.530  0.00  0.00     0.083 H 
ATOM     63  CAQ KAF d          43.631  41.846  50.018  0.00  0.00    -0.068 A 
ATOM     64  H28 KAF d          41.926  40.950  50.952  0.00  0.00     0.083 H 
ATOM     65  H29 KAF d          43.101  42.757  49.766  0.00  0.00     0.085 H 
ENDBRANCH  52  55
ENDBRANCH  35  51
ENDBRANCH   1  35
TORSDOF 14
ENDMDL
