MODEL 1
REMARK VINA RESULT:      -8.5      0.000      0.000
REMARK  10 active torsions:
REMARK  status: ('A' for Active; 'I' for Inactive)
REMARK    1  A    between atoms: C10_2  and  C11_3 
REMARK    2  A    between atoms: C10_2  and  C9_13 
REMARK    3  A    between atoms: C14_6  and  C17_7 
REMARK    4  A    between atoms: C17_7  and  C18_8 
REMARK    5  A    between atoms: C17_7  and  C19_9 
REMARK    6  A    between atoms: C17_7  and  C20_10 
REMARK    7  A    between atoms: C9_13  and  C5_14 
REMARK    8  A    between atoms: C2_17  and  O2_18 
REMARK    9  A    between atoms: C1_19  and  O1_20 
REMARK   10  A    between atoms: C8_22  and  O8_23 
ROOT
ATOM      1  C9  HN4 d          28.138  66.476   8.454  0.00  0.00     0.022 C 
ATOM      2  H14 HN4 d          28.464  66.727   9.475  0.00  0.00     0.048 H 
ATOM      3  H15 HN4 d          28.152  67.383   7.831  0.00  0.00     0.048 H 
ENDROOT
BRANCH   1   4
ATOM      4  C10 HN4 d          26.705  65.953   8.517  0.00  0.00     0.161 C 
ATOM      5  O10 HN4 d          26.319  64.950   7.918  0.00  0.00    -0.292 OA
BRANCH   4   6
ATOM      6  C11 HN4 d          25.699  66.753   9.291  0.00  0.00     0.010 A 
ATOM      7  C12 HN4 d          26.103  67.764  10.162  0.00  0.00    -0.069 A 
ATOM      8  C13 HN4 d          25.155  68.517  10.861  0.00  0.00    -0.075 A 
ATOM      9  H1  HN4 d          27.159  67.967  10.298  0.00  0.00     0.085 H 
ATOM     10  C14 HN4 d          23.787  68.258  10.703  0.00  0.00    -0.051 A 
ATOM     11  H2  HN4 d          25.481  69.306  11.530  0.00  0.00     0.084 H 
ATOM     12  C15 HN4 d          23.393  67.245   9.827  0.00  0.00    -0.075 A 
ATOM     13  C16 HN4 d          24.335  66.488   9.127  0.00  0.00    -0.069 A 
ATOM     14  H12 HN4 d          22.338  67.043   9.688  0.00  0.00     0.084 H 
ATOM     15  H13 HN4 d          24.010  65.698   8.460  0.00  0.00     0.085 H 
BRANCH  10  16
ATOM     16  C17 HN4 d          22.778  69.090  11.479  0.00  0.00    -0.024 C 
BRANCH  16  17
ATOM     17  C18 HN4 d          23.091  70.574  11.275  0.00  0.00    -0.066 C 
ATOM     18  H3  HN4 d          22.168  71.161  11.382  0.00  0.00     0.028 H 
ATOM     19  H4  HN4 d          23.509  70.725  10.268  0.00  0.00     0.028 H 
ATOM     20  H5  HN4 d          23.823  70.901  12.028  0.00  0.00     0.028 H 
ENDBRANCH  16  17
BRANCH  16  21
ATOM     21  C19 HN4 d          21.351  68.888  10.956  0.00  0.00    -0.066 C 
ATOM     22  H6  HN4 d          20.736  69.758  11.226  0.00  0.00     0.028 H 
ATOM     23  H7  HN4 d          20.921  67.981  11.406  0.00  0.00     0.028 H 
ATOM     24  H8  HN4 d          21.373  68.780   9.862  0.00  0.00     0.028 H 
ENDBRANCH  16  21
BRANCH  16  25
ATOM     25  C20 HN4 d          22.871  68.712  12.957  0.00  0.00    -0.066 C 
ATOM     26  H9  HN4 d          23.081  69.613  13.554  0.00  0.00     0.028 H 
ATOM     27  H10 HN4 d          23.682  67.982  13.099  0.00  0.00     0.028 H 
ATOM     28  H11 HN4 d          21.918  68.270  13.284  0.00  0.00     0.028 H 
ENDBRANCH  16  25
ENDBRANCH  10  16
ENDBRANCH   4   6
ENDBRANCH   1   4
BRANCH   1  29
ATOM     29  C5  HN4 d          29.123  65.467   7.864  0.00  0.00     0.111 C 
ATOM     30  N4  HN4 d          30.530  65.732   8.277  0.00  0.00    -0.055 N 
ATOM     31  C3  HN4 d          30.790  65.844   9.739  0.00  0.00     0.110 C 
ATOM     32  C8A HN4 d          31.127  66.980   7.708  0.00  0.00     0.155 C 
ATOM     33  H17 HN4 d          31.062  64.949   7.933  0.00  0.00     0.281 HD
ATOM     34  C2  HN4 d          32.213  66.427   9.778  0.00  0.00     0.085 C 
ATOM     35  H18 HN4 d          30.751  64.859  10.226  0.00  0.00     0.080 H 
ATOM     36  H19 HN4 d          30.069  66.520  10.222  0.00  0.00     0.080 H 
ATOM     37  C1  HN4 d          32.488  67.048   8.401  0.00  0.00     0.092 C 
ATOM     38  H20 HN4 d          32.271  67.208  10.551  0.00  0.00     0.089 H 
ATOM     39  H22 HN4 d          32.816  68.094   8.500  0.00  0.00     0.090 H 
ATOM     40  C8  HN4 d          31.108  66.962   6.188  0.00  0.00     0.066 C 
ATOM     41  H24 HN4 d          30.534  67.852   8.023  0.00  0.00     0.093 H 
ATOM     42  C7  HN4 d          29.681  66.698   5.683  0.00  0.00    -0.037 C 
ATOM     43  H25 HN4 d          31.776  66.165   5.828  0.00  0.00     0.086 H 
ATOM     44  C6  HN4 d          29.103  65.427   6.321  0.00  0.00    -0.035 C 
ATOM     45  H27 HN4 d          29.701  66.575   4.590  0.00  0.00     0.036 H 
ATOM     46  H28 HN4 d          29.042  67.554   5.944  0.00  0.00     0.036 H 
ATOM     47  H29 HN4 d          28.062  65.307   5.986  0.00  0.00     0.036 H 
ATOM     48  H30 HN4 d          29.696  64.565   5.985  0.00  0.00     0.036 H 
ATOM     49  H16 HN4 d          28.834  64.473   8.239  0.00  0.00     0.085 H 
BRANCH  34  50
ATOM     50  O2  HN4 d          33.180  65.400  10.080  0.00  0.00    -0.391 OA
ATOM     51  H21 HN4 d          33.905  65.460   9.469  0.00  0.00     0.210 HD
ENDBRANCH  34  50
BRANCH  37  52
ATOM     52  O1  HN4 d          33.517  66.294   7.705  0.00  0.00    -0.391 OA
ATOM     53  H23 HN4 d          33.196  65.419   7.521  0.00  0.00     0.210 HD
ENDBRANCH  37  52
BRANCH  40  54
ATOM     54  O8  HN4 d          31.551  68.218   5.681  0.00  0.00    -0.393 OA
ATOM     55  H26 HN4 d          31.366  68.266   4.751  0.00  0.00     0.210 HD
ENDBRANCH  40  54
ENDBRANCH   1  29
TORSDOF 10
ENDMDL
MODEL 2
REMARK VINA RESULT:      -7.3      1.215      1.492
REMARK  10 active torsions:
REMARK  status: ('A' for Active; 'I' for Inactive)
REMARK    1  A    between atoms: C10_2  and  C11_3 
REMARK    2  A    between atoms: C10_2  and  C9_13 
REMARK    3  A    between atoms: C14_6  and  C17_7 
REMARK    4  A    between atoms: C17_7  and  C18_8 
REMARK    5  A    between atoms: C17_7  and  C19_9 
REMARK    6  A    between atoms: C17_7  and  C20_10 
REMARK    7  A    between atoms: C9_13  and  C5_14 
REMARK    8  A    between atoms: C2_17  and  O2_18 
REMARK    9  A    between atoms: C1_19  and  O1_20 
REMARK   10  A    between atoms: C8_22  and  O8_23 
ROOT
ATOM      1  C9  HN4 d          28.314  66.742   8.761  0.00  0.00     0.022 C 
ATOM      2  H14 HN4 d          28.902  67.666   8.861  0.00  0.00     0.048 H 
ATOM      3  H15 HN4 d          27.452  66.926   8.102  0.00  0.00     0.048 H 
ENDROOT
BRANCH   1   4
ATOM      4  C10 HN4 d          27.793  66.346  10.141  0.00  0.00     0.161 C 
ATOM      5  O10 HN4 d          28.417  65.635  10.926  0.00  0.00    -0.292 OA
BRANCH   4   6
ATOM      6  C11 HN4 d          26.412  66.789  10.524  0.00  0.00     0.010 A 
ATOM      7  C12 HN4 d          25.527  67.286   9.567  0.00  0.00    -0.069 A 
ATOM      8  C13 HN4 d          24.235  67.676   9.933  0.00  0.00    -0.075 A 
ATOM      9  H1  HN4 d          25.843  67.372   8.534  0.00  0.00     0.085 H 
ATOM     10  C14 HN4 d          23.816  67.581  11.267  0.00  0.00    -0.051 A 
ATOM     11  H2  HN4 d          23.553  68.053   9.180  0.00  0.00     0.084 H 
ATOM     12  C15 HN4 d          24.709  67.081  12.216  0.00  0.00    -0.075 A 
ATOM     13  C16 HN4 d          26.002  66.692  11.858  0.00  0.00    -0.069 A 
ATOM     14  H12 HN4 d          24.394  66.993  13.249  0.00  0.00     0.084 H 
ATOM     15  H13 HN4 d          26.685  66.316  12.611  0.00  0.00     0.085 H 
BRANCH  10  16
ATOM     16  C17 HN4 d          22.407  68.016  11.637  0.00  0.00    -0.024 C 
BRANCH  16  17
ATOM     17  C18 HN4 d          22.479  69.020  12.790  0.00  0.00    -0.066 C 
ATOM     18  H3  HN4 d          21.777  68.720  13.582  0.00  0.00     0.028 H 
ATOM     19  H4  HN4 d          22.211  70.021  12.421  0.00  0.00     0.028 H 
ATOM     20  H5  HN4 d          23.502  69.040  13.195  0.00  0.00     0.028 H 
ENDBRANCH  16  17
BRANCH  16  21
ATOM     21  C19 HN4 d          21.717  68.752  10.484  0.00  0.00    -0.066 C 
ATOM     22  H6  HN4 d          20.934  68.110  10.055  0.00  0.00     0.028 H 
ATOM     23  H7  HN4 d          22.458  68.994   9.708  0.00  0.00     0.028 H 
ATOM     24  H8  HN4 d          21.263  69.680  10.860  0.00  0.00     0.028 H 
ENDBRANCH  16  21
BRANCH  16  25
ATOM     25  C20 HN4 d          21.608  66.777  12.044  0.00  0.00    -0.066 C 
ATOM     26  H9  HN4 d          20.539  67.032  12.098  0.00  0.00     0.028 H 
ATOM     27  H10 HN4 d          21.951  66.426  13.028  0.00  0.00     0.028 H 
ATOM     28  H11 HN4 d          21.758  65.983  11.298  0.00  0.00     0.028 H 
ENDBRANCH  16  25
ENDBRANCH  10  16
ENDBRANCH   4   6
ENDBRANCH   1   4
BRANCH   1  29
ATOM     29  C5  HN4 d          29.196  65.671   8.120  0.00  0.00     0.111 C 
ATOM     30  N4  HN4 d          30.645  65.891   8.385  0.00  0.00    -0.055 N 
ATOM     31  C3  HN4 d          31.051  66.043   9.811  0.00  0.00     0.110 C 
ATOM     32  C8A HN4 d          31.233  67.090   7.714  0.00  0.00     0.155 C 
ATOM     33  H17 HN4 d          31.111  65.074   8.023  0.00  0.00     0.281 HD
ATOM     34  C2  HN4 d          32.493  66.565   9.690  0.00  0.00     0.085 C 
ATOM     35  H18 HN4 d          31.020  65.078  10.338  0.00  0.00     0.080 H 
ATOM     36  H19 HN4 d          30.407  66.766  10.333  0.00  0.00     0.080 H 
ATOM     37  C1  HN4 d          32.657  67.124   8.270  0.00  0.00     0.092 C 
ATOM     38  H20 HN4 d          32.656  67.369  10.423  0.00  0.00     0.089 H 
ATOM     39  H22 HN4 d          33.033  68.158   8.295  0.00  0.00     0.090 H 
ATOM     40  C8  HN4 d          31.066  67.020   6.204  0.00  0.00     0.066 C 
ATOM     41  H24 HN4 d          30.709  67.998   8.049  0.00  0.00     0.093 H 
ATOM     42  C7  HN4 d          29.587  66.800   5.849  0.00  0.00    -0.037 C 
ATOM     43  H25 HN4 d          31.664  66.183   5.813  0.00  0.00     0.086 H 
ATOM     44  C6  HN4 d          29.024  65.578   6.589  0.00  0.00    -0.035 C 
ATOM     45  H27 HN4 d          29.496  66.638   4.765  0.00  0.00     0.036 H 
ATOM     46  H28 HN4 d          29.011  67.692   6.135  0.00  0.00     0.036 H 
ATOM     47  H29 HN4 d          27.951  65.492   6.360  0.00  0.00     0.036 H 
ATOM     48  H30 HN4 d          29.548  64.680   6.231  0.00  0.00     0.036 H 
ATOM     49  H16 HN4 d          28.905  64.705   8.559  0.00  0.00     0.085 H 
BRANCH  34  50
ATOM     50  O2  HN4 d          33.443  65.509   9.938  0.00  0.00    -0.391 OA
ATOM     51  H21 HN4 d          33.346  65.200  10.831  0.00  0.00     0.210 HD
ENDBRANCH  34  50
BRANCH  37  52
ATOM     52  O1  HN4 d          33.582  66.303   7.509  0.00  0.00    -0.391 OA
ATOM     53  H23 HN4 d          33.163  66.017   6.706  0.00  0.00     0.210 HD
ENDBRANCH  37  52
BRANCH  40  54
ATOM     54  O8  HN4 d          31.507  68.237   5.608  0.00  0.00    -0.393 OA
ATOM     55  H26 HN4 d          31.007  68.961   5.964  0.00  0.00     0.210 HD
ENDBRANCH  40  54
ENDBRANCH   1  29
TORSDOF 10
ENDMDL
MODEL 3
REMARK VINA RESULT:      -6.9      1.919      2.718
REMARK  10 active torsions:
REMARK  status: ('A' for Active; 'I' for Inactive)
REMARK    1  A    between atoms: C10_2  and  C11_3 
REMARK    2  A    between atoms: C10_2  and  C9_13 
REMARK    3  A    between atoms: C14_6  and  C17_7 
REMARK    4  A    between atoms: C17_7  and  C18_8 
REMARK    5  A    between atoms: C17_7  and  C19_9 
REMARK    6  A    between atoms: C17_7  and  C20_10 
REMARK    7  A    between atoms: C9_13  and  C5_14 
REMARK    8  A    between atoms: C2_17  and  O2_18 
REMARK    9  A    between atoms: C1_19  and  O1_20 
REMARK   10  A    between atoms: C8_22  and  O8_23 
ROOT
ATOM      1  C9  HN4 d          29.462  67.043  10.830  0.00  0.00     0.022 C 
ATOM      2  H14 HN4 d          30.398  67.430  11.260  0.00  0.00     0.048 H 
ATOM      3  H15 HN4 d          29.016  67.806  10.175  0.00  0.00     0.048 H 
ENDROOT
BRANCH   1   4
ATOM      4  C10 HN4 d          28.489  66.752  11.970  0.00  0.00     0.161 C 
ATOM      5  O10 HN4 d          28.827  66.258  13.045  0.00  0.00    -0.292 OA
BRANCH   4   6
ATOM      6  C11 HN4 d          27.031  67.013  11.732  0.00  0.00     0.010 A 
ATOM      7  C12 HN4 d          26.613  68.091  10.952  0.00  0.00    -0.069 A 
ATOM      8  C13 HN4 d          25.252  68.311  10.719  0.00  0.00    -0.075 A 
ATOM      9  H1  HN4 d          27.348  68.762  10.523  0.00  0.00     0.085 H 
ATOM     10  C14 HN4 d          24.290  67.457  11.276  0.00  0.00    -0.051 A 
ATOM     11  H2  HN4 d          24.939  69.147  10.105  0.00  0.00     0.084 H 
ATOM     12  C15 HN4 d          24.719  66.380  12.054  0.00  0.00    -0.075 A 
ATOM     13  C16 HN4 d          26.077  66.156  12.292  0.00  0.00    -0.069 A 
ATOM     14  H12 HN4 d          23.985  65.707  12.481  0.00  0.00     0.084 H 
ATOM     15  H13 HN4 d          26.390  65.321  12.908  0.00  0.00     0.085 H 
BRANCH  10  16
ATOM     16  C17 HN4 d          22.817  67.722  11.010  0.00  0.00    -0.024 C 
BRANCH  16  17
ATOM     17  C18 HN4 d          21.976  66.919  12.004  0.00  0.00    -0.066 C 
ATOM     18  H3  HN4 d          22.010  67.405  12.990  0.00  0.00     0.028 H 
ATOM     19  H4  HN4 d          22.380  65.898  12.085  0.00  0.00     0.028 H 
ATOM     20  H5  HN4 d          20.935  66.875  11.653  0.00  0.00     0.028 H 
ENDBRANCH  16  17
BRANCH  16  21
ATOM     21  C19 HN4 d          22.451  69.192  11.245  0.00  0.00    -0.066 C 
ATOM     22  H6  HN4 d          23.302  69.831  10.968  0.00  0.00     0.028 H 
ATOM     23  H7  HN4 d          22.210  69.344  12.308  0.00  0.00     0.028 H 
ATOM     24  H8  HN4 d          21.579  69.456  10.630  0.00  0.00     0.028 H 
ENDBRANCH  16  21
BRANCH  16  25
ATOM     25  C20 HN4 d          22.501  67.310   9.572  0.00  0.00    -0.066 C 
ATOM     26  H9  HN4 d          22.158  66.264   9.557  0.00  0.00     0.028 H 
ATOM     27  H10 HN4 d          23.407  67.407   8.955  0.00  0.00     0.028 H 
ATOM     28  H11 HN4 d          21.711  67.960   9.169  0.00  0.00     0.028 H 
ENDBRANCH  16  25
ENDBRANCH  10  16
ENDBRANCH   4   6
ENDBRANCH   1   4
BRANCH   1  29
ATOM     29  C5  HN4 d          29.788  65.810   9.987  0.00  0.00     0.111 C 
ATOM     30  N4  HN4 d          30.780  66.098   8.913  0.00  0.00    -0.055 N 
ATOM     31  C3  HN4 d          32.060  66.732   9.334  0.00  0.00     0.110 C 
ATOM     32  C8A HN4 d          30.281  66.987   7.819  0.00  0.00     0.155 C 
ATOM     33  H17 HN4 d          31.003  65.203   8.508  0.00  0.00     0.281 HD
ATOM     34  C2  HN4 d          32.669  67.171   7.991  0.00  0.00     0.085 C 
ATOM     35  H18 HN4 d          32.711  66.010   9.849  0.00  0.00     0.080 H 
ATOM     36  H19 HN4 d          31.880  67.596   9.991  0.00  0.00     0.080 H 
ATOM     37  C1  HN4 d          31.530  67.202   6.964  0.00  0.00     0.092 C 
ATOM     38  H20 HN4 d          33.100  68.178   8.094  0.00  0.00     0.089 H 
ATOM     39  H22 HN4 d          31.484  68.178   6.457  0.00  0.00     0.090 H 
ATOM     40  C8  HN4 d          29.053  66.399   7.141  0.00  0.00     0.066 C 
ATOM     41  H24 HN4 d          29.977  67.958   8.238  0.00  0.00     0.093 H 
ATOM     42  C7  HN4 d          27.976  66.079   8.190  0.00  0.00    -0.037 C 
ATOM     43  H25 HN4 d          29.338  65.474   6.617  0.00  0.00     0.086 H 
ATOM     44  C6  HN4 d          28.548  65.193   9.306  0.00  0.00    -0.035 C 
ATOM     45  H27 HN4 d          27.143  65.552   7.703  0.00  0.00     0.036 H 
ATOM     46  H28 HN4 d          27.610  67.019   8.628  0.00  0.00     0.036 H 
ATOM     47  H29 HN4 d          27.769  65.040  10.067  0.00  0.00     0.036 H 
ATOM     48  H30 HN4 d          28.832  64.223   8.873  0.00  0.00     0.036 H 
ATOM     49  H16 HN4 d          30.220  65.058  10.665  0.00  0.00     0.085 H 
BRANCH  34  50
ATOM     50  O2  HN4 d          33.709  66.260   7.578  0.00  0.00    -0.391 OA
ATOM     51  H21 HN4 d          33.928  66.424   6.669  0.00  0.00     0.210 HD
ENDBRANCH  34  50
BRANCH  37  52
ATOM     52  O1  HN4 d          31.721  66.161   5.968  0.00  0.00    -0.391 OA
ATOM     53  H23 HN4 d          31.204  65.401   6.203  0.00  0.00     0.210 HD
ENDBRANCH  37  52
BRANCH  40  54
ATOM     54  O8  HN4 d          28.521  67.331   6.204  0.00  0.00    -0.393 OA
ATOM     55  H26 HN4 d          28.536  68.202   6.582  0.00  0.00     0.210 HD
ENDBRANCH  40  54
ENDBRANCH   1  29
TORSDOF 10
ENDMDL
MODEL 4
REMARK VINA RESULT:      -6.4      1.669      3.221
REMARK  10 active torsions:
REMARK  status: ('A' for Active; 'I' for Inactive)
REMARK    1  A    between atoms: C10_2  and  C11_3 
REMARK    2  A    between atoms: C10_2  and  C9_13 
REMARK    3  A    between atoms: C14_6  and  C17_7 
REMARK    4  A    between atoms: C17_7  and  C18_8 
REMARK    5  A    between atoms: C17_7  and  C19_9 
REMARK    6  A    between atoms: C17_7  and  C20_10 
REMARK    7  A    between atoms: C9_13  and  C5_14 
REMARK    8  A    between atoms: C2_17  and  O2_18 
REMARK    9  A    between atoms: C1_19  and  O1_20 
REMARK   10  A    between atoms: C8_22  and  O8_23 
ROOT
ATOM      1  C9  HN4 d          27.720  65.579   8.564  0.00  0.00     0.022 C 
ATOM      2  H14 HN4 d          28.181  65.085   7.695  0.00  0.00     0.048 H 
ATOM      3  H15 HN4 d          27.843  64.945   9.455  0.00  0.00     0.048 H 
ENDROOT
BRANCH   1   4
ATOM      4  C10 HN4 d          26.227  65.746   8.290  0.00  0.00     0.161 C 
ATOM      5  O10 HN4 d          25.748  65.849   7.162  0.00  0.00    -0.292 OA
BRANCH   4   6
ATOM      6  C11 HN4 d          25.307  65.869   9.469  0.00  0.00     0.010 A 
ATOM      7  C12 HN4 d          25.339  64.935  10.504  0.00  0.00    -0.069 A 
ATOM      8  C13 HN4 d          24.492  65.072  11.608  0.00  0.00    -0.075 A 
ATOM      9  H1  HN4 d          26.024  64.097  10.453  0.00  0.00     0.085 H 
ATOM     10  C14 HN4 d          23.592  66.145  11.683  0.00  0.00    -0.051 A 
ATOM     11  H2  HN4 d          24.531  64.344  12.410  0.00  0.00     0.084 H 
ATOM     12  C15 HN4 d          23.570  67.075  10.643  0.00  0.00    -0.075 A 
ATOM     13  C16 HN4 d          24.412  66.943   9.536  0.00  0.00    -0.069 A 
ATOM     14  H12 HN4 d          22.887  67.915  10.695  0.00  0.00     0.084 H 
ATOM     15  H13 HN4 d          24.373  67.669   8.733  0.00  0.00     0.085 H 
BRANCH  10  16
ATOM     16  C17 HN4 d          22.680  66.267  12.893  0.00  0.00    -0.024 C 
BRANCH  16  17
ATOM     17  C18 HN4 d          22.652  64.929  13.635  0.00  0.00    -0.066 C 
ATOM     18  H3  HN4 d          22.033  64.212  13.075  0.00  0.00     0.028 H 
ATOM     19  H4  HN4 d          22.227  65.075  14.640  0.00  0.00     0.028 H 
ATOM     20  H5  HN4 d          23.676  64.537  13.724  0.00  0.00     0.028 H 
ENDBRANCH  16  17
BRANCH  16  21
ATOM     21  C19 HN4 d          23.207  67.294  13.902  0.00  0.00    -0.066 C 
ATOM     22  H6  HN4 d          22.947  68.307  13.563  0.00  0.00     0.028 H 
ATOM     23  H7  HN4 d          24.300  67.203  13.981  0.00  0.00     0.028 H 
ATOM     24  H8  HN4 d          22.752  67.108  14.886  0.00  0.00     0.028 H 
ENDBRANCH  16  21
BRANCH  16  25
ATOM     25  C20 HN4 d          21.281  66.651  12.411  0.00  0.00    -0.066 C 
ATOM     26  H9  HN4 d          21.328  66.951  11.353  0.00  0.00     0.028 H 
ATOM     27  H10 HN4 d          20.903  67.491  13.013  0.00  0.00     0.028 H 
ATOM     28  H11 HN4 d          20.606  65.790  12.519  0.00  0.00     0.028 H 
ENDBRANCH  16  25
ENDBRANCH  10  16
ENDBRANCH   4   6
ENDBRANCH   1   4
BRANCH   1  29
ATOM     29  C5  HN4 d          28.440  66.905   8.807  0.00  0.00     0.111 C 
ATOM     30  N4  HN4 d          29.681  67.038   7.993  0.00  0.00    -0.055 N 
ATOM     31  C3  HN4 d          29.545  66.840   6.523  0.00  0.00     0.110 C 
ATOM     32  C8A HN4 d          30.790  66.112   8.380  0.00  0.00     0.155 C 
ATOM     33  H17 HN4 d          30.000  67.983   8.144  0.00  0.00     0.281 HD
ATOM     34  C2  HN4 d          31.010  66.724   6.068  0.00  0.00     0.085 C 
ATOM     35  H18 HN4 d          29.049  67.700   6.051  0.00  0.00     0.080 H 
ATOM     36  H19 HN4 d          28.983  65.923   6.296  0.00  0.00     0.080 H 
ATOM     37  C1  HN4 d          31.846  66.385   7.310  0.00  0.00     0.092 C 
ATOM     38  H20 HN4 d          31.103  65.913   5.330  0.00  0.00     0.089 H 
ATOM     39  H22 HN4 d          32.459  65.487   7.138  0.00  0.00     0.090 H 
ATOM     40  C8  HN4 d          31.191  66.303   9.834  0.00  0.00     0.066 C 
ATOM     41  H24 HN4 d          30.455  65.069   8.278  0.00  0.00     0.093 H 
ATOM     42  C7  HN4 d          29.958  66.172  10.742  0.00  0.00    -0.037 C 
ATOM     43  H25 HN4 d          31.632  67.303   9.959  0.00  0.00     0.086 H 
ATOM     44  C6  HN4 d          28.840  67.119  10.282  0.00  0.00    -0.035 C 
ATOM     45  H27 HN4 d          30.241  66.424  11.775  0.00  0.00     0.036 H 
ATOM     46  H28 HN4 d          29.591  65.136  10.705  0.00  0.00     0.036 H 
ATOM     47  H29 HN4 d          27.955  66.950  10.914  0.00  0.00     0.036 H 
ATOM     48  H30 HN4 d          29.185  68.155  10.405  0.00  0.00     0.036 H 
ATOM     49  H16 HN4 d          27.747  67.709   8.517  0.00  0.00     0.085 H 
BRANCH  34  50
ATOM     50  O2  HN4 d          31.459  67.955   5.466  0.00  0.00    -0.391 OA
ATOM     51  H21 HN4 d          32.344  68.143   5.755  0.00  0.00     0.210 HD
ENDBRANCH  34  50
BRANCH  37  52
ATOM     52  O1  HN4 d          32.720  67.497   7.646  0.00  0.00    -0.391 OA
ATOM     53  H23 HN4 d          32.561  68.215   7.046  0.00  0.00     0.210 HD
ENDBRANCH  37  52
BRANCH  40  54
ATOM     54  O8  HN4 d          32.146  65.314  10.209  0.00  0.00    -0.393 OA
ATOM     55  H26 HN4 d          32.274  64.710   9.488  0.00  0.00     0.210 HD
ENDBRANCH  40  54
ENDBRANCH   1  29
TORSDOF 10
ENDMDL
MODEL 5
REMARK VINA RESULT:      -5.9      1.786      3.331
REMARK  10 active torsions:
REMARK  status: ('A' for Active; 'I' for Inactive)
REMARK    1  A    between atoms: C10_2  and  C11_3 
REMARK    2  A    between atoms: C10_2  and  C9_13 
REMARK    3  A    between atoms: C14_6  and  C17_7 
REMARK    4  A    between atoms: C17_7  and  C18_8 
REMARK    5  A    between atoms: C17_7  and  C19_9 
REMARK    6  A    between atoms: C17_7  and  C20_10 
REMARK    7  A    between atoms: C9_13  and  C5_14 
REMARK    8  A    between atoms: C2_17  and  O2_18 
REMARK    9  A    between atoms: C1_19  and  O1_20 
REMARK   10  A    between atoms: C8_22  and  O8_23 
ROOT
ATOM      1  C9  HN4 d          26.754  64.856  10.171  0.00  0.00     0.022 C 
ATOM      2  H14 HN4 d          27.187  64.261   9.353  0.00  0.00     0.048 H 
ATOM      3  H15 HN4 d          27.070  64.437  11.138  0.00  0.00     0.048 H 
ENDROOT
BRANCH   1   4
ATOM      4  C10 HN4 d          25.232  64.773  10.079  0.00  0.00     0.161 C 
ATOM      5  O10 HN4 d          24.634  63.880   9.482  0.00  0.00    -0.292 OA
BRANCH   4   6
ATOM      6  C11 HN4 d          24.431  65.885  10.687  0.00  0.00     0.010 A 
ATOM      7  C12 HN4 d          24.241  65.962  12.066  0.00  0.00    -0.069 A 
ATOM      8  C13 HN4 d          23.510  67.017  12.623  0.00  0.00    -0.075 A 
ATOM      9  H1  HN4 d          24.662  65.201  12.712  0.00  0.00     0.085 H 
ATOM     10  C14 HN4 d          22.949  68.003  11.800  0.00  0.00    -0.051 A 
ATOM     11  H2  HN4 d          23.376  67.071  13.697  0.00  0.00     0.084 H 
ATOM     12  C15 HN4 d          23.147  67.918  10.421  0.00  0.00    -0.075 A 
ATOM     13  C16 HN4 d          23.874  66.867   9.858  0.00  0.00    -0.069 A 
ATOM     14  H12 HN4 d          22.728  68.681   9.776  0.00  0.00     0.084 H 
ATOM     15  H13 HN4 d          24.007  66.811   8.784  0.00  0.00     0.085 H 
BRANCH  10  16
ATOM     16  C17 HN4 d          22.156  69.136  12.432  0.00  0.00    -0.024 C 
BRANCH  16  17
ATOM     17  C18 HN4 d          23.129  70.190  12.967  0.00  0.00    -0.066 C 
ATOM     18  H3  HN4 d          22.586  70.893  13.616  0.00  0.00     0.028 H 
ATOM     19  H4  HN4 d          23.576  70.737  12.124  0.00  0.00     0.028 H 
ATOM     20  H5  HN4 d          23.923  69.695  13.547  0.00  0.00     0.028 H 
ENDBRANCH  16  17
BRANCH  16  21
ATOM     21  C19 HN4 d          21.279  69.860  11.405  0.00  0.00    -0.066 C 
ATOM     22  H6  HN4 d          21.787  69.867  10.430  0.00  0.00     0.028 H 
ATOM     23  H7  HN4 d          21.105  70.894  11.735  0.00  0.00     0.028 H 
ATOM     24  H8  HN4 d          20.316  69.337  11.312  0.00  0.00     0.028 H 
ENDBRANCH  16  21
BRANCH  16  25
ATOM     25  C20 HN4 d          21.302  68.560  13.562  0.00  0.00    -0.066 C 
ATOM     26  H9  HN4 d          21.156  69.326  14.338  0.00  0.00     0.028 H 
ATOM     27  H10 HN4 d          21.812  67.688  14.000  0.00  0.00     0.028 H 
ATOM     28  H11 HN4 d          20.325  68.251  13.163  0.00  0.00     0.028 H 
ENDBRANCH  16  25
ENDBRANCH  10  16
ENDBRANCH   4   6
ENDBRANCH   1   4
BRANCH   1  29
ATOM     29  C5  HN4 d          27.286  66.286  10.064  0.00  0.00     0.111 C 
ATOM     30  N4  HN4 d          28.106  66.501   8.839  0.00  0.00    -0.055 N 
ATOM     31  C3  HN4 d          27.478  66.135   7.539  0.00  0.00     0.110 C 
ATOM     32  C8A HN4 d          29.414  65.777   8.822  0.00  0.00     0.155 C 
ATOM     33  H17 HN4 d          28.298  67.490   8.815  0.00  0.00     0.281 HD
ATOM     34  C2  HN4 d          28.674  66.171   6.572  0.00  0.00     0.085 C 
ATOM     35  H18 HN4 d          26.710  66.867   7.248  0.00  0.00     0.080 H 
ATOM     36  H19 HN4 d          27.029  65.131   7.581  0.00  0.00     0.080 H 
ATOM     37  C1  HN4 d          29.948  66.078   7.422  0.00  0.00     0.092 C 
ATOM     38  H20 HN4 d          28.623  65.308   5.891  0.00  0.00     0.089 H 
ATOM     39  H22 HN4 d          30.594  65.258   7.074  0.00  0.00     0.090 H 
ATOM     40  C8  HN4 d          30.281  66.170  10.009  0.00  0.00     0.066 C 
ATOM     41  H24 HN4 d          29.241  64.694   8.901  0.00  0.00     0.093 H 
ATOM     42  C7  HN4 d          29.502  65.968  11.318  0.00  0.00    -0.037 C 
ATOM     43  H25 HN4 d          30.567  67.228   9.913  0.00  0.00     0.086 H 
ATOM     44  C6  HN4 d          28.155  66.703  11.270  0.00  0.00    -0.035 C 
ATOM     45  H27 HN4 d          30.097  66.361  12.156  0.00  0.00     0.036 H 
ATOM     46  H28 HN4 d          29.322  64.894  11.469  0.00  0.00     0.036 H 
ATOM     47  H29 HN4 d          27.602  66.483  12.195  0.00  0.00     0.036 H 
ATOM     48  H30 HN4 d          28.347  67.783  11.207  0.00  0.00     0.036 H 
ATOM     49  H16 HN4 d          26.414  66.955  10.020  0.00  0.00     0.085 H 
BRANCH  34  50
ATOM     50  O2  HN4 d          28.665  67.383   5.790  0.00  0.00    -0.391 OA
ATOM     51  H21 HN4 d          29.374  67.947   6.075  0.00  0.00     0.210 HD
ENDBRANCH  34  50
BRANCH  37  52
ATOM     52  O1  HN4 d          30.690  67.326   7.354  0.00  0.00    -0.391 OA
ATOM     53  H23 HN4 d          31.142  67.469   8.177  0.00  0.00     0.210 HD
ENDBRANCH  37  52
BRANCH  40  54
ATOM     54  O8  HN4 d          31.455  65.363  10.042  0.00  0.00    -0.393 OA
ATOM     55  H26 HN4 d          31.369  64.656   9.413  0.00  0.00     0.210 HD
ENDBRANCH  40  54
ENDBRANCH   1  29
TORSDOF 10
ENDMDL
MODEL 6
REMARK VINA RESULT:      -5.7      3.562      8.064
REMARK  10 active torsions:
REMARK  status: ('A' for Active; 'I' for Inactive)
REMARK    1  A    between atoms: C10_2  and  C11_3 
REMARK    2  A    between atoms: C10_2  and  C9_13 
REMARK    3  A    between atoms: C14_6  and  C17_7 
REMARK    4  A    between atoms: C17_7  and  C18_8 
REMARK    5  A    between atoms: C17_7  and  C19_9 
REMARK    6  A    between atoms: C17_7  and  C20_10 
REMARK    7  A    between atoms: C9_13  and  C5_14 
REMARK    8  A    between atoms: C2_17  and  O2_18 
REMARK    9  A    between atoms: C1_19  and  O1_20 
REMARK   10  A    between atoms: C8_22  and  O8_23 
ROOT
ATOM      1  C9  HN4 d          26.434  65.240  12.467  0.00  0.00     0.022 C 
ATOM      2  H14 HN4 d          26.262  64.293  13.001  0.00  0.00     0.048 H 
ATOM      3  H15 HN4 d          25.908  65.216  11.500  0.00  0.00     0.048 H 
ENDROOT
BRANCH   1   4
ATOM      4  C10 HN4 d          27.931  65.383  12.203  0.00  0.00     0.161 C 
ATOM      5  O10 HN4 d          28.784  65.358  13.088  0.00  0.00    -0.292 OA
BRANCH   4   6
ATOM      6  C11 HN4 d          28.372  65.645  10.793  0.00  0.00     0.010 A 
ATOM      7  C12 HN4 d          27.459  65.629   9.740  0.00  0.00    -0.069 A 
ATOM      8  C13 HN4 d          27.879  65.897   8.433  0.00  0.00    -0.075 A 
ATOM      9  H1  HN4 d          26.416  65.408   9.935  0.00  0.00     0.085 H 
ATOM     10  C14 HN4 d          29.226  66.174   8.165  0.00  0.00    -0.051 A 
ATOM     11  H2  HN4 d          27.158  65.889   7.624  0.00  0.00     0.084 H 
ATOM     12  C15 HN4 d          30.132  66.189   9.226  0.00  0.00    -0.075 A 
ATOM     13  C16 HN4 d          29.720  65.921  10.533  0.00  0.00    -0.069 A 
ATOM     14  H12 HN4 d          31.175  66.413   9.033  0.00  0.00     0.084 H 
ATOM     15  H13 HN4 d          30.440  65.927  11.343  0.00  0.00     0.085 H 
BRANCH  10  16
ATOM     16  C17 HN4 d          29.656  66.457   6.734  0.00  0.00    -0.024 C 
BRANCH  16  17
ATOM     17  C18 HN4 d          29.770  65.133   5.975  0.00  0.00    -0.066 C 
ATOM     18  H3  HN4 d          28.793  64.627   5.971  0.00  0.00     0.028 H 
ATOM     19  H4  HN4 d          30.515  64.491   6.468  0.00  0.00     0.028 H 
ATOM     20  H5  HN4 d          30.084  65.330   4.939  0.00  0.00     0.028 H 
ENDBRANCH  16  17
BRANCH  16  21
ATOM     21  C19 HN4 d          28.610  67.284   5.978  0.00  0.00    -0.066 C 
ATOM     22  H6  HN4 d          29.102  67.853   5.177  0.00  0.00     0.028 H 
ATOM     23  H7  HN4 d          28.120  67.980   6.675  0.00  0.00     0.028 H 
ATOM     24  H8  HN4 d          27.857  66.612   5.541  0.00  0.00     0.028 H 
ENDBRANCH  16  21
BRANCH  16  25
ATOM     25  C20 HN4 d          31.001  67.184   6.765  0.00  0.00    -0.066 C 
ATOM     26  H9  HN4 d          30.834  68.255   6.957  0.00  0.00     0.028 H 
ATOM     27  H10 HN4 d          31.508  67.060   5.797  0.00  0.00     0.028 H 
ATOM     28  H11 HN4 d          31.628  66.762   7.564  0.00  0.00     0.028 H 
ENDBRANCH  16  25
ENDBRANCH  10  16
ENDBRANCH   4   6
ENDBRANCH   1   4
BRANCH   1  29
ATOM     29  C5  HN4 d          25.858  66.382  13.305  0.00  0.00     0.111 C 
ATOM     30  N4  HN4 d          24.382  66.516  13.150  0.00  0.00    -0.055 N 
ATOM     31  C3  HN4 d          23.567  65.294  13.398  0.00  0.00     0.110 C 
ATOM     32  C8A HN4 d          23.931  66.983  11.803  0.00  0.00     0.155 C 
ATOM     33  H17 HN4 d          24.104  67.209  13.827  0.00  0.00     0.281 HD
ATOM     34  C2  HN4 d          22.190  65.697  12.844  0.00  0.00     0.085 C 
ATOM     35  H18 HN4 d          23.512  65.064  14.471  0.00  0.00     0.080 H 
ATOM     36  H19 HN4 d          23.976  64.427  12.857  0.00  0.00     0.080 H 
ATOM     37  C1  HN4 d          22.409  66.894  11.908  0.00  0.00     0.092 C 
ATOM     38  H20 HN4 d          21.762  64.859  12.275  0.00  0.00     0.089 H 
ATOM     39  H22 HN4 d          21.967  66.705  10.918  0.00  0.00     0.090 H 
ATOM     40  C8  HN4 d          24.538  68.332  11.450  0.00  0.00     0.066 C 
ATOM     41  H24 HN4 d          24.267  66.273  11.032  0.00  0.00     0.093 H 
ATOM     42  C7  HN4 d          26.068  68.271  11.581  0.00  0.00    -0.037 C 
ATOM     43  H25 HN4 d          24.142  69.096  12.137  0.00  0.00     0.086 H 
ATOM     44  C6  HN4 d          26.476  67.756  12.968  0.00  0.00    -0.035 C 
ATOM     45  H27 HN4 d          26.483  69.279  11.434  0.00  0.00     0.036 H 
ATOM     46  H28 HN4 d          26.468  67.594  10.812  0.00  0.00     0.036 H 
ATOM     47  H29 HN4 d          27.572  67.665  13.001  0.00  0.00     0.036 H 
ATOM     48  H30 HN4 d          26.147  68.483  13.724  0.00  0.00     0.036 H 
ATOM     49  H16 HN4 d          26.077  66.154  14.359  0.00  0.00     0.085 H 
BRANCH  34  50
ATOM     50  O2  HN4 d          21.287  66.042  13.915  0.00  0.00    -0.391 OA
ATOM     51  H21 HN4 d          21.325  65.372  14.587  0.00  0.00     0.210 HD
ENDBRANCH  34  50
BRANCH  37  52
ATOM     52  O1  HN4 d          21.808  68.091  12.472  0.00  0.00    -0.391 OA
ATOM     53  H23 HN4 d          22.350  68.410  13.184  0.00  0.00     0.210 HD
ENDBRANCH  37  52
BRANCH  40  54
ATOM     54  O8  HN4 d          24.203  68.681  10.110  0.00  0.00    -0.393 OA
ATOM     55  H26 HN4 d          24.921  69.165   9.721  0.00  0.00     0.210 HD
ENDBRANCH  40  54
ENDBRANCH   1  29
TORSDOF 10
ENDMDL
MODEL 7
REMARK VINA RESULT:      -5.6      3.529      8.171
REMARK  10 active torsions:
REMARK  status: ('A' for Active; 'I' for Inactive)
REMARK    1  A    between atoms: C10_2  and  C11_3 
REMARK    2  A    between atoms: C10_2  and  C9_13 
REMARK    3  A    between atoms: C14_6  and  C17_7 
REMARK    4  A    between atoms: C17_7  and  C18_8 
REMARK    5  A    between atoms: C17_7  and  C19_9 
REMARK    6  A    between atoms: C17_7  and  C20_10 
REMARK    7  A    between atoms: C9_13  and  C5_14 
REMARK    8  A    between atoms: C2_17  and  O2_18 
REMARK    9  A    between atoms: C1_19  and  O1_20 
REMARK   10  A    between atoms: C8_22  and  O8_23 
ROOT
ATOM      1  C9  HN4 d          26.748  65.924  12.876  0.00  0.00     0.022 C 
ATOM      2  H14 HN4 d          26.463  66.959  13.119  0.00  0.00     0.048 H 
ATOM      3  H15 HN4 d          26.560  65.278  13.747  0.00  0.00     0.048 H 
ENDROOT
BRANCH   1   4
ATOM      4  C10 HN4 d          28.242  65.893  12.563  0.00  0.00     0.161 C 
ATOM      5  O10 HN4 d          29.117  65.810  13.422  0.00  0.00    -0.292 OA
BRANCH   4   6
ATOM      6  C11 HN4 d          28.662  66.049  11.131  0.00  0.00     0.010 A 
ATOM      7  C12 HN4 d          28.504  67.265  10.465  0.00  0.00    -0.069 A 
ATOM      8  C13 HN4 d          28.919  67.404   9.137  0.00  0.00    -0.075 A 
ATOM      9  H1  HN4 d          28.057  68.107  10.981  0.00  0.00     0.085 H 
ATOM     10  C14 HN4 d          29.489  66.320   8.455  0.00  0.00    -0.051 A 
ATOM     11  H2  HN4 d          28.799  68.356   8.633  0.00  0.00     0.084 H 
ATOM     12  C15 HN4 d          29.643  65.109   9.131  0.00  0.00    -0.075 A 
ATOM     13  C16 HN4 d          29.229  64.962  10.456  0.00  0.00    -0.069 A 
ATOM     14  H12 HN4 d          30.093  64.267   8.617  0.00  0.00     0.084 H 
ATOM     15  H13 HN4 d          29.348  64.010  10.961  0.00  0.00     0.085 H 
BRANCH  10  16
ATOM     16  C17 HN4 d          29.927  66.499   7.010  0.00  0.00    -0.024 C 
BRANCH  16  17
ATOM     17  C18 HN4 d          29.786  65.164   6.276  0.00  0.00    -0.066 C 
ATOM     18  H3  HN4 d          30.445  65.159   5.395  0.00  0.00     0.028 H 
ATOM     19  H4  HN4 d          28.743  65.030   5.955  0.00  0.00     0.028 H 
ATOM     20  H5  HN4 d          30.071  64.343   6.951  0.00  0.00     0.028 H 
ENDBRANCH  16  17
BRANCH  16  21
ATOM     21  C19 HN4 d          29.026  67.486   6.259  0.00  0.00    -0.066 C 
ATOM     22  H6  HN4 d          28.035  67.035   6.107  0.00  0.00     0.028 H 
ATOM     23  H7  HN4 d          29.475  67.723   5.283  0.00  0.00     0.028 H 
ATOM     24  H8  HN4 d          28.922  68.409   6.848  0.00  0.00     0.028 H 
ENDBRANCH  16  21
BRANCH  16  25
ATOM     25  C20 HN4 d          31.380  66.976   6.998  0.00  0.00    -0.066 C 
ATOM     26  H9  HN4 d          32.022  66.205   7.450  0.00  0.00     0.028 H 
ATOM     27  H10 HN4 d          31.464  67.908   7.577  0.00  0.00     0.028 H 
ATOM     28  H11 HN4 d          31.698  67.158   5.962  0.00  0.00     0.028 H 
ENDBRANCH  16  25
ENDBRANCH  10  16
ENDBRANCH   4   6
ENDBRANCH   1   4
BRANCH   1  29
ATOM     29  C5  HN4 d          25.879  65.440  11.716  0.00  0.00     0.111 C 
ATOM     30  N4  HN4 d          24.681  66.300  11.503  0.00  0.00    -0.055 N 
ATOM     31  C3  HN4 d          24.923  67.760  11.332  0.00  0.00     0.110 C 
ATOM     32  C8A HN4 d          23.655  66.230  12.589  0.00  0.00     0.155 C 
ATOM     33  H17 HN4 d          24.256  65.962  10.654  0.00  0.00     0.281 HD
ATOM     34  C2  HN4 d          23.508  68.348  11.467  0.00  0.00     0.085 C 
ATOM     35  H18 HN4 d          25.353  67.978  10.344  0.00  0.00     0.080 H 
ATOM     36  H19 HN4 d          25.592  68.146  12.115  0.00  0.00     0.080 H 
ATOM     37  C1  HN4 d          22.641  67.292  12.164  0.00  0.00     0.092 C 
ATOM     38  H20 HN4 d          23.545  69.259  12.083  0.00  0.00     0.089 H 
ATOM     39  H22 HN4 d          22.138  67.716  13.046  0.00  0.00     0.090 H 
ATOM     40  C8  HN4 d          23.151  64.809  12.787  0.00  0.00     0.066 C 
ATOM     41  H24 HN4 d          24.104  66.543  13.544  0.00  0.00     0.093 H 
ATOM     42  C7  HN4 d          24.336  63.859  13.021  0.00  0.00    -0.037 C 
ATOM     43  H25 HN4 d          22.600  64.493  11.888  0.00  0.00     0.086 H 
ATOM     44  C6  HN4 d          25.372  63.993  11.896  0.00  0.00    -0.035 C 
ATOM     45  H27 HN4 d          23.967  62.823  13.048  0.00  0.00     0.036 H 
ATOM     46  H28 HN4 d          24.811  64.104  13.981  0.00  0.00     0.036 H 
ATOM     47  H29 HN4 d          26.231  63.347  12.131  0.00  0.00     0.036 H 
ATOM     48  H30 HN4 d          24.913  63.663  10.954  0.00  0.00     0.036 H 
ATOM     49  H16 HN4 d          26.498  65.478  10.807  0.00  0.00     0.085 H 
BRANCH  34  50
ATOM     50  O2  HN4 d          22.967  68.683  10.172  0.00  0.00    -0.391 OA
ATOM     51  H21 HN4 d          22.026  68.786  10.240  0.00  0.00     0.210 HD
ENDBRANCH  34  50
BRANCH  37  52
ATOM     52  O1  HN4 d          21.636  66.780  11.247  0.00  0.00    -0.391 OA
ATOM     53  H23 HN4 d          21.358  65.918  11.533  0.00  0.00     0.210 HD
ENDBRANCH  37  52
BRANCH  40  54
ATOM     54  O8  HN4 d          22.285  64.753  13.917  0.00  0.00    -0.393 OA
ATOM     55  H26 HN4 d          21.426  65.075  13.673  0.00  0.00     0.210 HD
ENDBRANCH  40  54
ENDBRANCH   1  29
TORSDOF 10
ENDMDL
MODEL 8
REMARK VINA RESULT:      -5.5      2.125      3.574
REMARK  10 active torsions:
REMARK  status: ('A' for Active; 'I' for Inactive)
REMARK    1  A    between atoms: C10_2  and  C11_3 
REMARK    2  A    between atoms: C10_2  and  C9_13 
REMARK    3  A    between atoms: C14_6  and  C17_7 
REMARK    4  A    between atoms: C17_7  and  C18_8 
REMARK    5  A    between atoms: C17_7  and  C19_9 
REMARK    6  A    between atoms: C17_7  and  C20_10 
REMARK    7  A    between atoms: C9_13  and  C5_14 
REMARK    8  A    between atoms: C2_17  and  O2_18 
REMARK    9  A    between atoms: C1_19  and  O1_20 
REMARK   10  A    between atoms: C8_22  and  O8_23 
ROOT
ATOM      1  C9  HN4 d          29.225  67.287  11.085  0.00  0.00     0.022 C 
ATOM      2  H14 HN4 d          30.210  67.720  11.315  0.00  0.00     0.048 H 
ATOM      3  H15 HN4 d          28.704  67.927  10.357  0.00  0.00     0.048 H 
ENDROOT
BRANCH   1   4
ATOM      4  C10 HN4 d          28.402  67.243  12.370  0.00  0.00     0.161 C 
ATOM      5  O10 HN4 d          28.779  66.692  13.402  0.00  0.00    -0.292 OA
BRANCH   4   6
ATOM      6  C11 HN4 d          27.026  67.842  12.343  0.00  0.00     0.010 A 
ATOM      7  C12 HN4 d          26.783  69.052  11.694  0.00  0.00    -0.069 A 
ATOM      8  C13 HN4 d          25.492  69.588  11.657  0.00  0.00    -0.075 A 
ATOM      9  H1  HN4 d          27.599  69.580  11.216  0.00  0.00     0.085 H 
ATOM     10  C14 HN4 d          24.428  68.921  12.280  0.00  0.00    -0.051 A 
ATOM     11  H2  HN4 d          25.313  70.525  11.143  0.00  0.00     0.084 H 
ATOM     12  C15 HN4 d          24.683  67.710  12.925  0.00  0.00    -0.075 A 
ATOM     13  C16 HN4 d          25.970  67.169  12.968  0.00  0.00    -0.069 A 
ATOM     14  H12 HN4 d          23.867  67.179  13.401  0.00  0.00     0.084 H 
ATOM     15  H13 HN4 d          26.150  66.233  13.483  0.00  0.00     0.085 H 
BRANCH  10  16
ATOM     16  C17 HN4 d          23.036  69.529  12.227  0.00  0.00    -0.024 C 
BRANCH  16  17
ATOM     17  C18 HN4 d          22.049  68.476  11.720  0.00  0.00    -0.066 C 
ATOM     18  H3  HN4 d          21.481  68.884  10.871  0.00  0.00     0.028 H 
ATOM     19  H4  HN4 d          21.355  68.203  12.529  0.00  0.00     0.028 H 
ATOM     20  H5  HN4 d          22.602  67.582  11.394  0.00  0.00     0.028 H 
ENDBRANCH  16  17
BRANCH  16  21
ATOM     21  C19 HN4 d          22.537  69.933  13.619  0.00  0.00    -0.066 C 
ATOM     22  H6  HN4 d          22.935  70.925  13.877  0.00  0.00     0.028 H 
ATOM     23  H7  HN4 d          22.882  69.196  14.360  0.00  0.00     0.028 H 
ATOM     24  H8  HN4 d          21.438  69.967  13.620  0.00  0.00     0.028 H 
ENDBRANCH  16  21
BRANCH  16  25
ATOM     25  C20 HN4 d          23.069  70.739  11.293  0.00  0.00    -0.066 C 
ATOM     26  H9  HN4 d          22.293  71.458  11.595  0.00  0.00     0.028 H 
ATOM     27  H10 HN4 d          22.881  70.410  10.260  0.00  0.00     0.028 H 
ATOM     28  H11 HN4 d          24.057  71.220  11.350  0.00  0.00     0.028 H 
ENDBRANCH  16  25
ENDBRANCH  10  16
ENDBRANCH   4   6
ENDBRANCH   1   4
BRANCH   1  29
ATOM     29  C5  HN4 d          29.435  65.909  10.457  0.00  0.00     0.111 C 
ATOM     30  N4  HN4 d          29.757  65.986   9.005  0.00  0.00    -0.055 N 
ATOM     31  C3  HN4 d          30.900  66.858   8.616  0.00  0.00     0.110 C 
ATOM     32  C8A HN4 d          28.634  66.454   8.135  0.00  0.00     0.155 C 
ATOM     33  H17 HN4 d          29.988  65.043   8.731  0.00  0.00     0.281 HD
ATOM     34  C2  HN4 d          30.737  66.956   7.089  0.00  0.00     0.085 C 
ATOM     35  H18 HN4 d          31.861  66.397   8.885  0.00  0.00     0.080 H 
ATOM     36  H19 HN4 d          30.824  67.848   9.089  0.00  0.00     0.080 H 
ATOM     37  C1  HN4 d          29.293  66.555   6.760  0.00  0.00     0.092 C 
ATOM     38  H20 HN4 d          30.914  67.992   6.765  0.00  0.00     0.089 H 
ATOM     39  H22 HN4 d          28.798  67.330   6.154  0.00  0.00     0.090 H 
ATOM     40  C8  HN4 d          27.415  65.556   8.271  0.00  0.00     0.066 C 
ATOM     41  H24 HN4 d          28.322  67.463   8.444  0.00  0.00     0.093 H 
ATOM     42  C7  HN4 d          27.015  65.433   9.750  0.00  0.00    -0.037 C 
ATOM     43  H25 HN4 d          27.654  64.559   7.872  0.00  0.00     0.086 H 
ATOM     44  C6  HN4 d          28.210  64.981  10.602  0.00  0.00    -0.035 C 
ATOM     45  H27 HN4 d          26.205  64.694   9.844  0.00  0.00     0.036 H 
ATOM     46  H28 HN4 d          26.663  66.410  10.111  0.00  0.00     0.036 H 
ATOM     47  H29 HN4 d          27.902  64.966  11.658  0.00  0.00     0.036 H 
ATOM     48  H30 HN4 d          28.499  63.967  10.291  0.00  0.00     0.036 H 
ATOM     49  H16 HN4 d          30.285  65.441  10.977  0.00  0.00     0.085 H 
BRANCH  34  50
ATOM     50  O2  HN4 d          31.676  66.090   6.417  0.00  0.00    -0.391 OA
ATOM     51  H21 HN4 d          32.426  65.940   6.980  0.00  0.00     0.210 HD
ENDBRANCH  34  50
BRANCH  37  52
ATOM     52  O1  HN4 d          29.273  65.299   6.028  0.00  0.00    -0.391 OA
ATOM     53  H23 HN4 d          30.140  65.121   5.685  0.00  0.00     0.210 HD
ENDBRANCH  37  52
BRANCH  40  54
ATOM     54  O8  HN4 d          26.321  66.108   7.542  0.00  0.00    -0.393 OA
ATOM     55  H26 HN4 d          25.939  65.437   6.990  0.00  0.00     0.210 HD
ENDBRANCH  40  54
ENDBRANCH   1  29
TORSDOF 10
ENDMDL
