MODEL 1
REMARK VINA RESULT:      -5.4      0.000      0.000
REMARK  7 active torsions:
REMARK  status: ('A' for Active; 'I' for Inactive)
REMARK    1  A    between atoms: CE_10  and  N1_1 
REMARK    2  A    between atoms: CA_3  and  N_2 
REMARK    3  A    between atoms: CA_3  and  C_4 
REMARK    4  A    between atoms: CB_7  and  CA_3 
REMARK    5  A    between atoms: CG_8  and  CB_7 
REMARK    6  A    between atoms: CD_9  and  CG_8 
REMARK    7  A    between atoms: CD_9  and  CE_10 
ROOT
ATOM      1  CB  MOL d          22.612 -17.035   7.944  0.00  0.00    -0.029 C 
ATOM      2  H5  MOL d          22.921 -17.999   8.374  0.00  0.00     0.036 H 
ATOM      3  H6  MOL d          22.267 -16.368   8.748  0.00  0.00     0.036 H 
ENDROOT
BRANCH   1   4
ATOM      4  CA  MOL d          21.441 -17.279   6.965  0.00  0.00     0.182 C 
ATOM      5  H4  MOL d          20.677 -17.880   7.480  0.00  0.00     0.101 H 
BRANCH   4   6
ATOM      6  N   MOL d          21.939 -18.040   5.788  0.00  0.00    -0.065 N 
ATOM      7  H1  MOL d          22.541 -17.449   5.236  0.00  0.00     0.275 HD
ATOM      8  H2  MOL d          21.157 -18.340   5.227  0.00  0.00     0.275 HD
ATOM      9  H3  MOL d          22.456 -18.846   6.103  0.00  0.00     0.275 HD
ENDBRANCH   4   6
BRANCH   4  10
ATOM     10  C   MOL d          20.791 -15.962   6.501  0.00  0.00     0.204 C 
ATOM     11  OXT MOL d          20.291 -15.171   7.355  0.00  0.00    -0.646 OA
ATOM     12  O   MOL d          20.757 -15.671   5.268  0.00  0.00    -0.646 OA
ENDBRANCH   4  10
ENDBRANCH   1   4
BRANCH   1  13
ATOM     13  CG  MOL d          23.820 -16.394   7.259  0.00  0.00    -0.061 C 
ATOM     14  H7  MOL d          23.529 -16.047   6.256  0.00  0.00     0.033 H 
ATOM     15  H8  MOL d          24.625 -17.138   7.171  0.00  0.00     0.033 H 
BRANCH  13  16
ATOM     16  CD  MOL d          24.312 -15.215   8.075  0.00  0.00    -0.044 C 
ATOM     17  H9  MOL d          25.279 -15.457   8.540  0.00  0.00     0.035 H 
ATOM     18  H10 MOL d          23.580 -14.967   8.857  0.00  0.00     0.035 H 
BRANCH  16  19
ATOM     19  CE  MOL d          24.473 -14.042   7.122  0.00  0.00     0.054 C 
ATOM     20  H11 MOL d          24.315 -14.402   6.095  0.00  0.00     0.073 H 
ATOM     21  H12 MOL d          23.711 -13.286   7.368  0.00  0.00     0.073 H 
BRANCH  19  22
ATOM     22  N1  MOL d          25.773 -13.419   7.194  0.00  0.00    -0.156 N 
ATOM     23  O2  MOL d          26.754 -14.062   7.799  0.00  0.00    -0.537 OA
ATOM     24  O1  MOL d          25.983 -12.214   6.711  0.00  0.00    -0.537 OA
ENDBRANCH  19  22
ENDBRANCH  16  19
ENDBRANCH  13  16
ENDBRANCH   1  13
TORSDOF 7
ENDMDL
MODEL 2
REMARK VINA RESULT:      -5.2      1.420      4.915
REMARK  7 active torsions:
REMARK  status: ('A' for Active; 'I' for Inactive)
REMARK    1  A    between atoms: CE_10  and  N1_1 
REMARK    2  A    between atoms: CA_3  and  N_2 
REMARK    3  A    between atoms: CA_3  and  C_4 
REMARK    4  A    between atoms: CB_7  and  CA_3 
REMARK    5  A    between atoms: CG_8  and  CB_7 
REMARK    6  A    between atoms: CD_9  and  CG_8 
REMARK    7  A    between atoms: CD_9  and  CE_10 
ROOT
ATOM      1  CB  MOL d          24.157 -15.928   8.105  0.00  0.00    -0.029 C 
ATOM      2  H5  MOL d          24.891 -15.788   8.911  0.00  0.00     0.036 H 
ATOM      3  H6  MOL d          24.495 -16.735   7.437  0.00  0.00     0.036 H 
ENDROOT
BRANCH   1   4
ATOM      4  CA  MOL d          24.058 -14.619   7.289  0.00  0.00     0.182 C 
ATOM      5  H4  MOL d          23.286 -13.982   7.744  0.00  0.00     0.101 H 
BRANCH   4   6
ATOM      6  N   MOL d          23.655 -14.942   5.894  0.00  0.00    -0.065 N 
ATOM      7  H1  MOL d          23.325 -14.106   5.437  0.00  0.00     0.275 HD
ATOM      8  H2  MOL d          22.918 -15.630   5.908  0.00  0.00     0.275 HD
ATOM      9  H3  MOL d          24.448 -15.309   5.391  0.00  0.00     0.275 HD
ENDBRANCH   4   6
BRANCH   4  10
ATOM     10  C   MOL d          25.387 -13.840   7.282  0.00  0.00     0.204 C 
ATOM     11  OXT MOL d          26.455 -14.412   7.653  0.00  0.00    -0.646 OA
ATOM     12  O   MOL d          25.412 -12.630   6.905  0.00  0.00    -0.646 OA
ENDBRANCH   4  10
ENDBRANCH   1   4
BRANCH   1  13
ATOM     13  CG  MOL d          22.818 -16.332   8.724  0.00  0.00    -0.061 C 
ATOM     14  H7  MOL d          22.156 -15.454   8.763  0.00  0.00     0.033 H 
ATOM     15  H8  MOL d          22.988 -16.709   9.743  0.00  0.00     0.033 H 
BRANCH  13  16
ATOM     16  CD  MOL d          22.167 -17.416   7.889  0.00  0.00    -0.044 C 
ATOM     17  H9  MOL d          22.275 -18.390   8.387  0.00  0.00     0.035 H 
ATOM     18  H10 MOL d          22.637 -17.458   6.894  0.00  0.00     0.035 H 
BRANCH  16  19
ATOM     19  CE  MOL d          20.696 -17.060   7.753  0.00  0.00     0.054 C 
ATOM     20  H11 MOL d          20.166 -17.925   7.326  0.00  0.00     0.073 H 
ATOM     21  H12 MOL d          20.296 -16.843   8.755  0.00  0.00     0.073 H 
BRANCH  19  22
ATOM     22  N1  MOL d          20.459 -15.915   6.908  0.00  0.00    -0.156 N 
ATOM     23  O2  MOL d          19.812 -14.878   7.406  0.00  0.00    -0.537 OA
ATOM     24  O1  MOL d          20.834 -15.906   5.646  0.00  0.00    -0.537 OA
ENDBRANCH  19  22
ENDBRANCH  16  19
ENDBRANCH  13  16
ENDBRANCH   1  13
TORSDOF 7
ENDMDL
MODEL 3
REMARK VINA RESULT:      -4.8      1.800      2.127
REMARK  7 active torsions:
REMARK  status: ('A' for Active; 'I' for Inactive)
REMARK    1  A    between atoms: CE_10  and  N1_1 
REMARK    2  A    between atoms: CA_3  and  N_2 
REMARK    3  A    between atoms: CA_3  and  C_4 
REMARK    4  A    between atoms: CB_7  and  CA_3 
REMARK    5  A    between atoms: CG_8  and  CB_7 
REMARK    6  A    between atoms: CD_9  and  CG_8 
REMARK    7  A    between atoms: CD_9  and  CE_10 
ROOT
ATOM      1  CB  MOL d          21.966 -15.375   8.364  0.00  0.00    -0.029 C 
ATOM      2  H5  MOL d          21.483 -15.704   9.296  0.00  0.00     0.036 H 
ATOM      3  H6  MOL d          21.804 -14.295   8.228  0.00  0.00     0.036 H 
ENDROOT
BRANCH   1   4
ATOM      4  CA  MOL d          21.319 -16.127   7.178  0.00  0.00     0.182 C 
ATOM      5  H4  MOL d          21.957 -15.994   6.292  0.00  0.00     0.101 H 
BRANCH   4   6
ATOM      6  N   MOL d          19.980 -15.540   6.900  0.00  0.00    -0.065 N 
ATOM      7  H1  MOL d          19.268 -16.112   7.327  0.00  0.00     0.275 HD
ATOM      8  H2  MOL d          19.829 -15.505   5.904  0.00  0.00     0.275 HD
ATOM      9  H3  MOL d          19.936 -14.608   7.280  0.00  0.00     0.275 HD
ENDBRANCH   4   6
BRANCH   4  10
ATOM     10  C   MOL d          21.182 -17.636   7.454  0.00  0.00     0.204 C 
ATOM     11  OXT MOL d          20.298 -18.051   8.261  0.00  0.00    -0.646 OA
ATOM     12  O   MOL d          21.951 -18.460   6.875  0.00  0.00    -0.646 OA
ENDBRANCH   4  10
ENDBRANCH   1   4
BRANCH   1  13
ATOM     13  CG  MOL d          23.468 -15.637   8.471  0.00  0.00    -0.061 C 
ATOM     14  H7  MOL d          23.637 -16.693   8.731  0.00  0.00     0.033 H 
ATOM     15  H8  MOL d          23.896 -14.994   9.253  0.00  0.00     0.033 H 
BRANCH  13  16
ATOM     16  CD  MOL d          24.142 -15.333   7.147  0.00  0.00    -0.044 C 
ATOM     17  H9  MOL d          23.506 -15.670   6.315  0.00  0.00     0.035 H 
ATOM     18  H10 MOL d          25.116 -15.843   7.094  0.00  0.00     0.035 H 
BRANCH  16  19
ATOM     19  CE  MOL d          24.339 -13.828   7.075  0.00  0.00     0.054 C 
ATOM     20  H11 MOL d          23.973 -13.474   6.100  0.00  0.00     0.073 H 
ATOM     21  H12 MOL d          23.752 -13.361   7.880  0.00  0.00     0.073 H 
BRANCH  19  22
ATOM     22  N1  MOL d          25.717 -13.423   7.221  0.00  0.00    -0.156 N 
ATOM     23  O2  MOL d          26.070 -12.214   6.829  0.00  0.00    -0.537 OA
ATOM     24  O1  MOL d          26.627 -14.249   7.691  0.00  0.00    -0.537 OA
ENDBRANCH  19  22
ENDBRANCH  16  19
ENDBRANCH  13  16
ENDBRANCH   1  13
TORSDOF 7
ENDMDL
MODEL 4
REMARK VINA RESULT:      -4.4      2.266      4.762
REMARK  7 active torsions:
REMARK  status: ('A' for Active; 'I' for Inactive)
REMARK    1  A    between atoms: CE_10  and  N1_1 
REMARK    2  A    between atoms: CA_3  and  N_2 
REMARK    3  A    between atoms: CA_3  and  C_4 
REMARK    4  A    between atoms: CB_7  and  CA_3 
REMARK    5  A    between atoms: CG_8  and  CB_7 
REMARK    6  A    between atoms: CD_9  and  CG_8 
REMARK    7  A    between atoms: CD_9  and  CE_10 
ROOT
ATOM      1  CB  MOL d          22.377 -15.210   8.073  0.00  0.00    -0.029 C 
ATOM      2  H5  MOL d          22.046 -14.417   8.760  0.00  0.00     0.036 H 
ATOM      3  H6  MOL d          22.990 -15.940   8.624  0.00  0.00     0.036 H 
ENDROOT
BRANCH   1   4
ATOM      4  CA  MOL d          23.241 -14.575   6.961  0.00  0.00     0.182 C 
ATOM      5  H4  MOL d          22.827 -13.585   6.719  0.00  0.00     0.101 H 
BRANCH   4   6
ATOM      6  N   MOL d          23.181 -15.432   5.746  0.00  0.00    -0.065 N 
ATOM      7  H1  MOL d          23.985 -16.039   5.722  0.00  0.00     0.275 HD
ATOM      8  H2  MOL d          23.176 -14.848   4.923  0.00  0.00     0.275 HD
ATOM      9  H3  MOL d          22.340 -15.988   5.769  0.00  0.00     0.275 HD
ENDBRANCH   4   6
BRANCH   4  10
ATOM     10  C   MOL d          24.707 -14.393   7.399  0.00  0.00     0.204 C 
ATOM     11  OXT MOL d          25.269 -15.284   8.103  0.00  0.00    -0.646 OA
ATOM     12  O   MOL d          25.348 -13.354   7.056  0.00  0.00    -0.646 OA
ENDBRANCH   4  10
ENDBRANCH   1   4
BRANCH   1  13
ATOM     13  CG  MOL d          21.144 -15.924   7.518  0.00  0.00    -0.061 C 
ATOM     14  H7  MOL d          21.349 -16.257   6.489  0.00  0.00     0.033 H 
ATOM     15  H8  MOL d          20.291 -15.230   7.517  0.00  0.00     0.033 H 
BRANCH  13  16
ATOM     16  CD  MOL d          20.812 -17.128   8.378  0.00  0.00    -0.044 C 
ATOM     17  H9  MOL d          19.770 -17.066   8.725  0.00  0.00     0.035 H 
ATOM     18  H10 MOL d          21.486 -17.167   9.246  0.00  0.00     0.035 H 
BRANCH  16  19
ATOM     19  CE  MOL d          21.001 -18.365   7.516  0.00  0.00     0.054 C 
ATOM     20  H11 MOL d          20.771 -19.253   8.125  0.00  0.00     0.073 H 
ATOM     21  H12 MOL d          20.303 -18.310   6.668  0.00  0.00     0.073 H 
BRANCH  19  22
ATOM     22  N1  MOL d          22.341 -18.502   6.996  0.00  0.00    -0.156 N 
ATOM     23  O2  MOL d          23.348 -18.582   7.845  0.00  0.00    -0.537 OA
ATOM     24  O1  MOL d          22.576 -18.501   5.702  0.00  0.00    -0.537 OA
ENDBRANCH  19  22
ENDBRANCH  16  19
ENDBRANCH  13  16
ENDBRANCH   1  13
TORSDOF 7
ENDMDL
MODEL 5
REMARK VINA RESULT:      -3.7      2.044      4.853
REMARK  7 active torsions:
REMARK  status: ('A' for Active; 'I' for Inactive)
REMARK    1  A    between atoms: CE_10  and  N1_1 
REMARK    2  A    between atoms: CA_3  and  N_2 
REMARK    3  A    between atoms: CA_3  and  C_4 
REMARK    4  A    between atoms: CB_7  and  CA_3 
REMARK    5  A    between atoms: CG_8  and  CB_7 
REMARK    6  A    between atoms: CD_9  and  CG_8 
REMARK    7  A    between atoms: CD_9  and  CE_10 
ROOT
ATOM      1  CB  MOL d          23.002 -14.903   5.843  0.00  0.00    -0.029 C 
ATOM      2  H5  MOL d          23.608 -14.528   5.005  0.00  0.00     0.036 H 
ATOM      3  H6  MOL d          21.965 -14.550   5.732  0.00  0.00     0.036 H 
ENDROOT
BRANCH   1   4
ATOM      4  CA  MOL d          23.578 -14.342   7.163  0.00  0.00     0.182 C 
ATOM      5  H4  MOL d          22.789 -13.770   7.673  0.00  0.00     0.101 H 
BRANCH   4   6
ATOM      6  N   MOL d          24.710 -13.428   6.853  0.00  0.00    -0.065 N 
ATOM      7  H1  MOL d          24.770 -13.293   5.855  0.00  0.00     0.275 HD
ATOM      8  H2  MOL d          25.570 -13.833   7.188  0.00  0.00     0.275 HD
ATOM      9  H3  MOL d          24.558 -12.539   7.303  0.00  0.00     0.275 HD
ENDBRANCH   4   6
BRANCH   4  10
ATOM     10  C   MOL d          24.053 -15.461   8.109  0.00  0.00     0.204 C 
ATOM     11  OXT MOL d          23.205 -16.115   8.787  0.00  0.00    -0.646 OA
ATOM     12  O   MOL d          25.288 -15.728   8.207  0.00  0.00    -0.646 OA
ENDBRANCH   4  10
ENDBRANCH   1   4
BRANCH   1  13
ATOM     13  CG  MOL d          23.007 -16.432   5.808  0.00  0.00    -0.061 C 
ATOM     14  H7  MOL d          23.332 -16.817   6.786  0.00  0.00     0.033 H 
ATOM     15  H8  MOL d          23.703 -16.775   5.028  0.00  0.00     0.033 H 
BRANCH  13  16
ATOM     16  CD  MOL d          21.615 -16.947   5.502  0.00  0.00    -0.044 C 
ATOM     17  H9  MOL d          21.398 -17.833   6.116  0.00  0.00     0.035 H 
ATOM     18  H10 MOL d          21.537 -17.212   4.437  0.00  0.00     0.035 H 
BRANCH  16  19
ATOM     19  CE  MOL d          20.637 -15.832   5.833  0.00  0.00     0.054 C 
ATOM     20  H11 MOL d          21.130 -14.867   5.642  0.00  0.00     0.073 H 
ATOM     21  H12 MOL d          19.759 -15.931   5.177  0.00  0.00     0.073 H 
BRANCH  19  22
ATOM     22  N1  MOL d          20.188 -15.852   7.204  0.00  0.00    -0.156 N 
ATOM     23  O2  MOL d          19.660 -16.962   7.685  0.00  0.00    -0.537 OA
ATOM     24  O1  MOL d          20.254 -14.779   7.963  0.00  0.00    -0.537 OA
ENDBRANCH  19  22
ENDBRANCH  16  19
ENDBRANCH  13  16
ENDBRANCH   1  13
TORSDOF 7
ENDMDL
