MODEL 1
REMARK VINA RESULT:      -7.9      0.000      0.000
REMARK  8 active torsions:
REMARK  status: ('A' for Active; 'I' for Inactive)
REMARK    1  A    between atoms: C15_7  and  S14_8 
REMARK    2  A    between atoms: S14_8  and  C13_11 
REMARK    3  A    between atoms: C13_11  and  C11_12 
REMARK    4  A    between atoms: C11_12  and  O11_13 
REMARK    5  A    between atoms: C11_12  and  C12_14 
REMARK    6  A    between atoms: C11_12  and  C10_15 
REMARK       I    between atoms: C10_15  and  N9_17 
REMARK    7  A    between atoms: N9_17  and  C1_18 
REMARK    8  A    between atoms: C3_25  and  C7_26 
ROOT
ATOM      1  C1  MOL d          27.842   2.508   4.431  0.00  0.00     0.035 A 
ATOM      2  C2  MOL d          26.592   2.294   5.008  0.00  0.00    -0.041 A 
ATOM      3  C6  MOL d          28.160   3.782   3.974  0.00  0.00    -0.056 A 
ATOM      4  C5  MOL d          27.237   4.814   4.108  0.00  0.00    -0.060 A 
ATOM      5  C4  MOL d          25.992   4.585   4.687  0.00  0.00     0.059 A 
ATOM      6  C8  MOL d          25.131   5.723   4.803  0.00  0.00     0.100 C 
ATOM      7  N8  MOL d          24.455   6.635   4.882  0.00  0.00    -0.191 NA
ATOM      8  C3  MOL d          25.642   3.309   5.143  0.00  0.00     0.070 A 
ATOM      9  H12 MOL d          26.347   1.300   5.366  0.00  0.00     0.088 H 
ATOM     10  H13 MOL d          29.124   3.971   3.514  0.00  0.00     0.087 H 
ATOM     11  H14 MOL d          27.490   5.807   3.756  0.00  0.00     0.086 H 
ENDROOT
BRANCH   8  12
ATOM     12  C7  MOL d          24.274   2.972   5.765  0.00  0.00     0.419 C 
ATOM     13  F7B MOL d          23.574   2.222   4.919  0.00  0.00    -0.166 F 
ATOM     14  F7C MOL d          24.341   2.315   6.920  0.00  0.00    -0.166 F 
ATOM     15  F7A MOL d          23.559   4.063   6.026  0.00  0.00    -0.166 F 
ENDBRANCH   8  12
BRANCH   1  16
ATOM     16  N9  MOL d          28.717   1.530   4.194  0.00  0.00    -0.325 N 
ATOM     17  C10 MOL d          28.594   0.260   4.571  0.00  0.00     0.257 C 
ATOM     18  O10 MOL d          27.710  -0.177   5.307  0.00  0.00    -0.270 OA
ATOM     19  H11 MOL d          29.543   1.774   3.685  0.00  0.00     0.169 HD
BRANCH  17  20
ATOM     20  C11 MOL d          29.746  -0.641   4.116  0.00  0.00     0.148 C 
BRANCH  20  21
ATOM     21  C13 MOL d          30.673  -0.949   5.296  0.00  0.00     0.070 C 
ATOM     22  H5  MOL d          30.099  -1.517   6.042  0.00  0.00     0.062 H 
ATOM     23  H6  MOL d          31.503  -1.568   4.925  0.00  0.00     0.062 H 
BRANCH  21  24
ATOM     24  S14 MOL d          31.382   0.523   6.122  0.00  0.00     0.178 S 
ATOM     25  O14 MOL d          31.286   1.716   5.218  0.00  0.00    -0.222 OA
ATOM     26  O15 MOL d          32.818   0.261   6.462  0.00  0.00    -0.222 OA
BRANCH  24  27
ATOM     27  C15 MOL d          30.483   0.844   7.586  0.00  0.00     0.059 A 
ATOM     28  C16 MOL d          30.735   0.108   8.741  0.00  0.00    -0.059 A 
ATOM     29  C17 MOL d          30.030   0.382   9.909  0.00  0.00    -0.044 A 
ATOM     30  H1  MOL d          31.480  -0.680   8.730  0.00  0.00     0.085 H 
ATOM     31  C18 MOL d          29.075   1.395   9.921  0.00  0.00     0.116 A 
ATOM     32  H2  MOL d          30.224  -0.192  10.809  0.00  0.00     0.088 H 
ATOM     33  F18 MOL d          28.389   1.667  11.048  0.00  0.00    -0.206 F 
ATOM     34  C19 MOL d          28.824   2.131   8.767  0.00  0.00    -0.044 A 
ATOM     35  C20 MOL d          29.528   1.855   7.599  0.00  0.00    -0.059 A 
ATOM     36  H3  MOL d          28.080   2.919   8.778  0.00  0.00     0.088 H 
ATOM     37  H4  MOL d          29.332   2.427   6.699  0.00  0.00     0.085 H 
ENDBRANCH  24  27
ENDBRANCH  21  24
ENDBRANCH  20  21
BRANCH  20  38
ATOM     38  O11 MOL d          30.487   0.046   3.104  0.00  0.00    -0.380 OA
ATOM     39  H7  MOL d          29.908   0.264   2.383  0.00  0.00     0.211 HD
ENDBRANCH  20  38
BRANCH  20  40
ATOM     40  C12 MOL d          29.166  -1.936   3.544  0.00  0.00    -0.038 C 
ATOM     41  H8  MOL d          28.240  -2.191   4.081  0.00  0.00     0.032 H 
ATOM     42  H9  MOL d          29.896  -2.749   3.665  0.00  0.00     0.032 H 
ATOM     43  H10 MOL d          28.944  -1.798   2.476  0.00  0.00     0.032 H 
ENDBRANCH  20  40
ENDBRANCH  17  20
ENDBRANCH   1  16
TORSDOF 8
ENDMDL
MODEL 2
REMARK VINA RESULT:      -6.4      1.851      2.321
REMARK  8 active torsions:
REMARK  status: ('A' for Active; 'I' for Inactive)
REMARK    1  A    between atoms: C15_7  and  S14_8 
REMARK    2  A    between atoms: S14_8  and  C13_11 
REMARK    3  A    between atoms: C13_11  and  C11_12 
REMARK    4  A    between atoms: C11_12  and  O11_13 
REMARK    5  A    between atoms: C11_12  and  C12_14 
REMARK    6  A    between atoms: C11_12  and  C10_15 
REMARK       I    between atoms: C10_15  and  N9_17 
REMARK    7  A    between atoms: N9_17  and  C1_18 
REMARK    8  A    between atoms: C3_25  and  C7_26 
ROOT
ATOM      1  C1  MOL d          27.151   1.517   4.533  0.00  0.00     0.035 A 
ATOM      2  C2  MOL d          27.524   2.813   4.181  0.00  0.00    -0.041 A 
ATOM      3  C6  MOL d          25.863   1.296   5.008  0.00  0.00    -0.056 A 
ATOM      4  C5  MOL d          24.973   2.360   5.113  0.00  0.00    -0.060 A 
ATOM      5  C4  MOL d          25.360   3.649   4.757  0.00  0.00     0.059 A 
ATOM      6  C8  MOL d          24.358   4.664   4.876  0.00  0.00     0.100 C 
ATOM      7  N8  MOL d          23.552   5.461   4.982  0.00  0.00    -0.191 NA
ATOM      8  C3  MOL d          26.655   3.901   4.290  0.00  0.00     0.070 A 
ATOM      9  H12 MOL d          28.528   2.983   3.809  0.00  0.00     0.088 H 
ATOM     10  H13 MOL d          25.553   0.297   5.295  0.00  0.00     0.087 H 
ATOM     11  H14 MOL d          23.968   2.183   5.477  0.00  0.00     0.086 H 
ENDROOT
BRANCH   8  12
ATOM     12  C7  MOL d          27.165   5.303   3.907  0.00  0.00     0.419 C 
ATOM     13  F7B MOL d          28.254   5.189   3.153  0.00  0.00    -0.166 F 
ATOM     14  F7C MOL d          26.288   6.044   3.234  0.00  0.00    -0.166 F 
ATOM     15  F7A MOL d          27.485   6.029   4.976  0.00  0.00    -0.166 F 
ENDBRANCH   8  12
BRANCH   1  16
ATOM     16  N9  MOL d          27.998   0.487   4.541  0.00  0.00    -0.325 N 
ATOM     17  C10 MOL d          28.503  -0.121   3.471  0.00  0.00     0.257 C 
ATOM     18  O10 MOL d          28.162   0.096   2.308  0.00  0.00    -0.270 OA
ATOM     19  H11 MOL d          28.281   0.139   5.436  0.00  0.00     0.169 HD
BRANCH  17  20
ATOM     20  C11 MOL d          29.483  -1.250   3.799  0.00  0.00     0.148 C 
BRANCH  20  21
ATOM     21  C13 MOL d          29.773  -1.279   5.302  0.00  0.00     0.070 C 
ATOM     22  H5  MOL d          28.814  -1.225   5.837  0.00  0.00     0.062 H 
ATOM     23  H6  MOL d          30.269  -2.233   5.536  0.00  0.00     0.062 H 
BRANCH  21  24
ATOM     24  S14 MOL d          30.839   0.082   5.905  0.00  0.00     0.178 S 
ATOM     25  O14 MOL d          30.831   1.216   4.923  0.00  0.00    -0.222 OA
ATOM     26  O15 MOL d          32.239  -0.422   6.084  0.00  0.00    -0.222 OA
BRANCH  24  27
ATOM     27  C15 MOL d          30.223   0.653   7.439  0.00  0.00     0.059 A 
ATOM     28  C16 MOL d          30.650   0.069   8.628  0.00  0.00    -0.059 A 
ATOM     29  C17 MOL d          30.171   0.541   9.847  0.00  0.00    -0.044 A 
ATOM     30  H1  MOL d          31.355  -0.754   8.606  0.00  0.00     0.085 H 
ATOM     31  C18 MOL d          29.267   1.599   9.873  0.00  0.00     0.116 A 
ATOM     32  H2  MOL d          30.502   0.086  10.774  0.00  0.00     0.088 H 
ATOM     33  F18 MOL d          28.799   2.063  11.049  0.00  0.00    -0.206 F 
ATOM     34  C19 MOL d          28.840   2.183   8.684  0.00  0.00    -0.044 A 
ATOM     35  C20 MOL d          29.318   1.709   7.466  0.00  0.00    -0.059 A 
ATOM     36  H3  MOL d          28.136   3.006   8.707  0.00  0.00     0.088 H 
ATOM     37  H4  MOL d          28.986   2.162   6.539  0.00  0.00     0.085 H 
ENDBRANCH  24  27
ENDBRANCH  21  24
ENDBRANCH  20  21
BRANCH  20  38
ATOM     38  O11 MOL d          30.702  -1.014   3.090  0.00  0.00    -0.380 OA
ATOM     39  H7  MOL d          31.420  -0.952   3.709  0.00  0.00     0.211 HD
ENDBRANCH  20  38
BRANCH  20  40
ATOM     40  C12 MOL d          28.873  -2.580   3.351  0.00  0.00    -0.038 C 
ATOM     41  H8  MOL d          29.499  -3.411   3.710  0.00  0.00     0.032 H 
ATOM     42  H9  MOL d          28.823  -2.609   2.253  0.00  0.00     0.032 H 
ATOM     43  H10 MOL d          27.859  -2.678   3.767  0.00  0.00     0.032 H 
ENDBRANCH  20  40
ENDBRANCH  17  20
ENDBRANCH   1  16
TORSDOF 8
ENDMDL
MODEL 3
REMARK VINA RESULT:      -5.8      3.933      6.810
REMARK  8 active torsions:
REMARK  status: ('A' for Active; 'I' for Inactive)
REMARK    1  A    between atoms: C15_7  and  S14_8 
REMARK    2  A    between atoms: S14_8  and  C13_11 
REMARK    3  A    between atoms: C13_11  and  C11_12 
REMARK    4  A    between atoms: C11_12  and  O11_13 
REMARK    5  A    between atoms: C11_12  and  C12_14 
REMARK    6  A    between atoms: C11_12  and  C10_15 
REMARK       I    between atoms: C10_15  and  N9_17 
REMARK    7  A    between atoms: N9_17  and  C1_18 
REMARK    8  A    between atoms: C3_25  and  C7_26 
ROOT
ATOM      1  C1  MOL d          28.636   2.145   6.731  0.00  0.00     0.035 A 
ATOM      2  C2  MOL d          29.862   1.614   6.338  0.00  0.00    -0.041 A 
ATOM      3  C6  MOL d          28.274   2.077   8.072  0.00  0.00    -0.056 A 
ATOM      4  C5  MOL d          29.140   1.494   8.992  0.00  0.00    -0.060 A 
ATOM      5  C4  MOL d          30.363   0.970   8.584  0.00  0.00     0.059 A 
ATOM      6  C8  MOL d          31.189   0.421   9.617  0.00  0.00     0.100 C 
ATOM      7  N8  MOL d          31.832  -0.017  10.447  0.00  0.00    -0.191 NA
ATOM      8  C3  MOL d          30.744   1.013   7.239  0.00  0.00     0.070 A 
ATOM      9  H12 MOL d          30.143   1.670   5.293  0.00  0.00     0.088 H 
ATOM     10  H13 MOL d          27.321   2.477   8.400  0.00  0.00     0.087 H 
ATOM     11  H14 MOL d          28.859   1.449  10.038  0.00  0.00     0.086 H 
ENDROOT
BRANCH   8  12
ATOM     12  C7  MOL d          32.066   0.424   6.708  0.00  0.00     0.419 C 
ATOM     13  F7B MOL d          32.617   1.275   5.848  0.00  0.00    -0.166 F 
ATOM     14  F7C MOL d          32.970   0.165   7.648  0.00  0.00    -0.166 F 
ATOM     15  F7A MOL d          31.882  -0.731   6.074  0.00  0.00    -0.166 F 
ENDBRANCH   8  12
BRANCH   1  16
ATOM     16  N9  MOL d          27.735   2.623   5.872  0.00  0.00    -0.325 N 
ATOM     17  C10 MOL d          27.832   3.758   5.184  0.00  0.00     0.257 C 
ATOM     18  O10 MOL d          28.714   4.602   5.336  0.00  0.00    -0.270 OA
ATOM     19  H11 MOL d          26.909   2.077   5.731  0.00  0.00     0.169 HD
BRANCH  17  20
ATOM     20  C11 MOL d          26.653   4.021   4.244  0.00  0.00     0.148 C 
BRANCH  20  21
ATOM     21  C13 MOL d          26.597   2.947   3.153  0.00  0.00     0.070 C 
ATOM     22  H5  MOL d          25.985   3.333   2.325  0.00  0.00     0.062 H 
ATOM     23  H6  MOL d          27.622   2.766   2.798  0.00  0.00     0.062 H 
BRANCH  21  24
ATOM     24  S14 MOL d          25.887   1.346   3.687  0.00  0.00     0.178 S 
ATOM     25  O14 MOL d          24.819   0.911   2.728  0.00  0.00    -0.222 OA
ATOM     26  O15 MOL d          25.303   1.492   5.061  0.00  0.00    -0.222 OA
BRANCH  24  27
ATOM     27  C15 MOL d          27.153   0.141   3.715  0.00  0.00     0.059 A 
ATOM     28  C16 MOL d          28.391   0.409   3.136  0.00  0.00    -0.059 A 
ATOM     29  C17 MOL d          29.401  -0.547   3.179  0.00  0.00    -0.044 A 
ATOM     30  H1  MOL d          28.567   1.363   2.652  0.00  0.00     0.085 H 
ATOM     31  C18 MOL d          29.172  -1.770   3.803  0.00  0.00     0.116 A 
ATOM     32  H2  MOL d          30.365  -0.340   2.727  0.00  0.00     0.088 H 
ATOM     33  F18 MOL d          30.145  -2.701   3.849  0.00  0.00    -0.206 F 
ATOM     34  C19 MOL d          27.935  -2.038   4.381  0.00  0.00    -0.044 A 
ATOM     35  C20 MOL d          26.925  -1.082   4.336  0.00  0.00    -0.059 A 
ATOM     36  H3  MOL d          27.759  -2.991   4.866  0.00  0.00     0.088 H 
ATOM     37  H4  MOL d          25.961  -1.290   4.786  0.00  0.00     0.085 H 
ENDBRANCH  24  27
ENDBRANCH  21  24
ENDBRANCH  20  21
BRANCH  20  38
ATOM     38  O11 MOL d          26.836   5.301   3.634  0.00  0.00    -0.380 OA
ATOM     39  H7  MOL d          26.296   5.943   4.080  0.00  0.00     0.211 HD
ENDBRANCH  20  38
BRANCH  20  40
ATOM     40  C12 MOL d          25.359   4.016   5.060  0.00  0.00    -0.038 C 
ATOM     41  H8  MOL d          24.684   3.239   4.673  0.00  0.00     0.032 H 
ATOM     42  H9  MOL d          24.871   4.998   4.978  0.00  0.00     0.032 H 
ATOM     43  H10 MOL d          25.590   3.809   6.115  0.00  0.00     0.032 H 
ENDBRANCH  20  40
ENDBRANCH  17  20
ENDBRANCH   1  16
TORSDOF 8
ENDMDL
