MODEL 1
REMARK VINA RESULT:      -8.0      0.000      0.000
REMARK  8 active torsions:
REMARK  status: ('A' for Active; 'I' for Inactive)
REMARK    1  A    between atoms: N1_2  and  C2_4 
REMARK       I    between atoms: C10_18  and  N1_2 
REMARK    2  A    between atoms: N3_8  and  N2_5 
REMARK       I    between atoms: N2_5  and  C10_18 
REMARK       I    between atoms: C12_20  and  N3_8 
REMARK    3  A    between atoms: C16_24  and  N4_11 
REMARK    4  A    between atoms: C13_21  and  C12_20 
REMARK    5  A    between atoms: C18_26  and  C19_27 
REMARK    6  A    between atoms: C19_27  and  C20_28 
REMARK    7  A    between atoms: C19_27  and  C21_29 
REMARK    8  A    between atoms: C19_27  and  C22_30 
ROOT
ATOM      1  O2  AGY d          29.922  -5.683  19.160  0.00  0.00    -0.266 OA
ATOM      2  N3  AGY d          29.237  -3.625  18.568  0.00  0.00    -0.262 N 
ATOM      3  C12 AGY d          29.304  -4.645  19.467  0.00  0.00     0.270 C 
ATOM      4  H3  AGY d          28.753  -2.773  18.762  0.00  0.00     0.190 HD
ENDROOT
BRANCH   3   5
ATOM      5  C13 AGY d          28.653  -4.527  20.771  0.00  0.00     0.036 A 
ATOM      6  C14 AGY d          29.107  -5.318  21.847  0.00  0.00    -0.035 A 
ATOM      7  C16 AGY d          28.510  -5.238  23.147  0.00  0.00     0.111 A 
ATOM      8  H11 AGY d          29.929  -6.006  21.686  0.00  0.00     0.088 H 
ATOM      9  C18 AGY d          27.384  -4.320  23.406  0.00  0.00    -0.018 A 
ATOM     10  C17 AGY d          26.931  -3.506  22.264  0.00  0.00    -0.073 A 
ATOM     11  C15 AGY d          27.567  -3.621  20.972  0.00  0.00    -0.067 A 
ATOM     12  H13 AGY d          26.109  -2.811  22.395  0.00  0.00     0.084 H 
ATOM     13  H12 AGY d          27.216  -3.013  20.146  0.00  0.00     0.085 H 
BRANCH   7  14
ATOM     14  N4  AGY d          29.026  -5.983  24.109  0.00  0.00    -0.115 N 
ATOM     15  O3  AGY d          30.005  -5.508  24.827  0.00  0.00    -0.532 OA
ATOM     16  O4  AGY d          28.535  -7.261  24.344  0.00  0.00    -0.532 OA
ENDBRANCH   7  14
BRANCH   9  17
ATOM     17  C19 AGY d          26.668  -4.154  24.769  0.00  0.00    -0.022 C 
BRANCH  17  18
ATOM     18  C20 AGY d          25.987  -5.446  25.282  0.00  0.00    -0.066 C 
ATOM     19  H14 AGY d          26.522  -5.814  26.170  0.00  0.00     0.028 H 
ATOM     20  H15 AGY d          26.013  -6.212  24.494  0.00  0.00     0.028 H 
ATOM     21  H16 AGY d          24.942  -5.228  25.548  0.00  0.00     0.028 H 
ENDBRANCH  17  18
BRANCH  17  22
ATOM     22  C21 AGY d          27.485  -3.823  26.074  0.00  0.00    -0.066 C 
ATOM     23  H17 AGY d          27.239  -4.555  26.857  0.00  0.00     0.028 H 
ATOM     24  H18 AGY d          27.227  -2.812  26.422  0.00  0.00     0.028 H 
ATOM     25  H19 AGY d          28.562  -3.871  25.854  0.00  0.00     0.028 H 
ENDBRANCH  17  22
BRANCH  17  26
ATOM     26  C22 AGY d          25.683  -2.979  24.610  0.00  0.00    -0.066 C 
ATOM     27  H20 AGY d          25.053  -3.147  23.724  0.00  0.00     0.028 H 
ATOM     28  H21 AGY d          26.247  -2.042  24.486  0.00  0.00     0.028 H 
ATOM     29  H22 AGY d          25.048  -2.910  25.505  0.00  0.00     0.028 H 
ENDBRANCH  17  26
ENDBRANCH   9  17
ENDBRANCH   3   5
BRANCH   2  30
ATOM     30  N2  AGY d          29.912  -3.859  17.323  0.00  0.00    -0.248 N 
ATOM     31  C10 AGY d          31.040  -3.197  16.946  0.00  0.00     0.339 C 
ATOM     32  N1  AGY d          31.605  -2.254  17.756  0.00  0.00    -0.307 N 
ATOM     33  O1  AGY d          31.529  -3.484  15.845  0.00  0.00    -0.245 OA
ATOM     34  H1  AGY d          31.130  -2.107  18.624  0.00  0.00     0.170 HD
ATOM     35  H2  AGY d          29.534  -4.543  16.700  0.00  0.00     0.192 HD
BRANCH  32  36
ATOM     36  C2  AGY d          32.737  -1.465  17.567  0.00  0.00     0.047 A 
ATOM     37  C1  AGY d          34.103  -1.971  17.564  0.00  0.00     0.001 A 
ATOM     38  C3  AGY d          35.248  -1.035  17.351  0.00  0.00    -0.024 A 
ATOM     39  C4  AGY d          34.377  -3.376  17.766  0.00  0.00    -0.070 A 
ATOM     40  C6  AGY d          35.018   0.374  17.147  0.00  0.00    -0.072 A 
ATOM     41  C7  AGY d          36.585  -1.536  17.348  0.00  0.00    -0.072 A 
ATOM     42  C9  AGY d          33.648   0.878  17.151  0.00  0.00    -0.080 A 
ATOM     43  H6  AGY d          35.851   1.050  16.993  0.00  0.00     0.084 H 
ATOM     44  C5  AGY d          32.532  -0.034  17.359  0.00  0.00    -0.056 A 
ATOM     45  H9  AGY d          33.461   1.934  16.999  0.00  0.00     0.083 H 
ATOM     46  H5  AGY d          31.522   0.359  17.359  0.00  0.00     0.086 H 
ATOM     47  C11 AGY d          36.837  -2.950  17.553  0.00  0.00    -0.082 A 
ATOM     48  H7  AGY d          37.415  -0.857  17.193  0.00  0.00     0.084 H 
ATOM     49  C8  AGY d          35.737  -3.864  17.760  0.00  0.00    -0.082 A 
ATOM     50  H10 AGY d          37.856  -3.322  17.551  0.00  0.00     0.083 H 
ATOM     51  H8  AGY d          35.932  -4.920  17.913  0.00  0.00     0.083 H 
ATOM     52  H4  AGY d          33.557  -4.067  17.922  0.00  0.00     0.084 H 
ENDBRANCH  32  36
ENDBRANCH   2  30
TORSDOF 8
ENDMDL
MODEL 2
REMARK VINA RESULT:      -7.5      1.615      1.967
REMARK  8 active torsions:
REMARK  status: ('A' for Active; 'I' for Inactive)
REMARK    1  A    between atoms: N1_2  and  C2_4 
REMARK       I    between atoms: C10_18  and  N1_2 
REMARK    2  A    between atoms: N3_8  and  N2_5 
REMARK       I    between atoms: N2_5  and  C10_18 
REMARK       I    between atoms: C12_20  and  N3_8 
REMARK    3  A    between atoms: C16_24  and  N4_11 
REMARK    4  A    between atoms: C13_21  and  C12_20 
REMARK    5  A    between atoms: C18_26  and  C19_27 
REMARK    6  A    between atoms: C19_27  and  C20_28 
REMARK    7  A    between atoms: C19_27  and  C21_29 
REMARK    8  A    between atoms: C19_27  and  C22_30 
ROOT
ATOM      1  O2  AGY d          29.767  -5.864  19.064  0.00  0.00    -0.266 OA
ATOM      2  N3  AGY d          29.289  -3.672  18.920  0.00  0.00    -0.262 N 
ATOM      3  C12 AGY d          29.350  -4.833  19.627  0.00  0.00     0.270 C 
ATOM      4  H3  AGY d          28.961  -2.818  19.322  0.00  0.00     0.190 HD
ENDROOT
BRANCH   3   5
ATOM      5  C13 AGY d          28.925  -4.871  21.025  0.00  0.00     0.036 A 
ATOM      6  C14 AGY d          27.725  -4.235  21.403  0.00  0.00    -0.035 A 
ATOM      7  C16 AGY d          27.257  -4.247  22.757  0.00  0.00     0.111 A 
ATOM      8  H11 AGY d          27.139  -3.722  20.648  0.00  0.00     0.088 H 
ATOM      9  C18 AGY d          28.028  -4.927  23.815  0.00  0.00    -0.018 A 
ATOM     10  C17 AGY d          29.278  -5.584  23.392  0.00  0.00    -0.073 A 
ATOM     11  C15 AGY d          29.706  -5.546  22.014  0.00  0.00    -0.067 A 
ATOM     12  H13 AGY d          29.885  -6.102  24.126  0.00  0.00     0.084 H 
ATOM     13  H12 AGY d          30.629  -6.034  21.725  0.00  0.00     0.085 H 
BRANCH   7  14
ATOM     14  N4  AGY d          26.100  -3.664  23.015  0.00  0.00    -0.115 N 
ATOM     15  O3  AGY d          26.064  -2.375  23.204  0.00  0.00    -0.532 OA
ATOM     16  O4  AGY d          24.937  -4.420  23.092  0.00  0.00    -0.532 OA
ENDBRANCH   7  14
BRANCH   9  17
ATOM     17  C19 AGY d          27.617  -5.002  25.307  0.00  0.00    -0.022 C 
BRANCH  17  18
ATOM     18  C20 AGY d          28.775  -5.385  26.260  0.00  0.00    -0.066 C 
ATOM     19  H14 AGY d          29.692  -5.550  25.675  0.00  0.00     0.028 H 
ATOM     20  H15 AGY d          28.515  -6.307  26.800  0.00  0.00     0.028 H 
ATOM     21  H16 AGY d          28.940  -4.571  26.981  0.00  0.00     0.028 H 
ENDBRANCH  17  18
BRANCH  17  22
ATOM     22  C21 AGY d          27.138  -3.714  26.077  0.00  0.00    -0.066 C 
ATOM     23  H17 AGY d          27.809  -3.525  26.927  0.00  0.00     0.028 H 
ATOM     24  H18 AGY d          26.113  -3.867  26.446  0.00  0.00     0.028 H 
ATOM     25  H19 AGY d          27.157  -2.851  25.396  0.00  0.00     0.028 H 
ENDBRANCH  17  22
BRANCH  17  26
ATOM     26  C22 AGY d          26.426  -5.977  25.388  0.00  0.00    -0.066 C 
ATOM     27  H20 AGY d          25.512  -5.419  25.642  0.00  0.00     0.028 H 
ATOM     28  H21 AGY d          26.623  -6.732  26.163  0.00  0.00     0.028 H 
ATOM     29  H22 AGY d          26.293  -6.475  24.416  0.00  0.00     0.028 H 
ENDBRANCH  17  26
ENDBRANCH   9  17
ENDBRANCH   3   5
BRANCH   2  30
ATOM     30  N2  AGY d          29.731  -3.759  17.556  0.00  0.00    -0.248 N 
ATOM     31  C10 AGY d          30.847  -3.136  17.089  0.00  0.00     0.339 C 
ATOM     32  N1  AGY d          31.628  -2.380  17.915  0.00  0.00    -0.307 N 
ATOM     33  O1  AGY d          31.124  -3.284  15.891  0.00  0.00    -0.245 OA
ATOM     34  H1  AGY d          31.314  -2.334  18.864  0.00  0.00     0.170 HD
ATOM     35  H2  AGY d          29.190  -4.305  16.917  0.00  0.00     0.192 HD
BRANCH  32  36
ATOM     36  C2  AGY d          32.791  -1.662  17.648  0.00  0.00     0.047 A 
ATOM     37  C1  AGY d          34.127  -2.241  17.616  0.00  0.00     0.001 A 
ATOM     38  C3  AGY d          35.311  -1.378  17.318  0.00  0.00    -0.024 A 
ATOM     39  C4  AGY d          34.336  -3.648  17.870  0.00  0.00    -0.070 A 
ATOM     40  C6  AGY d          35.146   0.032  17.061  0.00  0.00    -0.072 A 
ATOM     41  C7  AGY d          36.618  -1.951  17.287  0.00  0.00    -0.072 A 
ATOM     42  C9  AGY d          33.806   0.608  17.094  0.00  0.00    -0.080 A 
ATOM     43  H6  AGY d          36.007   0.655  16.845  0.00  0.00     0.084 H 
ATOM     44  C5  AGY d          32.653  -0.232  17.385  0.00  0.00    -0.056 A 
ATOM     45  H9  AGY d          33.669   1.666  16.902  0.00  0.00     0.083 H 
ATOM     46  H5  AGY d          31.665   0.215  17.405  0.00  0.00     0.086 H 
ATOM     47  C11 AGY d          36.804  -3.366  17.545  0.00  0.00    -0.082 A 
ATOM     48  H7  AGY d          37.475  -1.325  17.071  0.00  0.00     0.084 H 
ATOM     49  C8  AGY d          35.666  -4.210  17.834  0.00  0.00    -0.082 A 
ATOM     50  H10 AGY d          37.800  -3.793  17.521  0.00  0.00     0.083 H 
ATOM     51  H8  AGY d          35.812  -5.267  18.026  0.00  0.00     0.083 H 
ATOM     52  H4  AGY d          33.487  -4.287  18.088  0.00  0.00     0.084 H 
ENDBRANCH  32  36
ENDBRANCH   2  30
TORSDOF 8
ENDMDL
MODEL 3
REMARK VINA RESULT:      -7.5      0.534      2.112
REMARK  8 active torsions:
REMARK  status: ('A' for Active; 'I' for Inactive)
REMARK    1  A    between atoms: N1_2  and  C2_4 
REMARK       I    between atoms: C10_18  and  N1_2 
REMARK    2  A    between atoms: N3_8  and  N2_5 
REMARK       I    between atoms: N2_5  and  C10_18 
REMARK       I    between atoms: C12_20  and  N3_8 
REMARK    3  A    between atoms: C16_24  and  N4_11 
REMARK    4  A    between atoms: C13_21  and  C12_20 
REMARK    5  A    between atoms: C18_26  and  C19_27 
REMARK    6  A    between atoms: C19_27  and  C20_28 
REMARK    7  A    between atoms: C19_27  and  C21_29 
REMARK    8  A    between atoms: C19_27  and  C22_30 
ROOT
ATOM      1  O2  AGY d          29.731  -5.787  19.024  0.00  0.00    -0.266 OA
ATOM      2  N3  AGY d          29.033  -3.734  18.432  0.00  0.00    -0.262 N 
ATOM      3  C12 AGY d          29.151  -4.732  19.349  0.00  0.00     0.270 C 
ATOM      4  H3  AGY d          28.576  -2.869  18.639  0.00  0.00     0.190 HD
ENDROOT
BRANCH   3   5
ATOM      5  C13 AGY d          28.599  -4.573  20.693  0.00  0.00     0.036 A 
ATOM      6  C14 AGY d          29.109  -5.355  21.750  0.00  0.00    -0.035 A 
ATOM      7  C16 AGY d          28.610  -5.235  23.087  0.00  0.00     0.111 A 
ATOM      8  H11 AGY d          29.901  -6.067  21.544  0.00  0.00     0.088 H 
ATOM      9  C18 AGY d          27.528  -4.285  23.407  0.00  0.00    -0.018 A 
ATOM     10  C17 AGY d          27.014  -3.480  22.283  0.00  0.00    -0.073 A 
ATOM     11  C15 AGY d          27.552  -3.636  20.953  0.00  0.00    -0.067 A 
ATOM     12  H13 AGY d          26.220  -2.762  22.459  0.00  0.00     0.084 H 
ATOM     13  H12 AGY d          27.157  -3.035  20.141  0.00  0.00     0.085 H 
BRANCH   7  14
ATOM     14  N4  AGY d          29.175  -5.975  24.025  0.00  0.00    -0.115 N 
ATOM     15  O3  AGY d          28.608  -7.092  24.385  0.00  0.00    -0.532 OA
ATOM     16  O4  AGY d          30.358  -5.560  24.625  0.00  0.00    -0.532 OA
ENDBRANCH   7  14
BRANCH   9  17
ATOM     17  C19 AGY d          26.916  -4.074  24.814  0.00  0.00    -0.022 C 
BRANCH  17  18
ATOM     18  C20 AGY d          26.031  -5.249  25.296  0.00  0.00    -0.066 C 
ATOM     19  H14 AGY d          24.971  -4.998  25.140  0.00  0.00     0.028 H 
ATOM     20  H15 AGY d          26.211  -5.429  26.366  0.00  0.00     0.028 H 
ATOM     21  H16 AGY d          26.282  -6.155  24.725  0.00  0.00     0.028 H 
ENDBRANCH  17  18
BRANCH  17  22
ATOM     22  C21 AGY d          27.837  -3.978  26.088  0.00  0.00    -0.066 C 
ATOM     23  H17 AGY d          28.227  -2.954  26.182  0.00  0.00     0.028 H 
ATOM     24  H18 AGY d          28.676  -4.682  25.987  0.00  0.00     0.028 H 
ATOM     25  H19 AGY d          27.252  -4.231  26.984  0.00  0.00     0.028 H 
ENDBRANCH  17  22
BRANCH  17  26
ATOM     26  C22 AGY d          26.159  -2.733  24.770  0.00  0.00    -0.066 C 
ATOM     27  H20 AGY d          25.153  -2.893  24.355  0.00  0.00     0.028 H 
ATOM     28  H21 AGY d          26.709  -2.022  24.134  0.00  0.00     0.028 H 
ATOM     29  H22 AGY d          26.076  -2.325  25.789  0.00  0.00     0.028 H 
ENDBRANCH  17  26
ENDBRANCH   9  17
ENDBRANCH   3   5
BRANCH   2  30
ATOM     30  N2  AGY d          29.612  -4.007  17.147  0.00  0.00    -0.248 N 
ATOM     31  C10 AGY d          30.929  -3.818  16.862  0.00  0.00     0.339 C 
ATOM     32  N1  AGY d          31.793  -3.350  17.811  0.00  0.00    -0.307 N 
ATOM     33  O1  AGY d          31.310  -4.088  15.715  0.00  0.00    -0.245 OA
ATOM     34  H1  AGY d          31.379  -3.171  18.704  0.00  0.00     0.170 HD
ATOM     35  H2  AGY d          29.016  -4.354  16.423  0.00  0.00     0.192 HD
BRANCH  32  36
ATOM     36  C2  AGY d          33.157  -3.082  17.734  0.00  0.00     0.047 A 
ATOM     37  C1  AGY d          33.726  -1.756  17.541  0.00  0.00     0.001 A 
ATOM     38  C3  AGY d          35.209  -1.579  17.474  0.00  0.00    -0.024 A 
ATOM     39  C4  AGY d          32.878  -0.593  17.411  0.00  0.00    -0.070 A 
ATOM     40  C6  AGY d          36.091  -2.714  17.597  0.00  0.00    -0.072 A 
ATOM     41  C7  AGY d          35.761  -0.276  17.284  0.00  0.00    -0.072 A 
ATOM     42  C9  AGY d          35.517  -4.041  17.790  0.00  0.00    -0.080 A 
ATOM     43  H6  AGY d          37.165  -2.582  17.548  0.00  0.00     0.084 H 
ATOM     44  C5  AGY d          34.072  -4.214  17.856  0.00  0.00    -0.056 A 
ATOM     45  H9  AGY d          36.169  -4.902  17.885  0.00  0.00     0.083 H 
ATOM     46  H5  AGY d          33.665  -5.208  18.000  0.00  0.00     0.086 H 
ATOM     47  C11 AGY d          34.891   0.877  17.156  0.00  0.00    -0.082 A 
ATOM     48  H7  AGY d          36.836  -0.149  17.236  0.00  0.00     0.084 H 
ATOM     49  C8  AGY d          33.456   0.717  17.220  0.00  0.00    -0.082 A 
ATOM     50  H10 AGY d          35.319   1.863  17.012  0.00  0.00     0.083 H 
ATOM     51  H8  AGY d          32.811   1.583  17.123  0.00  0.00     0.083 H 
ATOM     52  H4  AGY d          31.801  -0.705  17.458  0.00  0.00     0.084 H 
ENDBRANCH  32  36
ENDBRANCH   2  30
TORSDOF 8
ENDMDL
MODEL 4
REMARK VINA RESULT:      -7.1      1.762      2.938
REMARK  8 active torsions:
REMARK  status: ('A' for Active; 'I' for Inactive)
REMARK    1  A    between atoms: N1_2  and  C2_4 
REMARK       I    between atoms: C10_18  and  N1_2 
REMARK    2  A    between atoms: N3_8  and  N2_5 
REMARK       I    between atoms: N2_5  and  C10_18 
REMARK       I    between atoms: C12_20  and  N3_8 
REMARK    3  A    between atoms: C16_24  and  N4_11 
REMARK    4  A    between atoms: C13_21  and  C12_20 
REMARK    5  A    between atoms: C18_26  and  C19_27 
REMARK    6  A    between atoms: C19_27  and  C20_28 
REMARK    7  A    between atoms: C19_27  and  C21_29 
REMARK    8  A    between atoms: C19_27  and  C22_30 
ROOT
ATOM      1  O2  AGY d          29.858  -5.844  19.362  0.00  0.00    -0.266 OA
ATOM      2  N3  AGY d          29.346  -3.735  18.775  0.00  0.00    -0.262 N 
ATOM      3  C12 AGY d          29.410  -4.731  19.700  0.00  0.00     0.270 C 
ATOM      4  H3  AGY d          28.993  -2.826  18.992  0.00  0.00     0.190 HD
ENDROOT
BRANCH   3   5
ATOM      5  C13 AGY d          28.952  -4.500  21.069  0.00  0.00     0.036 A 
ATOM      6  C14 AGY d          27.598  -4.185  21.304  0.00  0.00    -0.035 A 
ATOM      7  C16 AGY d          27.094  -3.956  22.625  0.00  0.00     0.111 A 
ATOM      8  H11 AGY d          26.919  -4.113  20.462  0.00  0.00     0.088 H 
ATOM      9  C18 AGY d          27.986  -4.035  23.798  0.00  0.00    -0.018 A 
ATOM     10  C17 AGY d          29.396  -4.367  23.523  0.00  0.00    -0.073 A 
ATOM     11  C15 AGY d          29.855  -4.591  22.173  0.00  0.00    -0.067 A 
ATOM     12  H13 AGY d          30.098  -4.442  24.346  0.00  0.00     0.084 H 
ATOM     13  H12 AGY d          30.897  -4.832  21.994  0.00  0.00     0.085 H 
BRANCH   7  14
ATOM     14  N4  AGY d          25.802  -3.709  22.759  0.00  0.00    -0.115 N 
ATOM     15  O3  AGY d          25.008  -4.665  23.151  0.00  0.00    -0.532 OA
ATOM     16  O4  AGY d          25.298  -2.446  22.475  0.00  0.00    -0.532 OA
ENDBRANCH   7  14
BRANCH   9  17
ATOM     17  C19 AGY d          27.548  -3.807  25.266  0.00  0.00    -0.022 C 
BRANCH  17  18
ATOM     18  C20 AGY d          27.883  -2.397  25.809  0.00  0.00    -0.066 C 
ATOM     19  H14 AGY d          28.887  -2.406  26.258  0.00  0.00     0.028 H 
ATOM     20  H15 AGY d          27.144  -2.114  26.573  0.00  0.00     0.028 H 
ATOM     21  H16 AGY d          27.856  -1.670  24.984  0.00  0.00     0.028 H 
ENDBRANCH  17  18
BRANCH  17  22
ATOM     22  C21 AGY d          26.024  -3.822  25.664  0.00  0.00    -0.066 C 
ATOM     23  H17 AGY d          25.502  -4.602  25.092  0.00  0.00     0.028 H 
ATOM     24  H18 AGY d          25.577  -2.842  25.439  0.00  0.00     0.028 H 
ATOM     25  H19 AGY d          25.928  -4.030  26.740  0.00  0.00     0.028 H 
ENDBRANCH  17  22
BRANCH  17  26
ATOM     26  C22 AGY d          28.185  -4.937  26.097  0.00  0.00    -0.066 C 
ATOM     27  H20 AGY d          28.712  -5.633  25.427  0.00  0.00     0.028 H 
ATOM     28  H21 AGY d          27.398  -5.479  26.643  0.00  0.00     0.028 H 
ATOM     29  H22 AGY d          28.899  -4.507  26.815  0.00  0.00     0.028 H 
ENDBRANCH  17  26
ENDBRANCH   9  17
ENDBRANCH   3   5
BRANCH   2  30
ATOM     30  N2  AGY d          29.821  -4.081  17.465  0.00  0.00    -0.248 N 
ATOM     31  C10 AGY d          31.109  -3.902  17.063  0.00  0.00     0.339 C 
ATOM     32  N1  AGY d          32.041  -3.372  17.909  0.00  0.00    -0.307 N 
ATOM     33  O1  AGY d          31.398  -4.237  15.907  0.00  0.00    -0.245 OA
ATOM     34  H1  AGY d          31.699  -3.143  18.821  0.00  0.00     0.170 HD
ATOM     35  H2  AGY d          29.172  -4.475  16.814  0.00  0.00     0.192 HD
BRANCH  32  36
ATOM     36  C2  AGY d          33.392  -3.101  17.705  0.00  0.00     0.047 A 
ATOM     37  C1  AGY d          33.943  -1.769  17.500  0.00  0.00     0.001 A 
ATOM     38  C3  AGY d          35.412  -1.589  17.291  0.00  0.00    -0.024 A 
ATOM     39  C4  AGY d          33.089  -0.602  17.495  0.00  0.00    -0.070 A 
ATOM     40  C6  AGY d          36.298  -2.727  17.288  0.00  0.00    -0.072 A 
ATOM     41  C7  AGY d          35.946  -0.280  17.091  0.00  0.00    -0.072 A 
ATOM     42  C9  AGY d          35.743  -4.060  17.493  0.00  0.00    -0.080 A 
ATOM     43  H6  AGY d          37.363  -2.593  17.135  0.00  0.00     0.084 H 
ATOM     44  C5  AGY d          34.312  -4.236  17.697  0.00  0.00    -0.056 A 
ATOM     45  H9  AGY d          36.398  -4.924  17.494  0.00  0.00     0.083 H 
ATOM     46  H5  AGY d          33.918  -5.235  17.847  0.00  0.00     0.086 H 
ATOM     47  C11 AGY d          35.070   0.876  17.088  0.00  0.00    -0.082 A 
ATOM     48  H7  AGY d          37.011  -0.151  16.939  0.00  0.00     0.084 H 
ATOM     49  C8  AGY d          33.648   0.714  17.290  0.00  0.00    -0.082 A 
ATOM     50  H10 AGY d          35.484   1.867  16.935  0.00  0.00     0.083 H 
ATOM     51  H8  AGY d          32.999   1.582  17.288  0.00  0.00     0.083 H 
ATOM     52  H4  AGY d          32.021  -0.716  17.645  0.00  0.00     0.084 H 
ENDBRANCH  32  36
ENDBRANCH   2  30
TORSDOF 8
ENDMDL
MODEL 5
REMARK VINA RESULT:      -6.9      1.914      9.385
REMARK  8 active torsions:
REMARK  status: ('A' for Active; 'I' for Inactive)
REMARK    1  A    between atoms: N1_2  and  C2_4 
REMARK       I    between atoms: C10_18  and  N1_2 
REMARK    2  A    between atoms: N3_8  and  N2_5 
REMARK       I    between atoms: N2_5  and  C10_18 
REMARK       I    between atoms: C12_20  and  N3_8 
REMARK    3  A    between atoms: C16_24  and  N4_11 
REMARK    4  A    between atoms: C13_21  and  C12_20 
REMARK    5  A    between atoms: C18_26  and  C19_27 
REMARK    6  A    between atoms: C19_27  and  C20_28 
REMARK    7  A    between atoms: C19_27  and  C21_29 
REMARK    8  A    between atoms: C19_27  and  C22_30 
ROOT
ATOM      1  O2  AGY d          29.907  -4.449  17.738  0.00  0.00    -0.266 OA
ATOM      2  N3  AGY d          31.190  -5.559  19.213  0.00  0.00    -0.262 N 
ATOM      3  C12 AGY d          31.027  -4.595  18.267  0.00  0.00     0.270 C 
ATOM      4  H3  AGY d          32.066  -5.720  19.666  0.00  0.00     0.190 HD
ENDROOT
BRANCH   3   5
ATOM      5  C13 AGY d          32.150  -3.747  17.873  0.00  0.00     0.036 A 
ATOM      6  C14 AGY d          31.920  -2.388  17.569  0.00  0.00    -0.035 A 
ATOM      7  C16 AGY d          32.985  -1.511  17.184  0.00  0.00     0.111 A 
ATOM      8  H11 AGY d          30.910  -1.998  17.629  0.00  0.00     0.088 H 
ATOM      9  C18 AGY d          34.371  -2.004  17.083  0.00  0.00    -0.018 A 
ATOM     10  C17 AGY d          34.582  -3.427  17.406  0.00  0.00    -0.073 A 
ATOM     11  C15 AGY d          33.476  -4.271  17.792  0.00  0.00    -0.067 A 
ATOM     12  H13 AGY d          35.581  -3.845  17.352  0.00  0.00     0.084 H 
ATOM     13  H12 AGY d          33.654  -5.315  18.024  0.00  0.00     0.085 H 
BRANCH   7  14
ATOM     14  N4  AGY d          32.688  -0.242  16.960  0.00  0.00    -0.115 N 
ATOM     15  O3  AGY d          32.554   0.174  15.732  0.00  0.00    -0.532 OA
ATOM     16  O4  AGY d          32.529   0.637  18.024  0.00  0.00    -0.532 OA
ENDBRANCH   7  14
BRANCH   9  17
ATOM     17  C19 AGY d          35.594  -1.145  16.677  0.00  0.00    -0.022 C 
BRANCH  17  18
ATOM     18  C20 AGY d          35.752  -0.958  15.149  0.00  0.00    -0.066 C 
ATOM     19  H14 AGY d          36.811  -0.781  14.908  0.00  0.00     0.028 H 
ATOM     20  H15 AGY d          35.153  -0.096  14.821  0.00  0.00     0.028 H 
ATOM     21  H16 AGY d          35.404  -1.865  14.631  0.00  0.00     0.028 H 
ENDBRANCH  17  18
BRANCH  17  22
ATOM     22  C21 AGY d          35.678   0.377  17.077  0.00  0.00    -0.066 C 
ATOM     23  H17 AGY d          34.962   0.954  16.475  0.00  0.00     0.028 H 
ATOM     24  H18 AGY d          36.697   0.749  16.891  0.00  0.00     0.028 H 
ATOM     25  H19 AGY d          35.435   0.490  18.144  0.00  0.00     0.028 H 
ENDBRANCH  17  22
BRANCH  17  26
ATOM     26  C22 AGY d          36.828  -1.795  17.333  0.00  0.00    -0.066 C 
ATOM     27  H20 AGY d          36.518  -2.338  18.238  0.00  0.00     0.028 H 
ATOM     28  H21 AGY d          37.553  -1.013  17.604  0.00  0.00     0.028 H 
ATOM     29  H22 AGY d          37.292  -2.497  16.624  0.00  0.00     0.028 H 
ENDBRANCH  17  26
ENDBRANCH   9  17
ENDBRANCH   3   5
BRANCH   2  30
ATOM     30  N2  AGY d          30.016  -6.330  19.515  0.00  0.00    -0.248 N 
ATOM     31  C10 AGY d          29.318  -6.209  20.677  0.00  0.00     0.339 C 
ATOM     32  N1  AGY d          29.706  -5.321  21.640  0.00  0.00    -0.307 N 
ATOM     33  O1  AGY d          28.323  -6.931  20.823  0.00  0.00    -0.245 OA
ATOM     34  H1  AGY d          30.520  -4.785  21.414  0.00  0.00     0.170 HD
ATOM     35  H2  AGY d          29.696  -6.990  18.836  0.00  0.00     0.192 HD
BRANCH  32  36
ATOM     36  C2  AGY d          29.149  -5.044  22.886  0.00  0.00     0.047 A 
ATOM     37  C1  AGY d          27.934  -4.269  23.091  0.00  0.00     0.001 A 
ATOM     38  C3  AGY d          27.421  -4.031  24.475  0.00  0.00    -0.024 A 
ATOM     39  C4  AGY d          27.203  -3.720  21.972  0.00  0.00    -0.070 A 
ATOM     40  C6  AGY d          28.121  -4.561  25.619  0.00  0.00    -0.072 A 
ATOM     41  C7  AGY d          26.229  -3.271  24.670  0.00  0.00    -0.072 A 
ATOM     42  C9  AGY d          29.340  -5.336  25.410  0.00  0.00    -0.080 A 
ATOM     43  H6  AGY d          27.747  -4.385  26.621  0.00  0.00     0.084 H 
ATOM     44  C5  AGY d          29.839  -5.569  24.062  0.00  0.00    -0.056 A 
ATOM     45  H9  AGY d          29.875  -5.740  26.261  0.00  0.00     0.083 H 
ATOM     46  H5  AGY d          30.746  -6.147  23.927  0.00  0.00     0.086 H 
ATOM     47  C11 AGY d          25.511  -2.728  23.532  0.00  0.00    -0.082 A 
ATOM     48  H7  AGY d          25.858  -3.099  25.673  0.00  0.00     0.084 H 
ATOM     49  C8  AGY d          25.998  -2.953  22.189  0.00  0.00    -0.082 A 
ATOM     50  H10 AGY d          24.606  -2.152  23.689  0.00  0.00     0.083 H 
ATOM     51  H8  AGY d          25.457  -2.545  21.343  0.00  0.00     0.083 H 
ATOM     52  H4  AGY d          27.561  -3.884  20.962  0.00  0.00     0.084 H 
ENDBRANCH  32  36
ENDBRANCH   2  30
TORSDOF 8
ENDMDL
MODEL 6
REMARK VINA RESULT:      -6.4      2.188      9.240
REMARK  8 active torsions:
REMARK  status: ('A' for Active; 'I' for Inactive)
REMARK    1  A    between atoms: N1_2  and  C2_4 
REMARK       I    between atoms: C10_18  and  N1_2 
REMARK    2  A    between atoms: N3_8  and  N2_5 
REMARK       I    between atoms: N2_5  and  C10_18 
REMARK       I    between atoms: C12_20  and  N3_8 
REMARK    3  A    between atoms: C16_24  and  N4_11 
REMARK    4  A    between atoms: C13_21  and  C12_20 
REMARK    5  A    between atoms: C18_26  and  C19_27 
REMARK    6  A    between atoms: C19_27  and  C20_28 
REMARK    7  A    between atoms: C19_27  and  C21_29 
REMARK    8  A    between atoms: C19_27  and  C22_30 
ROOT
ATOM      1  O2  AGY d          29.616  -4.792  17.822  0.00  0.00    -0.266 OA
ATOM      2  N3  AGY d          31.081  -5.855  19.155  0.00  0.00    -0.262 N 
ATOM      3  C12 AGY d          30.788  -4.899  18.232  0.00  0.00     0.270 C 
ATOM      4  H3  AGY d          32.005  -5.985  19.515  0.00  0.00     0.190 HD
ENDROOT
BRANCH   3   5
ATOM      5  C13 AGY d          31.835  -4.014  17.724  0.00  0.00     0.036 A 
ATOM      6  C14 AGY d          33.158  -4.491  17.624  0.00  0.00    -0.035 A 
ATOM      7  C16 AGY d          34.221  -3.670  17.127  0.00  0.00     0.111 A 
ATOM      8  H11 AGY d          33.377  -5.507  17.932  0.00  0.00     0.088 H 
ATOM      9  C18 AGY d          33.967  -2.279  16.706  0.00  0.00    -0.018 A 
ATOM     10  C17 AGY d          32.575  -1.807  16.821  0.00  0.00    -0.073 A 
ATOM     11  C15 AGY d          31.538  -2.674  17.326  0.00  0.00    -0.067 A 
ATOM     12  H13 AGY d          32.328  -0.794  16.523  0.00  0.00     0.084 H 
ATOM     13  H12 AGY d          30.521  -2.305  17.403  0.00  0.00     0.085 H 
BRANCH   7  14
ATOM     14  N4  AGY d          35.423  -4.211  17.026  0.00  0.00    -0.115 N 
ATOM     15  O3  AGY d          36.290  -4.022  17.979  0.00  0.00    -0.532 OA
ATOM     16  O4  AGY d          35.758  -4.966  15.908  0.00  0.00    -0.532 OA
ENDBRANCH   7  14
BRANCH   9  17
ATOM     17  C19 AGY d          35.039  -1.307  16.155  0.00  0.00    -0.022 C 
BRANCH  17  18
ATOM     18  C20 AGY d          36.021  -0.779  17.229  0.00  0.00    -0.066 C 
ATOM     19  H14 AGY d          36.388  -1.620  17.835  0.00  0.00     0.028 H 
ATOM     20  H15 AGY d          35.501  -0.059  17.878  0.00  0.00     0.028 H 
ATOM     21  H16 AGY d          36.870  -0.282  16.737  0.00  0.00     0.028 H 
ENDBRANCH  17  18
BRANCH  17  22
ATOM     22  C21 AGY d          36.119  -1.799  15.118  0.00  0.00    -0.066 C 
ATOM     23  H17 AGY d          35.892  -2.832  14.816  0.00  0.00     0.028 H 
ATOM     24  H18 AGY d          37.115  -1.763  15.582  0.00  0.00     0.028 H 
ATOM     25  H19 AGY d          36.102  -1.146  14.233  0.00  0.00     0.028 H 
ENDBRANCH  17  22
BRANCH  17  26
ATOM     26  C22 AGY d          34.281  -0.178  15.429  0.00  0.00    -0.066 C 
ATOM     27  H20 AGY d          33.271  -0.082  15.856  0.00  0.00     0.028 H 
ATOM     28  H21 AGY d          34.205  -0.417  14.358  0.00  0.00     0.028 H 
ATOM     29  H22 AGY d          34.825   0.770  15.556  0.00  0.00     0.028 H 
ENDBRANCH  17  26
ENDBRANCH   9  17
ENDBRANCH   3   5
BRANCH   2  30
ATOM     30  N2  AGY d          29.972  -6.664  19.576  0.00  0.00    -0.248 N 
ATOM     31  C10 AGY d          29.313  -6.478  20.752  0.00  0.00     0.339 C 
ATOM     32  N1  AGY d          29.679  -5.484  21.613  0.00  0.00    -0.307 N 
ATOM     33  O1  AGY d          28.372  -7.243  21.006  0.00  0.00    -0.245 OA
ATOM     34  H1  AGY d          30.447  -4.923  21.305  0.00  0.00     0.170 HD
ATOM     35  H2  AGY d          29.669  -7.402  18.974  0.00  0.00     0.192 HD
BRANCH  32  36
ATOM     36  C2  AGY d          29.153  -5.127  22.853  0.00  0.00     0.047 A 
ATOM     37  C1  AGY d          27.970  -4.299  23.038  0.00  0.00     0.001 A 
ATOM     38  C3  AGY d          27.490  -3.976  24.416  0.00  0.00    -0.024 A 
ATOM     39  C4  AGY d          27.241  -3.777  21.905  0.00  0.00    -0.070 A 
ATOM     40  C6  AGY d          28.189  -4.476  25.574  0.00  0.00    -0.072 A 
ATOM     41  C7  AGY d          26.329  -3.164  24.592  0.00  0.00    -0.072 A 
ATOM     42  C9  AGY d          29.375  -5.304  25.385  0.00  0.00    -0.080 A 
ATOM     43  H6  AGY d          27.839  -4.239  26.572  0.00  0.00     0.084 H 
ATOM     44  C5  AGY d          29.843  -5.620  24.042  0.00  0.00    -0.056 A 
ATOM     45  H9  AGY d          29.910  -5.687  26.247  0.00  0.00     0.083 H 
ATOM     46  H5  AGY d          30.727  -6.237  23.922  0.00  0.00     0.086 H 
ATOM     47  C11 AGY d          25.613  -2.650  23.440  0.00  0.00    -0.082 A 
ATOM     48  H7  AGY d          25.981  -2.930  25.591  0.00  0.00     0.084 H 
ATOM     49  C8  AGY d          26.068  -2.957  22.103  0.00  0.00    -0.082 A 
ATOM     50  H10 AGY d          24.732  -2.034  23.582  0.00  0.00     0.083 H 
ATOM     51  H8  AGY d          25.529  -2.570  21.246  0.00  0.00     0.083 H 
ATOM     52  H4  AGY d          27.577  -4.002  20.899  0.00  0.00     0.084 H 
ENDBRANCH  32  36
ENDBRANCH   2  30
TORSDOF 8
ENDMDL
MODEL 7
REMARK VINA RESULT:      -6.3      1.318      2.377
REMARK  8 active torsions:
REMARK  status: ('A' for Active; 'I' for Inactive)
REMARK    1  A    between atoms: N1_2  and  C2_4 
REMARK       I    between atoms: C10_18  and  N1_2 
REMARK    2  A    between atoms: N3_8  and  N2_5 
REMARK       I    between atoms: N2_5  and  C10_18 
REMARK       I    between atoms: C12_20  and  N3_8 
REMARK    3  A    between atoms: C16_24  and  N4_11 
REMARK    4  A    between atoms: C13_21  and  C12_20 
REMARK    5  A    between atoms: C18_26  and  C19_27 
REMARK    6  A    between atoms: C19_27  and  C20_28 
REMARK    7  A    between atoms: C19_27  and  C21_29 
REMARK    8  A    between atoms: C19_27  and  C22_30 
ROOT
ATOM      1  O2  AGY d          29.669  -5.741  18.784  0.00  0.00    -0.266 OA
ATOM      2  N3  AGY d          29.361  -3.544  18.418  0.00  0.00    -0.262 N 
ATOM      3  C12 AGY d          29.277  -4.641  19.220  0.00  0.00     0.270 C 
ATOM      4  H3  AGY d          29.059  -2.640  18.717  0.00  0.00     0.190 HD
ENDROOT
BRANCH   3   5
ATOM      5  C13 AGY d          28.727  -4.532  20.570  0.00  0.00     0.036 A 
ATOM      6  C14 AGY d          29.241  -5.350  21.597  0.00  0.00    -0.035 A 
ATOM      7  C16 AGY d          28.745  -5.280  22.938  0.00  0.00     0.111 A 
ATOM      8  H11 AGY d          30.034  -6.053  21.364  0.00  0.00     0.088 H 
ATOM      9  C18 AGY d          27.662  -4.344  23.294  0.00  0.00    -0.018 A 
ATOM     10  C17 AGY d          27.143  -3.501  22.202  0.00  0.00    -0.073 A 
ATOM     11  C15 AGY d          27.679  -3.607  20.865  0.00  0.00    -0.067 A 
ATOM     12  H13 AGY d          26.349  -2.791  22.405  0.00  0.00     0.084 H 
ATOM     13  H12 AGY d          27.281  -2.978  20.078  0.00  0.00     0.085 H 
BRANCH   7  14
ATOM     14  N4  AGY d          29.314  -6.052  23.848  0.00  0.00    -0.115 N 
ATOM     15  O3  AGY d          29.023  -7.322  23.879  0.00  0.00    -0.532 OA
ATOM     16  O4  AGY d          30.207  -5.511  24.765  0.00  0.00    -0.532 OA
ENDBRANCH   7  14
BRANCH   9  17
ATOM     17  C19 AGY d          27.052  -4.186  24.709  0.00  0.00    -0.022 C 
BRANCH  17  18
ATOM     18  C20 AGY d          27.982  -3.468  25.717  0.00  0.00    -0.066 C 
ATOM     19  H14 AGY d          27.779  -3.839  26.733  0.00  0.00     0.028 H 
ATOM     20  H15 AGY d          27.796  -2.384  25.680  0.00  0.00     0.028 H 
ATOM     21  H16 AGY d          29.032  -3.669  25.456  0.00  0.00     0.028 H 
ENDBRANCH  17  18
BRANCH  17  22
ATOM     22  C21 AGY d          25.774  -3.295  24.942  0.00  0.00    -0.066 C 
ATOM     23  H17 AGY d          25.782  -2.903  25.970  0.00  0.00     0.028 H 
ATOM     24  H18 AGY d          24.871  -3.903  24.788  0.00  0.00     0.028 H 
ATOM     25  H19 AGY d          25.777  -2.456  24.231  0.00  0.00     0.028 H 
ENDBRANCH  17  22
BRANCH  17  26
ATOM     26  C22 AGY d          26.641  -5.597  25.173  0.00  0.00    -0.066 C 
ATOM     27  H20 AGY d          25.956  -5.515  26.031  0.00  0.00     0.028 H 
ATOM     28  H21 AGY d          27.538  -6.160  25.473  0.00  0.00     0.028 H 
ATOM     29  H22 AGY d          26.136  -6.121  24.349  0.00  0.00     0.028 H 
ENDBRANCH  17  26
ENDBRANCH   9  17
ENDBRANCH   3   5
BRANCH   2  30
ATOM     30  N2  AGY d          29.915  -3.777  17.114  0.00  0.00    -0.248 N 
ATOM     31  C10 AGY d          31.252  -3.837  16.868  0.00  0.00     0.339 C 
ATOM     32  N1  AGY d          32.160  -3.679  17.876  0.00  0.00    -0.307 N 
ATOM     33  O1  AGY d          31.609  -4.040  15.700  0.00  0.00    -0.245 OA
ATOM     34  H1  AGY d          31.761  -3.526  18.780  0.00  0.00     0.170 HD
ATOM     35  H2  AGY d          29.286  -3.901  16.348  0.00  0.00     0.192 HD
BRANCH  32  36
ATOM     36  C2  AGY d          33.552  -3.697  17.845  0.00  0.00     0.047 A 
ATOM     37  C1  AGY d          34.365  -4.892  18.024  0.00  0.00     0.001 A 
ATOM     38  C3  AGY d          35.856  -4.800  17.972  0.00  0.00    -0.024 A 
ATOM     39  C4  AGY d          33.753  -6.181  18.255  0.00  0.00    -0.070 A 
ATOM     40  C6  AGY d          36.506  -3.532  17.746  0.00  0.00    -0.072 A 
ATOM     41  C7  AGY d          36.647  -5.974  18.148  0.00  0.00    -0.072 A 
ATOM     42  C9  AGY d          35.689  -2.336  17.568  0.00  0.00    -0.080 A 
ATOM     43  H6  AGY d          37.587  -3.468  17.709  0.00  0.00     0.084 H 
ATOM     44  C5  AGY d          34.236  -2.426  17.618  0.00  0.00    -0.056 A 
ATOM     45  H9  AGY d          36.165  -1.378  17.396  0.00  0.00     0.083 H 
ATOM     46  H5  AGY d          33.646  -1.527  17.484  0.00  0.00     0.086 H 
ATOM     47  C11 AGY d          36.012  -7.258  18.379  0.00  0.00    -0.082 A 
ATOM     48  H7  AGY d          37.728  -5.906  18.110  0.00  0.00     0.084 H 
ATOM     49  C8  AGY d          34.571  -7.359  18.431  0.00  0.00    -0.082 A 
ATOM     50  H10 AGY d          36.621  -8.145  18.512  0.00  0.00     0.083 H 
ATOM     51  H8  AGY d          34.102  -8.321  18.603  0.00  0.00     0.083 H 
ATOM     52  H4  AGY d          32.673  -6.264  18.295  0.00  0.00     0.084 H 
ENDBRANCH  32  36
ENDBRANCH   2  30
TORSDOF 8
ENDMDL
MODEL 8
REMARK VINA RESULT:      -5.1      1.659      2.848
REMARK  8 active torsions:
REMARK  status: ('A' for Active; 'I' for Inactive)
REMARK    1  A    between atoms: N1_2  and  C2_4 
REMARK       I    between atoms: C10_18  and  N1_2 
REMARK    2  A    between atoms: N3_8  and  N2_5 
REMARK       I    between atoms: N2_5  and  C10_18 
REMARK       I    between atoms: C12_20  and  N3_8 
REMARK    3  A    between atoms: C16_24  and  N4_11 
REMARK    4  A    between atoms: C13_21  and  C12_20 
REMARK    5  A    between atoms: C18_26  and  C19_27 
REMARK    6  A    between atoms: C19_27  and  C20_28 
REMARK    7  A    between atoms: C19_27  and  C21_29 
REMARK    8  A    between atoms: C19_27  and  C22_30 
ROOT
ATOM      1  O2  AGY d          29.422  -7.371  18.825  0.00  0.00    -0.266 OA
ATOM      2  N3  AGY d          30.208  -5.283  19.099  0.00  0.00    -0.262 N 
ATOM      3  C12 AGY d          29.574  -6.389  19.577  0.00  0.00     0.270 C 
ATOM      4  H3  AGY d          30.354  -4.468  19.658  0.00  0.00     0.190 HD
ENDROOT
BRANCH   3   5
ATOM      5  C13 AGY d          29.074  -6.420  20.950  0.00  0.00     0.036 A 
ATOM      6  C14 AGY d          29.613  -5.534  21.905  0.00  0.00    -0.035 A 
ATOM      7  C16 AGY d          29.155  -5.518  23.262  0.00  0.00     0.111 A 
ATOM      8  H11 AGY d          30.396  -4.847  21.604  0.00  0.00     0.088 H 
ATOM      9  C18 AGY d          28.098  -6.442  23.714  0.00  0.00    -0.018 A 
ATOM     10  C17 AGY d          27.552  -7.357  22.695  0.00  0.00    -0.073 A 
ATOM     11  C15 AGY d          28.045  -7.333  21.338  0.00  0.00    -0.067 A 
ATOM     12  H13 AGY d          26.770  -8.057  22.968  0.00  0.00     0.084 H 
ATOM     13  H12 AGY d          27.631  -8.016  20.605  0.00  0.00     0.085 H 
BRANCH   7  14
ATOM     14  N4  AGY d          29.684  -4.625  24.081  0.00  0.00    -0.115 N 
ATOM     15  O3  AGY d          30.659  -4.981  24.869  0.00  0.00    -0.532 OA
ATOM     16  O4  AGY d          29.199  -3.323  24.104  0.00  0.00    -0.532 OA
ENDBRANCH   7  14
BRANCH   9  17
ATOM     17  C19 AGY d          27.530  -6.508  25.153  0.00  0.00    -0.022 C 
BRANCH  17  18
ATOM     18  C20 AGY d          28.496  -7.144  26.181  0.00  0.00    -0.066 C 
ATOM     19  H14 AGY d          28.321  -8.230  26.227  0.00  0.00     0.028 H 
ATOM     20  H15 AGY d          28.319  -6.703  27.173  0.00  0.00     0.028 H 
ATOM     21  H16 AGY d          29.535  -6.953  25.875  0.00  0.00     0.028 H 
ENDBRANCH  17  18
BRANCH  17  22
ATOM     22  C21 AGY d          27.216  -5.191  25.958  0.00  0.00    -0.066 C 
ATOM     23  H17 AGY d          28.108  -4.885  26.523  0.00  0.00     0.028 H 
ATOM     24  H18 AGY d          26.386  -5.376  26.655  0.00  0.00     0.028 H 
ATOM     25  H19 AGY d          26.934  -4.391  25.257  0.00  0.00     0.028 H 
ENDBRANCH  17  22
BRANCH  17  26
ATOM     26  C22 AGY d          26.180  -7.247  25.062  0.00  0.00    -0.066 C 
ATOM     27  H20 AGY d          25.380  -6.597  25.446  0.00  0.00     0.028 H 
ATOM     28  H21 AGY d          26.225  -8.168  25.663  0.00  0.00     0.028 H 
ATOM     29  H22 AGY d          25.973  -7.504  24.012  0.00  0.00     0.028 H 
ENDBRANCH  17  26
ENDBRANCH   9  17
ENDBRANCH   3   5
BRANCH   2  30
ATOM     30  N2  AGY d          30.652  -5.369  17.736  0.00  0.00    -0.248 N 
ATOM     31  C10 AGY d          31.798  -4.791  17.283  0.00  0.00     0.339 C 
ATOM     32  N1  AGY d          32.607  -4.084  18.125  0.00  0.00    -0.307 N 
ATOM     33  O1  AGY d          32.074  -4.933  16.085  0.00  0.00    -0.245 OA
ATOM     34  H1  AGY d          32.291  -4.038  19.073  0.00  0.00     0.170 HD
ATOM     35  H2  AGY d          30.090  -5.881  17.086  0.00  0.00     0.192 HD
BRANCH  32  36
ATOM     36  C2  AGY d          33.803  -3.415  17.874  0.00  0.00     0.047 A 
ATOM     37  C1  AGY d          33.914  -1.981  17.651  0.00  0.00     0.001 A 
ATOM     38  C3  AGY d          35.251  -1.364  17.391  0.00  0.00    -0.024 A 
ATOM     39  C4  AGY d          32.746  -1.131  17.675  0.00  0.00    -0.070 A 
ATOM     40  C6  AGY d          36.441  -2.177  17.357  0.00  0.00    -0.072 A 
ATOM     41  C7  AGY d          35.353   0.043  17.172  0.00  0.00    -0.072 A 
ATOM     42  C9  AGY d          36.327  -3.614  17.581  0.00  0.00    -0.080 A 
ATOM     43  H6  AGY d          37.409  -1.727  17.168  0.00  0.00     0.084 H 
ATOM     44  C5  AGY d          35.025  -4.216  17.835  0.00  0.00    -0.056 A 
ATOM     45  H9  AGY d          37.214  -4.237  17.559  0.00  0.00     0.083 H 
ATOM     46  H5  AGY d          34.960  -5.285  17.999  0.00  0.00     0.086 H 
ATOM     47  C11 AGY d          34.167   0.878  17.200  0.00  0.00    -0.082 A 
ATOM     48  H7  AGY d          36.323   0.490  16.984  0.00  0.00     0.084 H 
ATOM     49  C8  AGY d          32.870   0.291  17.451  0.00  0.00    -0.082 A 
ATOM     50  H10 AGY d          34.254   1.945  17.032  0.00  0.00     0.083 H 
ATOM     51  H8  AGY d          31.987   0.920  17.471  0.00  0.00     0.083 H 
ATOM     52  H4  AGY d          31.770  -1.563  17.862  0.00  0.00     0.084 H 
ENDBRANCH  32  36
ENDBRANCH   2  30
TORSDOF 8
ENDMDL
MODEL 9
REMARK VINA RESULT:      -5.1      1.754      2.827
REMARK  8 active torsions:
REMARK  status: ('A' for Active; 'I' for Inactive)
REMARK    1  A    between atoms: N1_2  and  C2_4 
REMARK       I    between atoms: C10_18  and  N1_2 
REMARK    2  A    between atoms: N3_8  and  N2_5 
REMARK       I    between atoms: N2_5  and  C10_18 
REMARK       I    between atoms: C12_20  and  N3_8 
REMARK    3  A    between atoms: C16_24  and  N4_11 
REMARK    4  A    between atoms: C13_21  and  C12_20 
REMARK    5  A    between atoms: C18_26  and  C19_27 
REMARK    6  A    between atoms: C19_27  and  C20_28 
REMARK    7  A    between atoms: C19_27  and  C21_29 
REMARK    8  A    between atoms: C19_27  and  C22_30 
ROOT
ATOM      1  O2  AGY d          29.593  -7.366  20.171  0.00  0.00    -0.266 OA
ATOM      2  N3  AGY d          30.167  -5.387  19.274  0.00  0.00    -0.262 N 
ATOM      3  C12 AGY d          29.597  -6.123  20.266  0.00  0.00     0.270 C 
ATOM      4  H3  AGY d          30.195  -4.388  19.299  0.00  0.00     0.190 HD
ENDROOT
BRANCH   3   5
ATOM      5  C13 AGY d          28.991  -5.466  21.422  0.00  0.00     0.036 A 
ATOM      6  C14 AGY d          27.998  -6.140  22.163  0.00  0.00    -0.035 A 
ATOM      7  C16 AGY d          27.376  -5.546  23.308  0.00  0.00     0.111 A 
ATOM      8  H11 AGY d          27.697  -7.136  21.857  0.00  0.00     0.088 H 
ATOM      9  C18 AGY d          27.751  -4.190  23.753  0.00  0.00    -0.018 A 
ATOM     10  C17 AGY d          28.791  -3.509  22.961  0.00  0.00    -0.073 A 
ATOM     11  C15 AGY d          29.390  -4.151  21.815  0.00  0.00    -0.067 A 
ATOM     12  H13 AGY d          29.109  -2.511  23.242  0.00  0.00     0.084 H 
ATOM     13  H12 AGY d          30.152  -3.630  21.247  0.00  0.00     0.085 H 
BRANCH   7  14
ATOM     14  N4  AGY d          26.487  -6.266  23.969  0.00  0.00    -0.115 N 
ATOM     15  O3  AGY d          26.846  -6.873  25.065  0.00  0.00    -0.532 OA
ATOM     16  O4  AGY d          25.185  -6.380  23.495  0.00  0.00    -0.532 OA
ENDBRANCH   7  14
BRANCH   9  17
ATOM     17  C19 AGY d          27.144  -3.455  24.973  0.00  0.00    -0.022 C 
BRANCH  17  18
ATOM     18  C20 AGY d          25.685  -2.985  24.762  0.00  0.00    -0.066 C 
ATOM     19  H14 AGY d          25.308  -2.531  25.691  0.00  0.00     0.028 H 
ATOM     20  H15 AGY d          25.057  -3.847  24.495  0.00  0.00     0.028 H 
ATOM     21  H16 AGY d          25.653  -2.242  23.951  0.00  0.00     0.028 H 
ENDBRANCH  17  18
BRANCH  17  22
ATOM     22  C21 AGY d          26.919  -4.209  26.338  0.00  0.00    -0.066 C 
ATOM     23  H17 AGY d          26.389  -5.155  26.152  0.00  0.00     0.028 H 
ATOM     24  H18 AGY d          26.318  -3.579  27.010  0.00  0.00     0.028 H 
ATOM     25  H19 AGY d          27.892  -4.420  26.806  0.00  0.00     0.028 H 
ENDBRANCH  17  22
BRANCH  17  26
ATOM     26  C22 AGY d          28.104  -2.299  25.314  0.00  0.00    -0.066 C 
ATOM     27  H20 AGY d          28.900  -2.248  24.556  0.00  0.00     0.028 H 
ATOM     28  H21 AGY d          28.551  -2.473  26.304  0.00  0.00     0.028 H 
ATOM     29  H22 AGY d          27.546  -1.351  25.325  0.00  0.00     0.028 H 
ENDBRANCH  17  26
ENDBRANCH   9  17
ENDBRANCH   3   5
BRANCH   2  30
ATOM     30  N2  AGY d          30.727  -6.144  18.190  0.00  0.00    -0.248 N 
ATOM     31  C10 AGY d          31.899  -5.822  17.578  0.00  0.00     0.339 C 
ATOM     32  N1  AGY d          32.625  -4.736  17.977  0.00  0.00    -0.307 N 
ATOM     33  O1  AGY d          32.278  -6.551  16.651  0.00  0.00    -0.245 OA
ATOM     34  H1  AGY d          32.228  -4.222  18.738  0.00  0.00     0.170 HD
ATOM     35  H2  AGY d          30.229  -6.949  17.868  0.00  0.00     0.192 HD
BRANCH  32  36
ATOM     36  C2  AGY d          33.828  -4.230  17.493  0.00  0.00     0.047 A 
ATOM     37  C1  AGY d          34.090  -2.818  17.250  0.00  0.00     0.001 A 
ATOM     38  C3  AGY d          35.421  -2.381  16.729  0.00  0.00    -0.024 A 
ATOM     39  C4  AGY d          33.078  -1.818  17.505  0.00  0.00    -0.070 A 
ATOM     40  C6  AGY d          36.458  -3.348  16.460  0.00  0.00    -0.072 A 
ATOM     41  C7  AGY d          35.673  -0.996  16.493  0.00  0.00    -0.072 A 
ATOM     42  C9  AGY d          36.193  -4.761  16.704  0.00  0.00    -0.080 A 
ATOM     43  H6  AGY d          37.422  -3.028  16.082  0.00  0.00     0.084 H 
ATOM     44  C5  AGY d          34.896  -5.187  17.212  0.00  0.00    -0.056 A 
ATOM     45  H9  AGY d          36.963  -5.497  16.507  0.00  0.00     0.083 H 
ATOM     46  H5  AGY d          34.717  -6.242  17.386  0.00  0.00     0.086 H 
ATOM     47  C11 AGY d          34.642  -0.010  16.756  0.00  0.00    -0.082 A 
ATOM     48  H7  AGY d          36.638  -0.680  16.116  0.00  0.00     0.084 H 
ATOM     49  C8  AGY d          33.351  -0.421  17.260  0.00  0.00    -0.082 A 
ATOM     50  H10 AGY d          34.841   1.040  16.573  0.00  0.00     0.083 H 
ATOM     51  H8  AGY d          32.585   0.321  17.454  0.00  0.00     0.083 H 
ATOM     52  H4  AGY d          32.108  -2.119  17.883  0.00  0.00     0.084 H 
ENDBRANCH  32  36
ENDBRANCH   2  30
TORSDOF 8
ENDMDL
MODEL 10
REMARK VINA RESULT:      -5.0      1.696      3.086
REMARK  8 active torsions:
REMARK  status: ('A' for Active; 'I' for Inactive)
REMARK    1  A    between atoms: N1_2  and  C2_4 
REMARK       I    between atoms: C10_18  and  N1_2 
REMARK    2  A    between atoms: N3_8  and  N2_5 
REMARK       I    between atoms: N2_5  and  C10_18 
REMARK       I    between atoms: C12_20  and  N3_8 
REMARK    3  A    between atoms: C16_24  and  N4_11 
REMARK    4  A    between atoms: C13_21  and  C12_20 
REMARK    5  A    between atoms: C18_26  and  C19_27 
REMARK    6  A    between atoms: C19_27  and  C20_28 
REMARK    7  A    between atoms: C19_27  and  C21_29 
REMARK    8  A    between atoms: C19_27  and  C22_30 
ROOT
ATOM      1  O2  AGY d          29.903  -3.621  19.063  0.00  0.00    -0.266 OA
ATOM      2  N3  AGY d          29.324  -5.784  18.859  0.00  0.00    -0.262 N 
ATOM      3  C12 AGY d          29.371  -4.626  19.573  0.00  0.00     0.270 C 
ATOM      4  H3  AGY d          28.911  -6.619  19.221  0.00  0.00     0.190 HD
ENDROOT
BRANCH   3   5
ATOM      5  C13 AGY d          28.811  -4.565  20.922  0.00  0.00     0.036 A 
ATOM      6  C14 AGY d          29.446  -5.265  21.969  0.00  0.00    -0.035 A 
ATOM      7  C16 AGY d          28.945  -5.234  23.311  0.00  0.00     0.111 A 
ATOM      8  H11 AGY d          30.338  -5.842  21.753  0.00  0.00     0.088 H 
ATOM      9  C18 AGY d          27.730  -4.467  23.645  0.00  0.00    -0.018 A 
ATOM     10  C17 AGY d          27.087  -3.745  22.532  0.00  0.00    -0.073 A 
ATOM     11  C15 AGY d          27.633  -3.805  21.196  0.00  0.00    -0.067 A 
ATOM     12  H13 AGY d          26.192  -3.162  22.719  0.00  0.00     0.084 H 
ATOM     13  H12 AGY d          27.142  -3.268  20.393  0.00  0.00     0.085 H 
BRANCH   7  14
ATOM     14  N4  AGY d          29.627  -5.883  24.239  0.00  0.00    -0.115 N 
ATOM     15  O3  AGY d          29.502  -7.176  24.334  0.00  0.00    -0.532 OA
ATOM     16  O4  AGY d          30.460  -5.189  25.108  0.00  0.00    -0.532 OA
ENDBRANCH   7  14
BRANCH   9  17
ATOM     17  C19 AGY d          27.104  -4.365  25.058  0.00  0.00    -0.022 C 
BRANCH  17  18
ATOM     18  C20 AGY d          26.841  -5.735  25.729  0.00  0.00    -0.066 C 
ATOM     19  H14 AGY d          26.842  -5.613  26.823  0.00  0.00     0.028 H 
ATOM     20  H15 AGY d          27.631  -6.443  25.439  0.00  0.00     0.028 H 
ATOM     21  H16 AGY d          25.864  -6.121  25.403  0.00  0.00     0.028 H 
ENDBRANCH  17  18
BRANCH  17  22
ATOM     22  C21 AGY d          27.899  -3.705  26.247  0.00  0.00    -0.066 C 
ATOM     23  H17 AGY d          27.699  -2.624  26.267  0.00  0.00     0.028 H 
ATOM     24  H18 AGY d          28.976  -3.877  26.107  0.00  0.00     0.028 H 
ATOM     25  H19 AGY d          27.577  -4.155  27.198  0.00  0.00     0.028 H 
ENDBRANCH  17  22
BRANCH  17  26
ATOM     26  C22 AGY d          25.827  -3.513  24.915  0.00  0.00    -0.066 C 
ATOM     27  H20 AGY d          25.783  -3.087  23.901  0.00  0.00     0.028 H 
ATOM     28  H21 AGY d          25.846  -2.698  25.654  0.00  0.00     0.028 H 
ATOM     29  H22 AGY d          24.943  -4.145  25.087  0.00  0.00     0.028 H 
ENDBRANCH  17  26
ENDBRANCH   9  17
ENDBRANCH   3   5
BRANCH   2  30
ATOM     30  N2  AGY d          29.908  -5.722  17.549  0.00  0.00    -0.248 N 
ATOM     31  C10 AGY d          31.249  -5.763  17.323  0.00  0.00     0.339 C 
ATOM     32  N1  AGY d          32.133  -5.870  18.359  0.00  0.00    -0.307 N 
ATOM     33  O1  AGY d          31.633  -5.699  16.148  0.00  0.00    -0.245 OA
ATOM     34  H1  AGY d          31.713  -5.919  19.266  0.00  0.00     0.170 HD
ATOM     35  H2  AGY d          29.297  -5.647  16.761  0.00  0.00     0.192 HD
BRANCH  32  36
ATOM     36  C2  AGY d          33.524  -5.921  18.355  0.00  0.00     0.047 A 
ATOM     37  C1  AGY d          34.389  -4.785  18.071  0.00  0.00     0.001 A 
ATOM     38  C3  AGY d          35.875  -4.949  18.095  0.00  0.00    -0.024 A 
ATOM     39  C4  AGY d          33.836  -3.485  17.764  0.00  0.00    -0.070 A 
ATOM     40  C6  AGY d          36.468  -6.229  18.395  0.00  0.00    -0.072 A 
ATOM     41  C7  AGY d          36.718  -3.832  17.816  0.00  0.00    -0.072 A 
ATOM     42  C9  AGY d          35.598  -7.366  18.679  0.00  0.00    -0.080 A 
ATOM     43  H6  AGY d          37.545  -6.345  18.411  0.00  0.00     0.084 H 
ATOM     44  C5  AGY d          34.151  -7.206  18.657  0.00  0.00    -0.056 A 
ATOM     45  H9  AGY d          36.031  -8.333  18.907  0.00  0.00     0.083 H 
ATOM     46  H5  AGY d          33.521  -8.062  18.869  0.00  0.00     0.086 H 
ATOM     47  C11 AGY d          36.141  -2.537  17.509  0.00  0.00    -0.082 A 
ATOM     48  H7  AGY d          37.795  -3.952  17.833  0.00  0.00     0.084 H 
ATOM     49  C8  AGY d          34.706  -2.366  17.484  0.00  0.00    -0.082 A 
ATOM     50  H10 AGY d          36.789  -1.693  17.298  0.00  0.00     0.083 H 
ATOM     51  H8  AGY d          34.280  -1.396  17.255  0.00  0.00     0.083 H 
ATOM     52  H4  AGY d          32.761  -3.350  17.743  0.00  0.00     0.084 H 
ENDBRANCH  32  36
ENDBRANCH   2  30
TORSDOF 8
ENDMDL
