MODEL 1
REMARK VINA RESULT:      -6.9      0.000      0.000
REMARK  8 active torsions:
REMARK  status: ('A' for Active; 'I' for Inactive)
REMARK    1  A    between atoms: O6_1  and  C6_2 
REMARK    2  A    between atoms: C6_2  and  C5_3 
REMARK    3  A    between atoms: C4_4  and  O4_5 
REMARK    4  A    between atoms: C3_6  and  O3_7 
REMARK    5  A    between atoms: C2_8  and  O2_9 
REMARK    6  A    between atoms: C7_12  and  C9_15 
REMARK    7  A    between atoms: C9_15  and  C10_16 
REMARK    8  A    between atoms: C10_16  and  C14_17 
ROOT
ATOM      1  C5  PGI d          -0.197  10.305   8.978  0.00  0.00     0.065 C 
ATOM      2  C4  PGI d          -1.641  10.814   9.134  0.00  0.00     0.085 C 
ATOM      3  C3  PGI d          -2.591   9.793   8.474  0.00  0.00     0.093 C 
ATOM      4  C2  PGI d          -2.594   8.465   9.218  0.00  0.00     0.119 C 
ATOM      5  N1  PGI d          -0.173   8.996   9.681  0.00  0.00    -0.332 N 
ATOM      6  C8  PGI d           0.839   8.455  10.379  0.00  0.00     0.005 A 
ATOM      7  C7  PGI d           0.362   7.260  10.895  0.00  0.00     0.052 A 
ATOM      8  N2  PGI d          -0.913   7.129  10.506  0.00  0.00    -0.235 NA
ATOM      9  C1  PGI d          -1.237   8.187   9.763  0.00  0.00     0.138 A 
ATOM     10  H4  PGI d           0.016  10.151   7.910  0.00  0.00     0.080 H 
ATOM     11  H5  PGI d          -1.880  10.884  10.206  0.00  0.00     0.090 H 
ATOM     12  H7  PGI d          -2.229   9.628   7.449  0.00  0.00     0.091 H 
ATOM     13  H9  PGI d          -3.277   8.553  10.075  0.00  0.00     0.099 H 
ATOM     14  H11 PGI d           1.837   8.872  10.514  0.00  0.00     0.114 H 
ENDROOT
BRANCH   7  15
ATOM     15  C9  PGI d           1.119   6.250  11.726  0.00  0.00    -0.020 C 
ATOM     16  H12 PGI d           1.834   6.775  12.376  0.00  0.00     0.042 H 
ATOM     17  H13 PGI d           1.664   5.564  11.061  0.00  0.00     0.042 H 
BRANCH  15  18
ATOM     18  C10 PGI d           0.142   5.449  12.590  0.00  0.00    -0.036 C 
ATOM     19  H14 PGI d           0.731   4.866  13.313  0.00  0.00     0.040 H 
ATOM     20  H15 PGI d          -0.409   4.764  11.928  0.00  0.00     0.040 H 
BRANCH  18  21
ATOM     21  C14 PGI d          -0.884   6.269  13.373  0.00  0.00    -0.058 A 
ATOM     22  C13 PGI d          -0.527   7.498  13.953  0.00  0.00    -0.077 A 
ATOM     23  C12 PGI d          -1.465   8.273  14.661  0.00  0.00    -0.082 A 
ATOM     24  H16 PGI d           0.491   7.856  13.854  0.00  0.00     0.084 H 
ATOM     25  C11 PGI d          -2.789   7.840  14.787  0.00  0.00    -0.083 A 
ATOM     26  H17 PGI d          -1.158   9.210  15.112  0.00  0.00     0.083 H 
ATOM     27  C16 PGI d          -3.144   6.615  14.207  0.00  0.00    -0.082 A 
ATOM     28  H20 PGI d          -3.521   8.436  15.320  0.00  0.00     0.083 H 
ATOM     29  C15 PGI d          -2.211   5.836  13.499  0.00  0.00    -0.077 A 
ATOM     30  H19 PGI d          -4.163   6.259  14.305  0.00  0.00     0.083 H 
ATOM     31  H18 PGI d          -2.519   4.898  13.051  0.00  0.00     0.084 H 
ENDBRANCH  18  21
ENDBRANCH  15  18
ENDBRANCH   7  15
BRANCH   1  32
ATOM     32  C6  PGI d           0.852  11.267   9.527  0.00  0.00     0.038 C 
ATOM     33  H2  PGI d           1.745  10.686   9.802  0.00  0.00     0.077 H 
ATOM     34  H3  PGI d           1.111  11.987   8.737  0.00  0.00     0.077 H 
BRANCH  32  35
ATOM     35  O6  PGI d           0.412  11.997  10.681  0.00  0.00    -0.399 OA
ATOM     36  H1  PGI d           0.024  11.396  11.306  0.00  0.00     0.209 HD
ENDBRANCH  32  35
ENDBRANCH   1  32
BRANCH   4  37
ATOM     37  O2  PGI d          -3.112   7.451   8.369  0.00  0.00    -0.385 OA
ATOM     38  H10 PGI d          -2.931   6.599   8.749  0.00  0.00     0.210 HD
ENDBRANCH   4  37
BRANCH   2  39
ATOM     39  O4  PGI d          -1.804  12.111   8.549  0.00  0.00    -0.391 OA
ATOM     40  H6  PGI d          -2.282  12.671   9.150  0.00  0.00     0.210 HD
ENDBRANCH   2  39
BRANCH   3  41
ATOM     41  O3  PGI d          -3.957  10.200   8.409  0.00  0.00    -0.390 OA
ATOM     42  H8  PGI d          -4.230  10.246   7.500  0.00  0.00     0.210 HD
ENDBRANCH   3  41
TORSDOF 8
ENDMDL
MODEL 2
REMARK VINA RESULT:      -6.7      1.472      2.680
REMARK  8 active torsions:
REMARK  status: ('A' for Active; 'I' for Inactive)
REMARK    1  A    between atoms: O6_1  and  C6_2 
REMARK    2  A    between atoms: C6_2  and  C5_3 
REMARK    3  A    between atoms: C4_4  and  O4_5 
REMARK    4  A    between atoms: C3_6  and  O3_7 
REMARK    5  A    between atoms: C2_8  and  O2_9 
REMARK    6  A    between atoms: C7_12  and  C9_15 
REMARK    7  A    between atoms: C9_15  and  C10_16 
REMARK    8  A    between atoms: C10_16  and  C14_17 
ROOT
ATOM      1  C5  PGI d          -0.107  10.364   9.447  0.00  0.00     0.065 C 
ATOM      2  C4  PGI d          -1.214  11.022   8.606  0.00  0.00     0.085 C 
ATOM      3  C3  PGI d          -2.068   9.908   7.967  0.00  0.00     0.093 C 
ATOM      4  C2  PGI d          -2.836   9.116   9.016  0.00  0.00     0.119 C 
ATOM      5  N1  PGI d          -0.827   9.566  10.474  0.00  0.00    -0.332 N 
ATOM      6  C8  PGI d          -0.460   9.335  11.745  0.00  0.00     0.005 A 
ATOM      7  C7  PGI d          -1.482   8.594  12.318  0.00  0.00     0.052 A 
ATOM      8  N2  PGI d          -2.427   8.416  11.386  0.00  0.00    -0.235 NA
ATOM      9  C1  PGI d          -2.025   9.006  10.260  0.00  0.00     0.138 A 
ATOM     10  H4  PGI d           0.480   9.690   8.805  0.00  0.00     0.080 H 
ATOM     11  H5  PGI d          -1.852  11.627   9.268  0.00  0.00     0.090 H 
ATOM     12  H7  PGI d          -1.379   9.232   7.441  0.00  0.00     0.091 H 
ATOM     13  H9  PGI d          -3.748   9.675   9.270  0.00  0.00     0.099 H 
ATOM     14  H11 PGI d           0.458   9.665  12.230  0.00  0.00     0.114 H 
ENDROOT
BRANCH   7  15
ATOM     15  C9  PGI d          -1.543   8.046  13.725  0.00  0.00    -0.020 C 
ATOM     16  H12 PGI d          -2.065   7.079  13.718  0.00  0.00     0.042 H 
ATOM     17  H13 PGI d          -2.088   8.752  14.369  0.00  0.00     0.042 H 
BRANCH  15  18
ATOM     18  C10 PGI d          -0.125   7.854  14.269  0.00  0.00    -0.036 C 
ATOM     19  H14 PGI d          -0.176   7.907  15.367  0.00  0.00     0.040 H 
ATOM     20  H15 PGI d           0.496   8.680  13.891  0.00  0.00     0.040 H 
BRANCH  18  21
ATOM     21  C14 PGI d           0.563   6.541  13.894  0.00  0.00    -0.058 A 
ATOM     22  C13 PGI d           1.211   6.400  12.655  0.00  0.00    -0.077 A 
ATOM     23  C12 PGI d           1.864   5.205  12.303  0.00  0.00    -0.082 A 
ATOM     24  H16 PGI d           1.207   7.229  11.957  0.00  0.00     0.084 H 
ATOM     25  C11 PGI d           1.899   4.128  13.195  0.00  0.00    -0.083 A 
ATOM     26  H17 PGI d           2.344   5.118  11.334  0.00  0.00     0.083 H 
ATOM     27  C16 PGI d           1.254   4.271  14.431  0.00  0.00    -0.082 A 
ATOM     28  H20 PGI d           2.411   3.208  12.938  0.00  0.00     0.083 H 
ATOM     29  C15 PGI d           0.598   5.463  14.788  0.00  0.00    -0.077 A 
ATOM     30  H19 PGI d           1.261   3.442  15.130  0.00  0.00     0.083 H 
ATOM     31  H18 PGI d           0.118   5.547  15.756  0.00  0.00     0.084 H 
ENDBRANCH  18  21
ENDBRANCH  15  18
ENDBRANCH   7  15
BRANCH   1  32
ATOM     32  C6  PGI d           0.859  11.363  10.077  0.00  0.00     0.038 C 
ATOM     33  H2  PGI d           0.891  11.179  11.161  0.00  0.00     0.077 H 
ATOM     34  H3  PGI d           1.858  11.199   9.647  0.00  0.00     0.077 H 
BRANCH  32  35
ATOM     35  O6  PGI d           0.489  12.732   9.859  0.00  0.00    -0.399 OA
ATOM     36  H1  PGI d          -0.395  12.769   9.513  0.00  0.00     0.209 HD
ENDBRANCH  32  35
ENDBRANCH   1  32
BRANCH   4  37
ATOM     37  O2  PGI d          -3.244   7.874   8.463  0.00  0.00    -0.385 OA
ATOM     38  H10 PGI d          -2.522   7.491   7.978  0.00  0.00     0.210 HD
ENDBRANCH   4  37
BRANCH   2  39
ATOM     39  O4  PGI d          -0.664  11.881   7.600  0.00  0.00    -0.391 OA
ATOM     40  H6  PGI d           0.153  11.513   7.283  0.00  0.00     0.210 HD
ENDBRANCH   2  39
BRANCH   3  41
ATOM     41  O3  PGI d          -3.049  10.364   7.037  0.00  0.00    -0.390 OA
ATOM     42  H8  PGI d          -3.749  10.804   7.506  0.00  0.00     0.210 HD
ENDBRANCH   3  41
TORSDOF 8
ENDMDL
MODEL 3
REMARK VINA RESULT:      -6.5      2.927      6.206
REMARK  8 active torsions:
REMARK  status: ('A' for Active; 'I' for Inactive)
REMARK    1  A    between atoms: O6_1  and  C6_2 
REMARK    2  A    between atoms: C6_2  and  C5_3 
REMARK    3  A    between atoms: C4_4  and  O4_5 
REMARK    4  A    between atoms: C3_6  and  O3_7 
REMARK    5  A    between atoms: C2_8  and  O2_9 
REMARK    6  A    between atoms: C7_12  and  C9_15 
REMARK    7  A    between atoms: C9_15  and  C10_16 
REMARK    8  A    between atoms: C10_16  and  C14_17 
ROOT
ATOM      1  C5  PGI d           1.039   6.083  11.029  0.00  0.00     0.065 C 
ATOM      2  C4  PGI d           0.825   5.604  12.475  0.00  0.00     0.085 C 
ATOM      3  C3  PGI d           0.743   6.842  13.391  0.00  0.00     0.093 C 
ATOM      4  C2  PGI d          -0.497   7.676  13.101  0.00  0.00     0.119 C 
ATOM      5  N1  PGI d          -0.151   6.918  10.720  0.00  0.00    -0.332 N 
ATOM      6  C8  PGI d          -0.786   7.045   9.543  0.00  0.00     0.005 A 
ATOM      7  C7  PGI d          -1.868   7.880   9.772  0.00  0.00     0.052 A 
ATOM      8  N2  PGI d          -1.858   8.215  11.069  0.00  0.00    -0.235 NA
ATOM      9  C1  PGI d          -0.808   7.630  11.646  0.00  0.00     0.138 A 
ATOM     10  H4  PGI d           1.944   6.707  10.987  0.00  0.00     0.080 H 
ATOM     11  H5  PGI d          -0.126   5.054  12.531  0.00  0.00     0.090 H 
ATOM     12  H7  PGI d           1.638   7.451  13.196  0.00  0.00     0.091 H 
ATOM     13  H9  PGI d          -1.348   7.223  13.630  0.00  0.00     0.099 H 
ATOM     14  H11 PGI d          -0.506   6.583   8.597  0.00  0.00     0.114 H 
ENDROOT
BRANCH   7  15
ATOM     15  C9  PGI d          -2.881   8.369   8.762  0.00  0.00    -0.020 C 
ATOM     16  H12 PGI d          -3.867   7.944   9.000  0.00  0.00     0.042 H 
ATOM     17  H13 PGI d          -2.577   8.048   7.755  0.00  0.00     0.042 H 
BRANCH  15  18
ATOM     18  C10 PGI d          -2.962   9.897   8.805  0.00  0.00    -0.036 C 
ATOM     19  H14 PGI d          -3.507  10.179   9.719  0.00  0.00     0.040 H 
ATOM     20  H15 PGI d          -3.529  10.229   7.923  0.00  0.00     0.040 H 
BRANCH  18  21
ATOM     21  C14 PGI d          -1.625  10.638   8.808  0.00  0.00    -0.058 A 
ATOM     22  C13 PGI d          -0.985  10.955  10.018  0.00  0.00    -0.077 A 
ATOM     23  C12 PGI d           0.256  11.620  10.037  0.00  0.00    -0.082 A 
ATOM     24  H16 PGI d          -1.455  10.683  10.956  0.00  0.00     0.084 H 
ATOM     25  C11 PGI d           0.892  11.965   8.840  0.00  0.00    -0.083 A 
ATOM     26  H17 PGI d           0.720  11.866  10.986  0.00  0.00     0.083 H 
ATOM     27  C16 PGI d           0.253  11.646   7.635  0.00  0.00    -0.082 A 
ATOM     28  H20 PGI d           1.853  12.466   8.845  0.00  0.00     0.083 H 
ATOM     29  C15 PGI d          -0.987  10.983   7.610  0.00  0.00    -0.077 A 
ATOM     30  H19 PGI d           0.727  11.917   6.698  0.00  0.00     0.083 H 
ATOM     31  H18 PGI d          -1.451  10.739   6.661  0.00  0.00     0.084 H 
ENDBRANCH  18  21
ENDBRANCH  15  18
ENDBRANCH   7  15
BRANCH   1  32
ATOM     32  C6  PGI d           1.212   4.945  10.028  0.00  0.00     0.038 C 
ATOM     33  H2  PGI d           0.340   4.280  10.103  0.00  0.00     0.077 H 
ATOM     34  H3  PGI d           1.258   5.376   9.016  0.00  0.00     0.077 H 
BRANCH  32  35
ATOM     35  O6  PGI d           2.397   4.167  10.244  0.00  0.00    -0.399 OA
ATOM     36  H1  PGI d           3.072   4.718  10.623  0.00  0.00     0.209 HD
ENDBRANCH  32  35
ENDBRANCH   1  32
BRANCH   4  37
ATOM     37  O2  PGI d          -0.320   8.982  13.629  0.00  0.00    -0.385 OA
ATOM     38  H10 PGI d           0.213   9.494  13.032  0.00  0.00     0.210 HD
ENDBRANCH   4  37
BRANCH   2  39
ATOM     39  O4  PGI d           1.878   4.729  12.897  0.00  0.00    -0.391 OA
ATOM     40  H6  PGI d           1.685   3.843  12.612  0.00  0.00     0.210 HD
ENDBRANCH   2  39
BRANCH   3  41
ATOM     41  O3  PGI d           0.692   6.552  14.788  0.00  0.00    -0.390 OA
ATOM     42  H8  PGI d           0.277   5.708  14.920  0.00  0.00     0.210 HD
ENDBRANCH   3  41
TORSDOF 8
ENDMDL
MODEL 4
REMARK VINA RESULT:      -5.9      2.726      6.009
REMARK  8 active torsions:
REMARK  status: ('A' for Active; 'I' for Inactive)
REMARK    1  A    between atoms: O6_1  and  C6_2 
REMARK    2  A    between atoms: C6_2  and  C5_3 
REMARK    3  A    between atoms: C4_4  and  O4_5 
REMARK    4  A    between atoms: C3_6  and  O3_7 
REMARK    5  A    between atoms: C2_8  and  O2_9 
REMARK    6  A    between atoms: C7_12  and  C9_15 
REMARK    7  A    between atoms: C9_15  and  C10_16 
REMARK    8  A    between atoms: C10_16  and  C14_17 
ROOT
ATOM      1  C5  PGI d          -1.094   7.038  13.250  0.00  0.00     0.065 C 
ATOM      2  C4  PGI d           0.434   6.956  13.413  0.00  0.00     0.085 C 
ATOM      3  C3  PGI d           0.950   5.769  12.573  0.00  0.00     0.093 C 
ATOM      4  C2  PGI d           0.759   6.009  11.082  0.00  0.00     0.119 C 
ATOM      5  N1  PGI d          -1.315   7.255  11.797  0.00  0.00    -0.332 N 
ATOM      6  C8  PGI d          -2.279   7.983  11.209  0.00  0.00     0.005 A 
ATOM      7  C7  PGI d          -2.030   7.932   9.846  0.00  0.00     0.052 A 
ATOM      8  N2  PGI d          -0.929   7.194   9.661  0.00  0.00    -0.235 NA
ATOM      9  C1  PGI d          -0.495   6.778  10.850  0.00  0.00     0.138 A 
ATOM     10  H4  PGI d          -1.539   6.076  13.548  0.00  0.00     0.080 H 
ATOM     11  H5  PGI d           0.882   7.885  13.032  0.00  0.00     0.090 H 
ATOM     12  H7  PGI d           0.369   4.884  12.871  0.00  0.00     0.091 H 
ATOM     13  H9  PGI d           1.592   6.631  10.725  0.00  0.00     0.099 H 
ATOM     14  H11 PGI d          -3.093   8.509  11.705  0.00  0.00     0.114 H 
ENDROOT
BRANCH   7  15
ATOM     15  C9  PGI d          -2.846   8.560   8.740  0.00  0.00    -0.020 C 
ATOM     16  H12 PGI d          -3.877   8.181   8.786  0.00  0.00     0.042 H 
ATOM     17  H13 PGI d          -2.403   8.300   7.767  0.00  0.00     0.042 H 
BRANCH  15  18
ATOM     18  C10 PGI d          -2.857  10.082   8.902  0.00  0.00    -0.036 C 
ATOM     19  H14 PGI d          -3.336  10.315   9.864  0.00  0.00     0.040 H 
ATOM     20  H15 PGI d          -3.457  10.504   8.081  0.00  0.00     0.040 H 
BRANCH  18  21
ATOM     21  C14 PGI d          -1.490  10.767   8.882  0.00  0.00    -0.058 A 
ATOM     22  C13 PGI d          -0.788  11.001  10.076  0.00  0.00    -0.077 A 
ATOM     23  C12 PGI d           0.479  11.613  10.073  0.00  0.00    -0.082 A 
ATOM     24  H16 PGI d          -1.232  10.705  11.020  0.00  0.00     0.084 H 
ATOM     25  C11 PGI d           1.081  11.987   8.867  0.00  0.00    -0.083 A 
ATOM     26  H17 PGI d           0.992  11.795  11.011  0.00  0.00     0.083 H 
ATOM     27  C16 PGI d           0.381  11.751   7.677  0.00  0.00    -0.082 A 
ATOM     28  H20 PGI d           2.062  12.447   8.854  0.00  0.00     0.083 H 
ATOM     29  C15 PGI d          -0.886  11.142   7.674  0.00  0.00    -0.077 A 
ATOM     30  H19 PGI d           0.828  12.046   6.734  0.00  0.00     0.083 H 
ATOM     31  H18 PGI d          -1.398  10.961   6.735  0.00  0.00     0.084 H 
ENDBRANCH  18  21
ENDBRANCH  15  18
ENDBRANCH   7  15
BRANCH   1  32
ATOM     32  C6  PGI d          -1.741   8.131  14.094  0.00  0.00     0.038 C 
ATOM     33  H2  PGI d          -2.771   8.280  13.739  0.00  0.00     0.077 H 
ATOM     34  H3  PGI d          -1.759   7.797  15.142  0.00  0.00     0.077 H 
BRANCH  32  35
ATOM     35  O6  PGI d          -1.053   9.388  14.029  0.00  0.00    -0.399 OA
ATOM     36  H1  PGI d          -0.238   9.277  13.553  0.00  0.00     0.209 HD
ENDBRANCH  32  35
ENDBRANCH   1  32
BRANCH   4  37
ATOM     37  O2  PGI d           0.831   4.770  10.393  0.00  0.00    -0.385 OA
ATOM     38  H10 PGI d           1.645   4.333  10.613  0.00  0.00     0.210 HD
ENDBRANCH   4  37
BRANCH   2  39
ATOM     39  O4  PGI d           0.804   6.805  14.788  0.00  0.00    -0.391 OA
ATOM     40  H6  PGI d           0.631   7.615  15.253  0.00  0.00     0.210 HD
ENDBRANCH   2  39
BRANCH   3  41
ATOM     41  O3  PGI d           2.336   5.475  12.740  0.00  0.00    -0.390 OA
ATOM     42  H8  PGI d           2.853   6.221  12.458  0.00  0.00     0.210 HD
ENDBRANCH   3  41
TORSDOF 8
ENDMDL
MODEL 5
REMARK VINA RESULT:      -5.7      2.622      4.092
REMARK  8 active torsions:
REMARK  status: ('A' for Active; 'I' for Inactive)
REMARK    1  A    between atoms: O6_1  and  C6_2 
REMARK    2  A    between atoms: C6_2  and  C5_3 
REMARK    3  A    between atoms: C4_4  and  O4_5 
REMARK    4  A    between atoms: C3_6  and  O3_7 
REMARK    5  A    between atoms: C2_8  and  O2_9 
REMARK    6  A    between atoms: C7_12  and  C9_15 
REMARK    7  A    between atoms: C9_15  and  C10_16 
REMARK    8  A    between atoms: C10_16  and  C14_17 
ROOT
ATOM      1  C5  PGI d           0.481   7.783   9.062  0.00  0.00     0.065 C 
ATOM      2  C4  PGI d           0.452   6.290   8.690  0.00  0.00     0.085 C 
ATOM      3  C3  PGI d           1.440   5.540   9.608  0.00  0.00     0.093 C 
ATOM      4  C2  PGI d           0.984   5.559  11.060  0.00  0.00     0.119 C 
ATOM      5  N1  PGI d           0.057   7.834  10.485  0.00  0.00    -0.332 N 
ATOM      6  C8  PGI d          -0.667   8.786  11.096  0.00  0.00     0.005 A 
ATOM      7  C7  PGI d          -0.855   8.356  12.400  0.00  0.00     0.052 A 
ATOM      8  N2  PGI d          -0.257   7.166  12.527  0.00  0.00    -0.235 NA
ATOM      9  C1  PGI d           0.303   6.849  11.360  0.00  0.00     0.138 A 
ATOM     10  H4  PGI d           1.513   8.155   8.974  0.00  0.00     0.080 H 
ATOM     11  H5  PGI d          -0.562   5.901   8.863  0.00  0.00     0.090 H 
ATOM     12  H7  PGI d           2.409   6.054   9.530  0.00  0.00     0.091 H 
ATOM     13  H9  PGI d           0.242   4.760  11.198  0.00  0.00     0.099 H 
ATOM     14  H11 PGI d          -1.033   9.712  10.654  0.00  0.00     0.114 H 
ENDROOT
BRANCH   7  15
ATOM     15  C9  PGI d          -1.576   9.084  13.512  0.00  0.00    -0.020 C 
ATOM     16  H12 PGI d          -2.619   9.264  13.214  0.00  0.00     0.042 H 
ATOM     17  H13 PGI d          -1.078  10.046  13.702  0.00  0.00     0.042 H 
BRANCH  15  18
ATOM     18  C10 PGI d          -1.551   8.239  14.788  0.00  0.00    -0.036 C 
ATOM     19  H14 PGI d          -2.117   8.780  15.561  0.00  0.00     0.040 H 
ATOM     20  H15 PGI d          -0.502   8.139  15.105  0.00  0.00     0.040 H 
BRANCH  18  21
ATOM     21  C14 PGI d          -2.141   6.834  14.671  0.00  0.00    -0.058 A 
ATOM     22  C13 PGI d          -1.318   5.700  14.778  0.00  0.00    -0.077 A 
ATOM     23  C12 PGI d          -1.849   4.400  14.691  0.00  0.00    -0.082 A 
ATOM     24  H16 PGI d          -0.253   5.829  14.930  0.00  0.00     0.084 H 
ATOM     25  C11 PGI d          -3.224   4.207  14.514  0.00  0.00    -0.083 A 
ATOM     26  H17 PGI d          -1.189   3.542  14.762  0.00  0.00     0.083 H 
ATOM     27  C16 PGI d          -4.043   5.339  14.409  0.00  0.00    -0.082 A 
ATOM     28  H20 PGI d          -3.643   3.209  14.459  0.00  0.00     0.083 H 
ATOM     29  C15 PGI d          -3.518   6.641  14.493  0.00  0.00    -0.077 A 
ATOM     30  H19 PGI d          -5.109   5.208  14.260  0.00  0.00     0.083 H 
ATOM     31  H18 PGI d          -4.179   7.497  14.421  0.00  0.00     0.084 H 
ENDBRANCH  18  21
ENDBRANCH  15  18
ENDBRANCH   7  15
BRANCH   1  32
ATOM     32  C6  PGI d          -0.402   8.651   8.172  0.00  0.00     0.038 C 
ATOM     33  H2  PGI d          -0.450   8.192   7.174  0.00  0.00     0.077 H 
ATOM     34  H3  PGI d          -1.411   8.684   8.610  0.00  0.00     0.077 H 
BRANCH  32  35
ATOM     35  O6  PGI d           0.075   9.997   8.030  0.00  0.00    -0.399 OA
ATOM     36  H1  PGI d           0.645  10.208   8.760  0.00  0.00     0.209 HD
ENDBRANCH  32  35
ENDBRANCH   1  32
BRANCH   4  37
ATOM     37  O2  PGI d           2.086   5.261  11.904  0.00  0.00    -0.385 OA
ATOM     38  H10 PGI d           2.874   5.654  11.546  0.00  0.00     0.210 HD
ENDBRANCH   4  37
BRANCH   2  39
ATOM     39  O4  PGI d           0.786   6.088   7.312  0.00  0.00    -0.391 OA
ATOM     40  H6  PGI d           0.422   6.796   6.792  0.00  0.00     0.210 HD
ENDBRANCH   2  39
BRANCH   3  41
ATOM     41  O3  PGI d           1.632   4.164   9.284  0.00  0.00    -0.390 OA
ATOM     42  H8  PGI d           2.551   4.008   9.100  0.00  0.00     0.210 HD
ENDBRANCH   3  41
TORSDOF 8
ENDMDL
MODEL 6
REMARK VINA RESULT:      -5.2      2.169      3.315
REMARK  8 active torsions:
REMARK  status: ('A' for Active; 'I' for Inactive)
REMARK    1  A    between atoms: O6_1  and  C6_2 
REMARK    2  A    between atoms: C6_2  and  C5_3 
REMARK    3  A    between atoms: C4_4  and  O4_5 
REMARK    4  A    between atoms: C3_6  and  O3_7 
REMARK    5  A    between atoms: C2_8  and  O2_9 
REMARK    6  A    between atoms: C7_12  and  C9_15 
REMARK    7  A    between atoms: C9_15  and  C10_16 
REMARK    8  A    between atoms: C10_16  and  C14_17 
ROOT
ATOM      1  C5  PGI d          -0.609   9.840   9.346  0.00  0.00     0.065 C 
ATOM      2  C4  PGI d          -0.548   8.876   8.149  0.00  0.00     0.085 C 
ATOM      3  C3  PGI d           0.527   7.808   8.438  0.00  0.00     0.093 C 
ATOM      4  C2  PGI d           0.130   6.911   9.602  0.00  0.00     0.119 C 
ATOM      5  N1  PGI d          -0.978   8.989  10.507  0.00  0.00    -0.332 N 
ATOM      6  C8  PGI d          -1.742   9.319  11.562  0.00  0.00     0.005 A 
ATOM      7  C7  PGI d          -1.846   8.177  12.340  0.00  0.00     0.052 A 
ATOM      8  N2  PGI d          -1.160   7.203  11.729  0.00  0.00    -0.235 NA
ATOM      9  C1  PGI d          -0.628   7.700  10.613  0.00  0.00     0.138 A 
ATOM     10  H4  PGI d           0.390  10.272   9.512  0.00  0.00     0.080 H 
ATOM     11  H5  PGI d          -1.525   8.381   8.041  0.00  0.00     0.090 H 
ATOM     12  H7  PGI d           1.453   8.341   8.696  0.00  0.00     0.091 H 
ATOM     13  H9  PGI d          -0.547   6.133   9.222  0.00  0.00     0.099 H 
ATOM     14  H11 PGI d          -2.190  10.290  11.764  0.00  0.00     0.114 H 
ENDROOT
BRANCH   7  15
ATOM     15  C9  PGI d          -2.570   8.026  13.659  0.00  0.00    -0.020 C 
ATOM     16  H12 PGI d          -3.241   7.156  13.609  0.00  0.00     0.042 H 
ATOM     17  H13 PGI d          -3.160   8.933  13.857  0.00  0.00     0.042 H 
BRANCH  15  18
ATOM     18  C10 PGI d          -1.557   7.823  14.788  0.00  0.00    -0.036 C 
ATOM     19  H14 PGI d          -2.113   7.799  15.737  0.00  0.00     0.040 H 
ATOM     20  H15 PGI d          -0.873   8.685  14.786  0.00  0.00     0.040 H 
BRANCH  18  21
ATOM     21  C14 PGI d          -0.711   6.553  14.706  0.00  0.00    -0.058 A 
ATOM     22  C13 PGI d           0.687   6.630  14.591  0.00  0.00    -0.077 A 
ATOM     23  C12 PGI d           1.482   5.470  14.533  0.00  0.00    -0.082 A 
ATOM     24  H16 PGI d           1.164   7.602  14.545  0.00  0.00     0.084 H 
ATOM     25  C11 PGI d           0.892   4.204  14.610  0.00  0.00    -0.083 A 
ATOM     26  H17 PGI d           2.558   5.558  14.429  0.00  0.00     0.083 H 
ATOM     27  C16 PGI d          -0.502   4.129  14.727  0.00  0.00    -0.082 A 
ATOM     28  H20 PGI d           1.497   3.305  14.579  0.00  0.00     0.083 H 
ATOM     29  C15 PGI d          -1.301   5.284  14.783  0.00  0.00    -0.077 A 
ATOM     30  H19 PGI d          -0.976   3.155  14.775  0.00  0.00     0.083 H 
ATOM     31  H18 PGI d          -2.377   5.194  14.885  0.00  0.00     0.084 H 
ENDBRANCH  18  21
ENDBRANCH  15  18
ENDBRANCH   7  15
BRANCH   1  32
ATOM     32  C6  PGI d          -1.587  10.994   9.153  0.00  0.00     0.038 C 
ATOM     33  H2  PGI d          -1.881  11.371  10.144  0.00  0.00     0.077 H 
ATOM     34  H3  PGI d          -1.078  11.792   8.593  0.00  0.00     0.077 H 
BRANCH  32  35
ATOM     35  O6  PGI d          -2.775  10.624   8.438  0.00  0.00    -0.399 OA
ATOM     36  H1  PGI d          -2.993   9.721   8.634  0.00  0.00     0.209 HD
ENDBRANCH  32  35
ENDBRANCH   1  32
BRANCH   4  37
ATOM     37  O2  PGI d           1.285   6.255  10.106  0.00  0.00    -0.385 OA
ATOM     38  H10 PGI d           1.825   6.882  10.574  0.00  0.00     0.210 HD
ENDBRANCH   4  37
BRANCH   2  39
ATOM     39  O4  PGI d          -0.257   9.573   6.932  0.00  0.00    -0.391 OA
ATOM     40  H6  PGI d          -0.807  10.345   6.871  0.00  0.00     0.210 HD
ENDBRANCH   2  39
BRANCH   3  41
ATOM     41  O3  PGI d           0.802   6.926   7.351  0.00  0.00    -0.390 OA
ATOM     42  H8  PGI d           0.874   6.036   7.676  0.00  0.00     0.210 HD
ENDBRANCH   3  41
TORSDOF 8
ENDMDL
MODEL 7
REMARK VINA RESULT:      -4.1      2.333      3.522
REMARK  8 active torsions:
REMARK  status: ('A' for Active; 'I' for Inactive)
REMARK    1  A    between atoms: O6_1  and  C6_2 
REMARK    2  A    between atoms: C6_2  and  C5_3 
REMARK    3  A    between atoms: C4_4  and  O4_5 
REMARK    4  A    between atoms: C3_6  and  O3_7 
REMARK    5  A    between atoms: C2_8  and  O2_9 
REMARK    6  A    between atoms: C7_12  and  C9_15 
REMARK    7  A    between atoms: C9_15  and  C10_16 
REMARK    8  A    between atoms: C10_16  and  C14_17 
ROOT
ATOM      1  C5  PGI d          -0.445  10.381   9.580  0.00  0.00     0.065 C 
ATOM      2  C4  PGI d          -0.289  10.725  11.072  0.00  0.00     0.085 C 
ATOM      3  C3  PGI d          -1.426  10.037  11.853  0.00  0.00     0.093 C 
ATOM      4  C2  PGI d          -1.295   8.521  11.818  0.00  0.00     0.119 C 
ATOM      5  N1  PGI d          -0.340   8.900   9.515  0.00  0.00    -0.332 N 
ATOM      6  C8  PGI d           0.204   8.155   8.538  0.00  0.00     0.005 A 
ATOM      7  C7  PGI d           0.121   6.837   8.961  0.00  0.00     0.052 A 
ATOM      8  N2  PGI d          -0.453   6.833  10.171  0.00  0.00    -0.235 NA
ATOM      9  C1  PGI d          -0.737   8.091  10.506  0.00  0.00     0.138 A 
ATOM     10  H4  PGI d          -1.446  10.691   9.243  0.00  0.00     0.080 H 
ATOM     11  H5  PGI d           0.677  10.336  11.427  0.00  0.00     0.090 H 
ATOM     12  H7  PGI d          -2.372  10.325  11.372  0.00  0.00     0.091 H 
ATOM     13  H9  PGI d          -0.575   8.220  12.593  0.00  0.00     0.099 H 
ATOM     14  H11 PGI d           0.627   8.515   7.601  0.00  0.00     0.114 H 
ENDROOT
BRANCH   7  15
ATOM     15  C9  PGI d           0.561   5.602   8.209  0.00  0.00    -0.020 C 
ATOM     16  H12 PGI d           1.656   5.606   8.111  0.00  0.00     0.042 H 
ATOM     17  H13 PGI d           0.103   5.600   7.209  0.00  0.00     0.042 H 
BRANCH  15  18
ATOM     18  C10 PGI d           0.124   4.347   8.969  0.00  0.00    -0.036 C 
ATOM     19  H14 PGI d           0.520   3.473   8.432  0.00  0.00     0.040 H 
ATOM     20  H15 PGI d          -0.976   4.315   8.961  0.00  0.00     0.040 H 
BRANCH  18  21
ATOM     21  C14 PGI d           0.584   4.253  10.424  0.00  0.00    -0.058 A 
ATOM     22  C13 PGI d           1.952   4.200  10.740  0.00  0.00    -0.077 A 
ATOM     23  C12 PGI d           2.393   4.132  12.075  0.00  0.00    -0.082 A 
ATOM     24  H16 PGI d           2.684   4.212   9.940  0.00  0.00     0.084 H 
ATOM     25  C11 PGI d           1.470   4.134  13.126  0.00  0.00    -0.083 A 
ATOM     26  H17 PGI d           3.455   4.077  12.290  0.00  0.00     0.083 H 
ATOM     27  C16 PGI d           0.106   4.189  12.809  0.00  0.00    -0.082 A 
ATOM     28  H20 PGI d           1.800   4.095  14.157  0.00  0.00     0.083 H 
ATOM     29  C15 PGI d          -0.340   4.255  11.477  0.00  0.00    -0.077 A 
ATOM     30  H19 PGI d          -0.624   4.180  13.611  0.00  0.00     0.083 H 
ATOM     31  H18 PGI d          -1.402   4.309  11.264  0.00  0.00     0.084 H 
ENDBRANCH  18  21
ENDBRANCH  15  18
ENDBRANCH   7  15
BRANCH   1  32
ATOM     32  C6  PGI d           0.581  11.065   8.683  0.00  0.00     0.038 C 
ATOM     33  H2  PGI d           1.112  11.823   9.278  0.00  0.00     0.077 H 
ATOM     34  H3  PGI d           1.296  10.307   8.331  0.00  0.00     0.077 H 
BRANCH  32  35
ATOM     35  O6  PGI d           0.002  11.710   7.540  0.00  0.00    -0.399 OA
ATOM     36  H1  PGI d          -0.847  12.066   7.774  0.00  0.00     0.209 HD
ENDBRANCH  32  35
ENDBRANCH   1  32
BRANCH   4  37
ATOM     37  O2  PGI d          -2.544   7.932  12.152  0.00  0.00    -0.385 OA
ATOM     38  H10 PGI d          -2.475   7.505  12.998  0.00  0.00     0.210 HD
ENDBRANCH   4  37
BRANCH   2  39
ATOM     39  O4  PGI d          -0.311  12.142  11.285  0.00  0.00    -0.391 OA
ATOM     40  H6  PGI d          -0.725  12.329  12.120  0.00  0.00     0.210 HD
ENDBRANCH   2  39
BRANCH   3  41
ATOM     41  O3  PGI d          -1.500  10.384  13.235  0.00  0.00    -0.390 OA
ATOM     42  H8  PGI d          -1.736  11.301  13.318  0.00  0.00     0.210 HD
ENDBRANCH   3  41
TORSDOF 8
ENDMDL
MODEL 8
REMARK VINA RESULT:      -4.0      3.031      6.011
REMARK  8 active torsions:
REMARK  status: ('A' for Active; 'I' for Inactive)
REMARK    1  A    between atoms: O6_1  and  C6_2 
REMARK    2  A    between atoms: C6_2  and  C5_3 
REMARK    3  A    between atoms: C4_4  and  O4_5 
REMARK    4  A    between atoms: C3_6  and  O3_7 
REMARK    5  A    between atoms: C2_8  and  O2_9 
REMARK    6  A    between atoms: C7_12  and  C9_15 
REMARK    7  A    between atoms: C9_15  and  C10_16 
REMARK    8  A    between atoms: C10_16  and  C14_17 
ROOT
ATOM      1  C5  PGI d           0.194   5.976  12.204  0.00  0.00     0.065 C 
ATOM      2  C4  PGI d           1.562   5.693  11.560  0.00  0.00     0.085 C 
ATOM      3  C3  PGI d           1.357   4.699  10.399  0.00  0.00     0.093 C 
ATOM      4  C2  PGI d           0.547   5.314   9.267  0.00  0.00     0.119 C 
ATOM      5  N1  PGI d          -0.630   6.564  11.115  0.00  0.00    -0.332 N 
ATOM      6  C8  PGI d          -1.575   7.513  11.217  0.00  0.00     0.005 A 
ATOM      7  C7  PGI d          -2.010   7.769   9.927  0.00  0.00     0.052 A 
ATOM      8  N2  PGI d          -1.312   6.984   9.097  0.00  0.00    -0.235 NA
ATOM      9  C1  PGI d          -0.472   6.247   9.823  0.00  0.00     0.138 A 
ATOM     10  H4  PGI d          -0.254   5.025  12.529  0.00  0.00     0.080 H 
ATOM     11  H5  PGI d           1.968   6.634  11.158  0.00  0.00     0.090 H 
ATOM     12  H7  PGI d           0.809   3.835  10.804  0.00  0.00     0.091 H 
ATOM     13  H9  PGI d           1.227   5.911   8.642  0.00  0.00     0.099 H 
ATOM     14  H11 PGI d          -1.928   7.987  12.132  0.00  0.00     0.114 H 
ENDROOT
BRANCH   7  15
ATOM     15  C9  PGI d          -3.094   8.733   9.497  0.00  0.00    -0.020 C 
ATOM     16  H12 PGI d          -3.339   9.402  10.334  0.00  0.00     0.042 H 
ATOM     17  H13 PGI d          -3.990   8.167   9.204  0.00  0.00     0.042 H 
BRANCH  15  18
ATOM     18  C10 PGI d          -2.607   9.564   8.308  0.00  0.00    -0.036 C 
ATOM     19  H14 PGI d          -3.435  10.218   7.994  0.00  0.00     0.040 H 
ATOM     20  H15 PGI d          -2.358   8.871   7.491  0.00  0.00     0.040 H 
BRANCH  18  21
ATOM     21  C14 PGI d          -1.384  10.445   8.563  0.00  0.00    -0.058 A 
ATOM     22  C13 PGI d          -0.173   9.880   8.997  0.00  0.00    -0.077 A 
ATOM     23  C12 PGI d           0.967  10.675   9.219  0.00  0.00    -0.082 A 
ATOM     24  H16 PGI d          -0.115   8.811   9.164  0.00  0.00     0.084 H 
ATOM     25  C11 PGI d           0.923  12.055   8.992  0.00  0.00    -0.083 A 
ATOM     26  H17 PGI d           1.885  10.215   9.568  0.00  0.00     0.083 H 
ATOM     27  C16 PGI d          -0.285  12.616   8.558  0.00  0.00    -0.082 A 
ATOM     28  H20 PGI d           1.800  12.673   9.147  0.00  0.00     0.083 H 
ATOM     29  C15 PGI d          -1.428  11.827   8.336  0.00  0.00    -0.077 A 
ATOM     30  H19 PGI d          -0.340  13.685   8.388  0.00  0.00     0.083 H 
ATOM     31  H18 PGI d          -2.345  12.289   7.989  0.00  0.00     0.084 H 
ENDBRANCH  18  21
ENDBRANCH  15  18
ENDBRANCH   7  15
BRANCH   1  32
ATOM     32  C6  PGI d           0.269   6.894  13.420  0.00  0.00     0.038 C 
ATOM     33  H2  PGI d          -0.723   7.340  13.580  0.00  0.00     0.077 H 
ATOM     34  H3  PGI d           0.545   6.289  14.296  0.00  0.00     0.077 H 
BRANCH  32  35
ATOM     35  O6  PGI d           1.226   7.954  13.280  0.00  0.00    -0.399 OA
ATOM     36  H1  PGI d           2.068   7.588  13.033  0.00  0.00     0.209 HD
ENDBRANCH  32  35
ENDBRANCH   1  32
BRANCH   4  37
ATOM     37  O2  PGI d           0.020   4.280   8.448  0.00  0.00    -0.385 OA
ATOM     38  H10 PGI d           0.483   4.267   7.619  0.00  0.00     0.210 HD
ENDBRANCH   4  37
BRANCH   2  39
ATOM     39  O4  PGI d           2.492   5.172  12.517  0.00  0.00    -0.391 OA
ATOM     40  H6  PGI d           2.026   4.643  13.154  0.00  0.00     0.210 HD
ENDBRANCH   2  39
BRANCH   3  41
ATOM     41  O3  PGI d           2.561   4.225   9.796  0.00  0.00    -0.390 OA
ATOM     42  H8  PGI d           2.352   3.548   9.162  0.00  0.00     0.210 HD
ENDBRANCH   3  41
TORSDOF 8
ENDMDL
