MODEL 1
REMARK VINA RESULT:      -7.2      0.000      0.000
REMARK  6 active torsions:
REMARK  status: ('A' for Active; 'I' for Inactive)
REMARK    1  A    between atoms: P_1  and  O5'_4 
REMARK    2  A    between atoms: O5'_4  and  C5'_6 
REMARK    3  A    between atoms: C5'_6  and  C4'_7 
REMARK    4  A    between atoms: C1'_9  and  N9_10 
REMARK    5  A    between atoms: C2'_21  and  O2'_22 
REMARK    6  A    between atoms: C3'_23  and  O3'_24 
ROOT
ATOM      1  C4' XMP d           2.813  44.864  46.494  0.00  0.00     0.089 C 
ATOM      2  O4' XMP d           2.488  43.554  45.923  0.00  0.00    -0.353 OA
ATOM      3  C1' XMP d           1.340  43.015  46.602  0.00  0.00     0.139 C 
ATOM      4  C2' XMP d           0.927  44.008  47.680  0.00  0.00     0.105 C 
ATOM      5  C3' XMP d           2.167  44.829  47.875  0.00  0.00     0.091 C 
ATOM      6  H3  XMP d           2.379  45.690  45.911  0.00  0.00     0.090 H 
ATOM      7  H4  XMP d           0.501  42.925  45.896  0.00  0.00     0.122 H 
ATOM      8  H8  XMP d           0.655  43.483  48.607  0.00  0.00     0.093 H 
ATOM      9  H10 XMP d           2.842  44.340  48.593  0.00  0.00     0.091 H 
ENDROOT
BRANCH   3  10
ATOM     10  N9  XMP d           1.706  41.649  47.043  0.00  0.00    -0.295 N 
ATOM     11  C4  XMP d           2.503  40.798  46.307  0.00  0.00     0.149 A 
ATOM     12  N3  XMP d           3.078  41.058  45.074  0.00  0.00    -0.292 N 
ATOM     13  C5  XMP d           2.601  39.647  47.062  0.00  0.00     0.170 A 
ATOM     14  C2  XMP d           3.813  40.003  44.622  0.00  0.00     0.328 A 
ATOM     15  H5  XMP d           2.967  41.917  44.575  0.00  0.00     0.172 HD
ATOM     16  N1  XMP d           3.966  38.800  45.319  0.00  0.00    -0.273 N 
ATOM     17  O2  XMP d           4.405  40.044  43.547  0.00  0.00    -0.247 OA
ATOM     18  C6  XMP d           3.366  38.541  46.594  0.00  0.00     0.282 A 
ATOM     19  H6  XMP d           4.525  38.081  44.905  0.00  0.00     0.173 HD
ATOM     20  O6  XMP d           3.535  37.467  47.156  0.00  0.00    -0.265 OA
ATOM     21  N7  XMP d           1.870  39.754  48.275  0.00  0.00    -0.234 NA
ATOM     22  C8  XMP d           1.374  40.962  48.190  0.00  0.00     0.071 A 
ATOM     23  H7  XMP d           0.745  41.393  48.968  0.00  0.00     0.144 H 
ENDBRANCH   3  10
BRANCH   4  24
ATOM     24  O2' XMP d          -0.175  44.824  47.263  0.00  0.00    -0.388 OA
ATOM     25  H9  XMP d          -0.922  44.658  47.826  0.00  0.00     0.210 HD
ENDBRANCH   4  24
BRANCH   1  26
ATOM     26  C5' XMP d           4.316  44.943  46.420  0.00  0.00     0.059 C 
ATOM     27  H1  XMP d           4.697  45.487  47.297  0.00  0.00     0.079 H 
ATOM     28  H2  XMP d           4.735  43.926  46.409  0.00  0.00     0.079 H 
BRANCH  26  29
ATOM     29  O5' XMP d           4.707  45.630  45.227  0.00  0.00    -0.280 OA
BRANCH  29  30
ATOM     30  P   XMP d           4.784  44.918  43.790  0.00  0.00     0.422 P 
ATOM     31  O1P XMP d           5.827  45.539  42.969  0.00  0.00    -0.617 OA
ATOM     32  O2P XMP d           3.421  45.101  43.177  0.00  0.00    -0.617 OA
ATOM     33  O3P XMP d           5.087  43.428  44.084  0.00  0.00    -0.617 OA
ENDBRANCH  29  30
ENDBRANCH  26  29
ENDBRANCH   1  26
BRANCH   5  34
ATOM     34  O3' XMP d           1.843  46.120  48.364  0.00  0.00    -0.390 OA
ATOM     35  H11 XMP d           1.007  46.087  48.814  0.00  0.00     0.210 HD
ENDBRANCH   5  34
TORSDOF 6
ENDMDL
MODEL 2
REMARK VINA RESULT:      -7.0      1.871      2.074
REMARK  6 active torsions:
REMARK  status: ('A' for Active; 'I' for Inactive)
REMARK    1  A    between atoms: P_1  and  O5'_4 
REMARK    2  A    between atoms: O5'_4  and  C5'_6 
REMARK    3  A    between atoms: C5'_6  and  C4'_7 
REMARK    4  A    between atoms: C1'_9  and  N9_10 
REMARK    5  A    between atoms: C2'_21  and  O2'_22 
REMARK    6  A    between atoms: C3'_23  and  O3'_24 
ROOT
ATOM      1  C4' XMP d           2.266  44.513  46.881  0.00  0.00     0.089 C 
ATOM      2  O4' XMP d           1.577  43.322  46.375  0.00  0.00    -0.353 OA
ATOM      3  C1' XMP d           0.931  42.649  47.470  0.00  0.00     0.139 C 
ATOM      4  C2' XMP d           1.245  43.421  48.744  0.00  0.00     0.105 C 
ATOM      5  C3' XMP d           2.461  44.215  48.365  0.00  0.00     0.091 C 
ATOM      6  H3  XMP d           1.658  45.422  46.770  0.00  0.00     0.090 H 
ATOM      7  H4  XMP d          -0.160  42.674  47.328  0.00  0.00     0.122 H 
ATOM      8  H8  XMP d           1.470  42.732  49.570  0.00  0.00     0.093 H 
ATOM      9  H10 XMP d           3.371  43.615  48.511  0.00  0.00     0.091 H 
ENDROOT
BRANCH   3  10
ATOM     10  N9  XMP d           1.360  41.232  47.413  0.00  0.00    -0.295 N 
ATOM     11  C4  XMP d           1.193  40.428  46.305  0.00  0.00     0.149 A 
ATOM     12  N3  XMP d           0.616  40.788  45.099  0.00  0.00    -0.292 N 
ATOM     13  C5  XMP d           1.722  39.204  46.661  0.00  0.00     0.170 A 
ATOM     14  C2  XMP d           0.611  39.755  44.210  0.00  0.00     0.328 A 
ATOM     15  H5  XMP d           0.248  41.696  44.903  0.00  0.00     0.172 HD
ATOM     16  N1  XMP d           1.124  38.483  44.484  0.00  0.00    -0.273 N 
ATOM     17  O2  XMP d           0.145  39.880  43.080  0.00  0.00    -0.247 OA
ATOM     18  C6  XMP d           1.717  38.122  45.736  0.00  0.00     0.282 A 
ATOM     19  H6  XMP d           1.073  37.788  43.766  0.00  0.00     0.173 HD
ATOM     20  O6  XMP d           2.149  36.990  45.918  0.00  0.00    -0.265 OA
ATOM     21  N7  XMP d           2.225  39.217  47.989  0.00  0.00    -0.234 NA
ATOM     22  C8  XMP d           1.975  40.447  48.363  0.00  0.00     0.071 A 
ATOM     23  H7  XMP d           2.236  40.822  49.352  0.00  0.00     0.144 H 
ENDBRANCH   3  10
BRANCH   4  24
ATOM     24  O2' XMP d           0.165  44.280  49.130  0.00  0.00    -0.388 OA
ATOM     25  H9  XMP d           0.455  45.185  49.101  0.00  0.00     0.210 HD
ENDBRANCH   4  24
BRANCH   1  26
ATOM     26  C5' XMP d           3.496  44.629  46.018  0.00  0.00     0.059 C 
ATOM     27  H1  XMP d           3.678  45.689  45.783  0.00  0.00     0.079 H 
ATOM     28  H2  XMP d           4.361  44.219  46.558  0.00  0.00     0.079 H 
BRANCH  26  29
ATOM     29  O5' XMP d           3.304  43.899  44.802  0.00  0.00    -0.280 OA
BRANCH  29  30
ATOM     30  P   XMP d           4.145  42.583  44.428  0.00  0.00     0.422 P 
ATOM     31  O1P XMP d           5.375  42.948  43.721  0.00  0.00    -0.617 OA
ATOM     32  O2P XMP d           3.234  41.758  43.557  0.00  0.00    -0.617 OA
ATOM     33  O3P XMP d           4.437  41.884  45.779  0.00  0.00    -0.617 OA
ENDBRANCH  29  30
ENDBRANCH  26  29
ENDBRANCH   1  26
BRANCH   5  34
ATOM     34  O3' XMP d           2.560  45.390  49.153  0.00  0.00    -0.390 OA
ATOM     35  H11 XMP d           3.445  45.471  49.489  0.00  0.00     0.210 HD
ENDBRANCH   5  34
TORSDOF 6
ENDMDL
MODEL 3
REMARK VINA RESULT:      -6.6      2.370      3.293
REMARK  6 active torsions:
REMARK  status: ('A' for Active; 'I' for Inactive)
REMARK    1  A    between atoms: P_1  and  O5'_4 
REMARK    2  A    between atoms: O5'_4  and  C5'_6 
REMARK    3  A    between atoms: C5'_6  and  C4'_7 
REMARK    4  A    between atoms: C1'_9  and  N9_10 
REMARK    5  A    between atoms: C2'_21  and  O2'_22 
REMARK    6  A    between atoms: C3'_23  and  O3'_24 
ROOT
ATOM      1  C4' XMP d           1.738  43.245  46.411  0.00  0.00     0.089 C 
ATOM      2  O4' XMP d           0.991  42.540  45.366  0.00  0.00    -0.353 OA
ATOM      3  C1' XMP d           0.236  41.471  45.964  0.00  0.00     0.139 C 
ATOM      4  C2' XMP d           0.535  41.467  47.456  0.00  0.00     0.105 C 
ATOM      5  C3' XMP d           1.826  42.226  47.544  0.00  0.00     0.091 C 
ATOM      6  H3  XMP d           1.208  44.140  46.768  0.00  0.00     0.090 H 
ATOM      7  H4  XMP d          -0.840  41.666  45.842  0.00  0.00     0.122 H 
ATOM      8  H8  XMP d           0.661  40.438  47.824  0.00  0.00     0.093 H 
ATOM      9  H10 XMP d           2.680  41.552  47.377  0.00  0.00     0.091 H 
ENDROOT
BRANCH   3  10
ATOM     10  N9  XMP d           0.560  40.242  45.203  0.00  0.00    -0.295 N 
ATOM     11  C4  XMP d           1.514  39.328  45.601  0.00  0.00     0.149 A 
ATOM     12  N3  XMP d           2.306  39.397  46.735  0.00  0.00    -0.292 N 
ATOM     13  C5  XMP d           1.502  38.345  44.633  0.00  0.00     0.170 A 
ATOM     14  C2  XMP d           3.145  38.328  46.835  0.00  0.00     0.328 A 
ATOM     15  H5  XMP d           2.268  40.142  47.401  0.00  0.00     0.172 HD
ATOM     16  N1  XMP d           3.202  37.287  45.902  0.00  0.00    -0.273 N 
ATOM     17  O2  XMP d           3.924  38.206  47.776  0.00  0.00    -0.247 OA
ATOM     18  C6  XMP d           2.378  37.227  44.732  0.00  0.00     0.282 A 
ATOM     19  H6  XMP d           3.853  36.544  46.061  0.00  0.00     0.173 HD
ATOM     20  O6  XMP d           2.473  36.290  43.950  0.00  0.00    -0.265 OA
ATOM     21  N7  XMP d           0.550  38.623  43.617  0.00  0.00    -0.234 NA
ATOM     22  C8  XMP d           0.036  39.756  44.027  0.00  0.00     0.071 A 
ATOM     23  H7  XMP d          -0.748  40.275  43.477  0.00  0.00     0.144 H 
ENDBRANCH   3  10
BRANCH   4  24
ATOM     24  O2' XMP d          -0.498  42.112  48.212  0.00  0.00    -0.388 OA
ATOM     25  H9  XMP d          -1.160  41.473  48.450  0.00  0.00     0.210 HD
ENDBRANCH   4  24
BRANCH   1  26
ATOM     26  C5' XMP d           3.019  43.665  45.739  0.00  0.00     0.059 C 
ATOM     27  H1  XMP d           3.395  42.836  45.120  0.00  0.00     0.079 H 
ATOM     28  H2  XMP d           2.828  44.540  45.101  0.00  0.00     0.079 H 
BRANCH  26  29
ATOM     29  O5' XMP d           3.998  44.001  46.727  0.00  0.00    -0.280 OA
BRANCH  29  30
ATOM     30  P   XMP d           4.051  45.430  47.457  0.00  0.00     0.422 P 
ATOM     31  O1P XMP d           4.130  45.257  48.910  0.00  0.00    -0.617 OA
ATOM     32  O2P XMP d           2.781  46.134  47.057  0.00  0.00    -0.617 OA
ATOM     33  O3P XMP d           5.304  46.138  46.887  0.00  0.00    -0.617 OA
ENDBRANCH  29  30
ENDBRANCH  26  29
ENDBRANCH   1  26
BRANCH   5  34
ATOM     34  O3' XMP d           1.969  42.831  48.818  0.00  0.00    -0.390 OA
ATOM     35  H11 XMP d           1.305  43.503  48.925  0.00  0.00     0.210 HD
ENDBRANCH   5  34
TORSDOF 6
ENDMDL
MODEL 4
REMARK VINA RESULT:      -6.5      2.743      6.239
REMARK  6 active torsions:
REMARK  status: ('A' for Active; 'I' for Inactive)
REMARK    1  A    between atoms: P_1  and  O5'_4 
REMARK    2  A    between atoms: O5'_4  and  C5'_6 
REMARK    3  A    between atoms: C5'_6  and  C4'_7 
REMARK    4  A    between atoms: C1'_9  and  N9_10 
REMARK    5  A    between atoms: C2'_21  and  O2'_22 
REMARK    6  A    between atoms: C3'_23  and  O3'_24 
ROOT
ATOM      1  C4' XMP d           3.414  40.986  44.413  0.00  0.00     0.089 C 
ATOM      2  O4' XMP d           2.710  42.271  44.414  0.00  0.00    -0.353 OA
ATOM      3  C1' XMP d           3.675  43.339  44.382  0.00  0.00     0.139 C 
ATOM      4  C2' XMP d           5.063  42.713  44.393  0.00  0.00     0.105 C 
ATOM      5  C3' XMP d           4.808  41.335  44.928  0.00  0.00     0.091 C 
ATOM      6  H3  XMP d           3.497  40.560  43.403  0.00  0.00     0.090 H 
ATOM      7  H4  XMP d           3.572  43.901  43.442  0.00  0.00     0.122 H 
ATOM      8  H8  XMP d           5.736  43.273  45.059  0.00  0.00     0.093 H 
ATOM      9  H10 XMP d           4.809  41.345  46.029  0.00  0.00     0.091 H 
ENDROOT
BRANCH   3  10
ATOM     10  N9  XMP d           3.335  44.256  45.495  0.00  0.00    -0.295 N 
ATOM     11  C4  XMP d           2.307  44.027  46.385  0.00  0.00     0.149 A 
ATOM     12  N3  XMP d           1.444  42.944  46.395  0.00  0.00    -0.292 N 
ATOM     13  C5  XMP d           2.331  45.100  47.252  0.00  0.00     0.170 A 
ATOM     14  C2  XMP d           0.542  43.022  47.413  0.00  0.00     0.328 A 
ATOM     15  H5  XMP d           1.478  42.194  45.734  0.00  0.00     0.172 HD
ATOM     16  N1  XMP d           0.492  44.071  48.337  0.00  0.00    -0.273 N 
ATOM     17  O2  XMP d          -0.305  42.151  47.591  0.00  0.00    -0.247 OA
ATOM     18  C6  XMP d           1.390  45.187  48.316  0.00  0.00     0.282 A 
ATOM     19  H6  XMP d          -0.208  44.041  49.050  0.00  0.00     0.173 HD
ATOM     20  O6  XMP d           1.297  46.078  49.152  0.00  0.00    -0.265 OA
ATOM     21  N7  XMP d           3.365  46.016  46.922  0.00  0.00    -0.234 NA
ATOM     22  C8  XMP d           3.912  45.447  45.877  0.00  0.00     0.071 A 
ATOM     23  H7  XMP d           4.760  45.882  45.350  0.00  0.00     0.144 H 
ENDBRANCH   3  10
BRANCH   4  24
ATOM     24  O2' XMP d           5.638  42.662  43.081  0.00  0.00    -0.388 OA
ATOM     25  H9  XMP d           4.949  42.535  42.439  0.00  0.00     0.210 HD
ENDBRANCH   4  24
BRANCH   1  26
ATOM     26  C5' XMP d           2.554  40.086  45.262  0.00  0.00     0.059 C 
ATOM     27  H1  XMP d           3.064  39.886  46.215  0.00  0.00     0.079 H 
ATOM     28  H2  XMP d           1.591  40.581  45.458  0.00  0.00     0.079 H 
BRANCH  26  29
ATOM     29  O5' XMP d           2.323  38.851  44.577  0.00  0.00    -0.280 OA
BRANCH  29  30
ATOM     30  P   XMP d           3.064  37.481  44.968  0.00  0.00     0.422 P 
ATOM     31  O1P XMP d           4.515  37.632  44.835  0.00  0.00    -0.617 OA
ATOM     32  O2P XMP d           2.530  36.448  44.012  0.00  0.00    -0.617 OA
ATOM     33  O3P XMP d           2.642  37.186  46.428  0.00  0.00    -0.617 OA
ENDBRANCH  29  30
ENDBRANCH  26  29
ENDBRANCH   1  26
BRANCH   5  34
ATOM     34  O3' XMP d           5.803  40.429  44.481  0.00  0.00    -0.390 OA
ATOM     35  H11 XMP d           5.388  39.636  44.164  0.00  0.00     0.210 HD
ENDBRANCH   5  34
TORSDOF 6
ENDMDL
MODEL 5
REMARK VINA RESULT:      -6.0      2.210      3.052
REMARK  6 active torsions:
REMARK  status: ('A' for Active; 'I' for Inactive)
REMARK    1  A    between atoms: P_1  and  O5'_4 
REMARK    2  A    between atoms: O5'_4  and  C5'_6 
REMARK    3  A    between atoms: C5'_6  and  C4'_7 
REMARK    4  A    between atoms: C1'_9  and  N9_10 
REMARK    5  A    between atoms: C2'_21  and  O2'_22 
REMARK    6  A    between atoms: C3'_23  and  O3'_24 
ROOT
ATOM      1  C4' XMP d           1.751  43.670  46.781  0.00  0.00     0.089 C 
ATOM      2  O4' XMP d           0.944  43.093  45.701  0.00  0.00    -0.353 OA
ATOM      3  C1' XMP d           0.117  42.045  46.238  0.00  0.00     0.139 C 
ATOM      4  C2' XMP d           0.430  41.918  47.723  0.00  0.00     0.105 C 
ATOM      5  C3' XMP d           1.774  42.573  47.842  0.00  0.00     0.091 C 
ATOM      6  H3  XMP d           1.291  44.575  47.204  0.00  0.00     0.090 H 
ATOM      7  H4  XMP d          -0.943  42.325  46.145  0.00  0.00     0.122 H 
ATOM      8  H8  XMP d           0.482  40.861  48.020  0.00  0.00     0.093 H 
ATOM      9  H10 XMP d           2.574  41.852  47.618  0.00  0.00     0.091 H 
ENDROOT
BRANCH   3  10
ATOM     10  N9  XMP d           0.342  40.848  45.394  0.00  0.00    -0.295 N 
ATOM     11  C4  XMP d           1.147  39.792  45.766  0.00  0.00     0.149 A 
ATOM     12  N3  XMP d           1.859  39.669  46.948  0.00  0.00    -0.292 N 
ATOM     13  C5  XMP d           1.084  38.899  44.717  0.00  0.00     0.170 A 
ATOM     14  C2  XMP d           2.553  38.497  47.004  0.00  0.00     0.328 A 
ATOM     15  H5  XMP d           1.865  40.357  47.673  0.00  0.00     0.172 HD
ATOM     16  N1  XMP d           2.548  37.535  45.988  0.00  0.00    -0.273 N 
ATOM     17  O2  XMP d           3.242  38.202  47.976  0.00  0.00    -0.247 OA
ATOM     18  C6  XMP d           1.808  37.674  44.769  0.00  0.00     0.282 A 
ATOM     19  H6  XMP d           3.090  36.705  46.119  0.00  0.00     0.173 HD
ATOM     20  O6  XMP d           1.843  36.797  43.915  0.00  0.00    -0.265 OA
ATOM     21  N7  XMP d           0.247  39.376  43.674  0.00  0.00    -0.234 NA
ATOM     22  C8  XMP d          -0.153  40.528  44.149  0.00  0.00     0.071 A 
ATOM     23  H7  XMP d          -0.827  41.185  43.602  0.00  0.00     0.144 H 
ENDBRANCH   3  10
BRANCH   4  24
ATOM     24  O2' XMP d          -0.545  42.585  48.535  0.00  0.00    -0.388 OA
ATOM     25  H9  XMP d          -0.329  43.508  48.594  0.00  0.00     0.210 HD
ENDBRANCH   4  24
BRANCH   1  26
ATOM     26  C5' XMP d           3.053  44.038  46.118  0.00  0.00     0.059 C 
ATOM     27  H1  XMP d           3.108  45.131  46.004  0.00  0.00     0.079 H 
ATOM     28  H2  XMP d           3.891  43.692  46.741  0.00  0.00     0.079 H 
BRANCH  26  29
ATOM     29  O5' XMP d           3.132  43.421  44.830  0.00  0.00    -0.280 OA
BRANCH  29  30
ATOM     30  P   XMP d           4.060  42.146  44.524  0.00  0.00     0.422 P 
ATOM     31  O1P XMP d           4.268  41.364  45.745  0.00  0.00    -0.617 OA
ATOM     32  O2P XMP d           5.356  42.708  44.003  0.00  0.00    -0.617 OA
ATOM     33  O3P XMP d           3.306  41.338  43.439  0.00  0.00    -0.617 OA
ENDBRANCH  29  30
ENDBRANCH  26  29
ENDBRANCH   1  26
BRANCH   5  34
ATOM     34  O3' XMP d           1.973  43.080  49.151  0.00  0.00    -0.390 OA
ATOM     35  H11 XMP d           2.537  42.488  49.636  0.00  0.00     0.210 HD
ENDBRANCH   5  34
TORSDOF 6
ENDMDL
MODEL 6
REMARK VINA RESULT:      -6.0      2.736      4.718
REMARK  6 active torsions:
REMARK  status: ('A' for Active; 'I' for Inactive)
REMARK    1  A    between atoms: P_1  and  O5'_4 
REMARK    2  A    between atoms: O5'_4  and  C5'_6 
REMARK    3  A    between atoms: C5'_6  and  C4'_7 
REMARK    4  A    between atoms: C1'_9  and  N9_10 
REMARK    5  A    between atoms: C2'_21  and  O2'_22 
REMARK    6  A    between atoms: C3'_23  and  O3'_24 
ROOT
ATOM      1  C4' XMP d           3.497  43.342  45.560  0.00  0.00     0.089 C 
ATOM      2  O4' XMP d           4.054  42.092  46.083  0.00  0.00    -0.353 OA
ATOM      3  C1' XMP d           4.774  41.419  45.034  0.00  0.00     0.139 C 
ATOM      4  C2' XMP d           4.647  42.258  43.770  0.00  0.00     0.105 C 
ATOM      5  C3' XMP d           3.448  43.115  44.052  0.00  0.00     0.091 C 
ATOM      6  H3  XMP d           4.143  44.206  45.775  0.00  0.00     0.090 H 
ATOM      7  H4  XMP d           5.842  41.368  45.292  0.00  0.00     0.122 H 
ATOM      8  H8  XMP d           4.473  41.617  42.894  0.00  0.00     0.093 H 
ATOM      9  H10 XMP d           2.524  42.581  43.783  0.00  0.00     0.091 H 
ENDROOT
BRANCH   3  10
ATOM     10  N9  XMP d           4.256  40.032  44.981  0.00  0.00    -0.295 N 
ATOM     11  C4  XMP d           2.937  39.720  44.729  0.00  0.00     0.149 A 
ATOM     12  N3  XMP d           1.904  40.611  44.490  0.00  0.00    -0.292 N 
ATOM     13  C5  XMP d           2.877  38.342  44.764  0.00  0.00     0.170 A 
ATOM     14  C2  XMP d           0.721  39.972  44.272  0.00  0.00     0.328 A 
ATOM     15  H5  XMP d           2.013  41.605  44.480  0.00  0.00     0.172 HD
ATOM     16  N1  XMP d           0.567  38.581  44.289  0.00  0.00    -0.273 N 
ATOM     17  O2  XMP d          -0.313  40.592  44.038  0.00  0.00    -0.247 OA
ATOM     18  C6  XMP d           1.642  37.669  44.539  0.00  0.00     0.282 A 
ATOM     19  H6  XMP d          -0.344  38.204  44.119  0.00  0.00     0.173 HD
ATOM     20  O6  XMP d           1.446  36.460  44.542  0.00  0.00    -0.265 OA
ATOM     21  N7  XMP d           4.146  37.769  45.040  0.00  0.00    -0.234 NA
ATOM     22  C8  XMP d           4.906  38.830  45.153  0.00  0.00     0.071 A 
ATOM     23  H7  XMP d           5.972  38.767  45.367  0.00  0.00     0.144 H 
ENDBRANCH   3  10
BRANCH   4  24
ATOM     24  O2' XMP d           5.813  43.059  43.539  0.00  0.00    -0.388 OA
ATOM     25  H9  XMP d           5.558  43.878  43.129  0.00  0.00     0.210 HD
ENDBRANCH   4  24
BRANCH   1  26
ATOM     26  C5' XMP d           2.190  43.506  46.291  0.00  0.00     0.059 C 
ATOM     27  H1  XMP d           2.195  44.461  46.838  0.00  0.00     0.079 H 
ATOM     28  H2  XMP d           1.363  43.502  45.567  0.00  0.00     0.079 H 
BRANCH  26  29
ATOM     29  O5' XMP d           2.016  42.429  47.218  0.00  0.00    -0.280 OA
BRANCH  29  30
ATOM     30  P   XMP d           0.577  41.952  47.747  0.00  0.00     0.422 P 
ATOM     31  O1P XMP d           0.395  42.341  49.147  0.00  0.00    -0.617 OA
ATOM     32  O2P XMP d           0.566  40.454  47.586  0.00  0.00    -0.617 OA
ATOM     33  O3P XMP d          -0.452  42.638  46.815  0.00  0.00    -0.617 OA
ENDBRANCH  29  30
ENDBRANCH  26  29
ENDBRANCH   1  26
BRANCH   5  34
ATOM     34  O3' XMP d           3.507  44.322  43.311  0.00  0.00    -0.390 OA
ATOM     35  H11 XMP d           3.028  44.217  42.497  0.00  0.00     0.210 HD
ENDBRANCH   5  34
TORSDOF 6
ENDMDL
MODEL 7
REMARK VINA RESULT:      -5.8      2.846      6.423
REMARK  6 active torsions:
REMARK  status: ('A' for Active; 'I' for Inactive)
REMARK    1  A    between atoms: P_1  and  O5'_4 
REMARK    2  A    between atoms: O5'_4  and  C5'_6 
REMARK    3  A    between atoms: C5'_6  and  C4'_7 
REMARK    4  A    between atoms: C1'_9  and  N9_10 
REMARK    5  A    between atoms: C2'_21  and  O2'_22 
REMARK    6  A    between atoms: C3'_23  and  O3'_24 
ROOT
ATOM      1  C4' XMP d           2.889  39.224  45.040  0.00  0.00     0.089 C 
ATOM      2  O4' XMP d           3.410  39.942  43.873  0.00  0.00    -0.353 OA
ATOM      3  C1' XMP d           4.820  40.170  44.049  0.00  0.00     0.139 C 
ATOM      4  C2' XMP d           5.219  39.603  45.405  0.00  0.00     0.105 C 
ATOM      5  C3' XMP d           3.910  39.522  46.135  0.00  0.00     0.091 C 
ATOM      6  H3  XMP d           2.844  38.138  44.872  0.00  0.00     0.090 H 
ATOM      7  H4  XMP d           5.383  39.620  43.281  0.00  0.00     0.122 H 
ATOM      8  H8  XMP d           5.913  40.282  45.921  0.00  0.00     0.093 H 
ATOM      9  H10 XMP d           3.677  40.485  46.613  0.00  0.00     0.091 H 
ENDROOT
BRANCH   3  10
ATOM     10  N9  XMP d           5.050  41.617  43.826  0.00  0.00    -0.295 N 
ATOM     11  C4  XMP d           4.553  42.605  44.651  0.00  0.00     0.149 A 
ATOM     12  N3  XMP d           3.782  42.426  45.787  0.00  0.00    -0.292 N 
ATOM     13  C5  XMP d           4.991  43.792  44.101  0.00  0.00     0.170 A 
ATOM     14  C2  XMP d           3.460  43.612  46.375  0.00  0.00     0.328 A 
ATOM     15  H5  XMP d           3.495  41.533  46.135  0.00  0.00     0.172 HD
ATOM     16  N1  XMP d           3.859  44.862  45.888  0.00  0.00    -0.273 N 
ATOM     17  O2  XMP d           2.784  43.662  47.399  0.00  0.00    -0.247 OA
ATOM     18  C6  XMP d           4.656  45.034  44.710  0.00  0.00     0.282 A 
ATOM     19  H6  XMP d           3.572  45.679  46.388  0.00  0.00     0.173 HD
ATOM     20  O6  XMP d           4.974  46.154  44.331  0.00  0.00    -0.265 OA
ATOM     21  N7  XMP d           5.762  43.573  42.929  0.00  0.00    -0.234 NA
ATOM     22  C8  XMP d           5.751  42.266  42.835  0.00  0.00     0.071 A 
ATOM     23  H7  XMP d           6.260  41.733  42.033  0.00  0.00     0.144 H 
ENDBRANCH   3  10
BRANCH   4  24
ATOM     24  O2' XMP d           5.827  38.311  45.287  0.00  0.00    -0.388 OA
ATOM     25  H9  XMP d           5.581  37.777  46.033  0.00  0.00     0.210 HD
ENDBRANCH   4  24
BRANCH   1  26
ATOM     26  C5' XMP d           1.491  39.758  45.215  0.00  0.00     0.059 C 
ATOM     27  H1  XMP d           1.124  40.141  44.252  0.00  0.00     0.079 H 
ATOM     28  H2  XMP d           0.832  38.949  45.563  0.00  0.00     0.079 H 
BRANCH  26  29
ATOM     29  O5' XMP d           1.494  40.816  46.178  0.00  0.00    -0.280 OA
BRANCH  29  30
ATOM     30  P   XMP d           0.888  40.658  47.657  0.00  0.00     0.422 P 
ATOM     31  O1P XMP d           0.000  41.781  47.966  0.00  0.00    -0.617 OA
ATOM     32  O2P XMP d           2.079  40.628  48.578  0.00  0.00    -0.617 OA
ATOM     33  O3P XMP d           0.133  39.306  47.649  0.00  0.00    -0.617 OA
ENDBRANCH  29  30
ENDBRANCH  26  29
ENDBRANCH   1  26
BRANCH   5  34
ATOM     34  O3' XMP d           3.953  38.517  47.135  0.00  0.00    -0.390 OA
ATOM     35  H11 XMP d           4.253  37.702  46.750  0.00  0.00     0.210 HD
ENDBRANCH   5  34
TORSDOF 6
ENDMDL
MODEL 8
REMARK VINA RESULT:      -5.4      2.588      4.845
REMARK  6 active torsions:
REMARK  status: ('A' for Active; 'I' for Inactive)
REMARK    1  A    between atoms: P_1  and  O5'_4 
REMARK    2  A    between atoms: O5'_4  and  C5'_6 
REMARK    3  A    between atoms: C5'_6  and  C4'_7 
REMARK    4  A    between atoms: C1'_9  and  N9_10 
REMARK    5  A    between atoms: C2'_21  and  O2'_22 
REMARK    6  A    between atoms: C3'_23  and  O3'_24 
ROOT
ATOM      1  C4' XMP d           3.207  43.465  45.493  0.00  0.00     0.089 C 
ATOM      2  O4' XMP d           3.995  42.288  45.869  0.00  0.00    -0.353 OA
ATOM      3  C1' XMP d           5.048  42.097  44.906  0.00  0.00     0.139 C 
ATOM      4  C2' XMP d           4.912  43.180  43.845  0.00  0.00     0.105 C 
ATOM      5  C3' XMP d           3.489  43.630  44.002  0.00  0.00     0.091 C 
ATOM      6  H3  XMP d           3.534  44.370  46.026  0.00  0.00     0.090 H 
ATOM      7  H4  XMP d           6.024  42.232  45.394  0.00  0.00     0.122 H 
ATOM      8  H8  XMP d           5.082  42.764  42.841  0.00  0.00     0.093 H 
ATOM      9  H10 XMP d           2.816  42.982  43.420  0.00  0.00     0.091 H 
ENDROOT
BRANCH   3  10
ATOM     10  N9  XMP d           4.962  40.689  44.453  0.00  0.00    -0.295 N 
ATOM     11  C4  XMP d           4.398  39.679  45.204  0.00  0.00     0.149 A 
ATOM     12  N3  XMP d           3.836  39.797  46.463  0.00  0.00    -0.292 N 
ATOM     13  C5  XMP d           4.514  38.543  44.430  0.00  0.00     0.170 A 
ATOM     14  C2  XMP d           3.363  38.605  46.924  0.00  0.00     0.328 A 
ATOM     15  H5  XMP d           3.782  40.655  46.975  0.00  0.00     0.172 HD
ATOM     16  N1  XMP d           3.439  37.404  46.209  0.00  0.00    -0.273 N 
ATOM     17  O2  XMP d           2.824  38.506  48.022  0.00  0.00    -0.247 OA
ATOM     18  C6  XMP d           4.024  37.294  44.907  0.00  0.00     0.282 A 
ATOM     19  H6  XMP d           3.065  36.578  46.631  0.00  0.00     0.173 HD
ATOM     20  O6  XMP d           4.063  36.214  44.330  0.00  0.00    -0.265 OA
ATOM     21  N7  XMP d           5.152  38.816  43.191  0.00  0.00    -0.234 NA
ATOM     22  C8  XMP d           5.383  40.102  43.280  0.00  0.00     0.071 A 
ATOM     23  H7  XMP d           5.871  40.666  42.486  0.00  0.00     0.144 H 
ENDBRANCH   3  10
BRANCH   4  24
ATOM     24  O2' XMP d           5.824  44.263  44.064  0.00  0.00    -0.388 OA
ATOM     25  H9  XMP d           5.352  45.087  44.022  0.00  0.00     0.210 HD
ENDBRANCH   4  24
BRANCH   1  26
ATOM     26  C5' XMP d           1.801  43.124  45.912  0.00  0.00     0.059 C 
ATOM     27  H1  XMP d           1.412  43.917  46.568  0.00  0.00     0.079 H 
ATOM     28  H2  XMP d           1.164  43.041  45.019  0.00  0.00     0.079 H 
BRANCH  26  29
ATOM     29  O5' XMP d           1.795  41.879  46.617  0.00  0.00    -0.280 OA
BRANCH  29  30
ATOM     30  P   XMP d           0.696  41.506  47.728  0.00  0.00     0.422 P 
ATOM     31  O1P XMP d           1.324  41.382  49.045  0.00  0.00    -0.617 OA
ATOM     32  O2P XMP d           0.098  40.199  47.278  0.00  0.00    -0.617 OA
ATOM     33  O3P XMP d          -0.340  42.657  47.684  0.00  0.00    -0.617 OA
ENDBRANCH  29  30
ENDBRANCH  26  29
ENDBRANCH   1  26
BRANCH   5  34
ATOM     34  O3' XMP d           3.331  44.966  43.556  0.00  0.00    -0.390 OA
ATOM     35  H11 XMP d           3.384  44.991  42.608  0.00  0.00     0.210 HD
ENDBRANCH   5  34
TORSDOF 6
ENDMDL
MODEL 9
REMARK VINA RESULT:      -5.0      1.266      1.611
REMARK  6 active torsions:
REMARK  status: ('A' for Active; 'I' for Inactive)
REMARK    1  A    between atoms: P_1  and  O5'_4 
REMARK    2  A    between atoms: O5'_4  and  C5'_6 
REMARK    3  A    between atoms: C5'_6  and  C4'_7 
REMARK    4  A    between atoms: C1'_9  and  N9_10 
REMARK    5  A    between atoms: C2'_21  and  O2'_22 
REMARK    6  A    between atoms: C3'_23  and  O3'_24 
ROOT
ATOM      1  C4' XMP d           3.500  44.492  46.626  0.00  0.00     0.089 C 
ATOM      2  O4' XMP d           2.438  43.727  45.966  0.00  0.00    -0.353 OA
ATOM      3  C1' XMP d           1.327  43.584  46.870  0.00  0.00     0.139 C 
ATOM      4  C2' XMP d           1.703  44.259  48.182  0.00  0.00     0.105 C 
ATOM      5  C3' XMP d           3.201  44.320  48.112  0.00  0.00     0.091 C 
ATOM      6  H3  XMP d           3.462  45.560  46.369  0.00  0.00     0.090 H 
ATOM      7  H4  XMP d           0.451  44.112  46.465  0.00  0.00     0.122 H 
ATOM      8  H8  XMP d           1.376  43.653  49.038  0.00  0.00     0.093 H 
ATOM      9  H10 XMP d           3.640  43.379  48.477  0.00  0.00     0.091 H 
ENDROOT
BRANCH   3  10
ATOM     10  N9  XMP d           0.999  42.140  46.920  0.00  0.00    -0.295 N 
ATOM     11  C4  XMP d           1.868  41.147  46.519  0.00  0.00     0.149 A 
ATOM     12  N3  XMP d           3.147  41.316  46.018  0.00  0.00    -0.292 N 
ATOM     13  C5  XMP d           1.189  39.964  46.728  0.00  0.00     0.170 A 
ATOM     14  C2  XMP d           3.740  40.126  45.721  0.00  0.00     0.328 A 
ATOM     15  H5  XMP d           3.585  42.206  45.888  0.00  0.00     0.172 HD
ATOM     16  N1  XMP d           3.127  38.880  45.899  0.00  0.00    -0.273 N 
ATOM     17  O2  XMP d           4.880  40.068  45.268  0.00  0.00    -0.247 OA
ATOM     18  C6  XMP d           1.802  38.717  46.418  0.00  0.00     0.282 A 
ATOM     19  H6  XMP d           3.642  38.060  45.651  0.00  0.00     0.173 HD
ATOM     20  O6  XMP d           1.318  37.600  46.551  0.00  0.00    -0.265 OA
ATOM     21  N7  XMP d          -0.109  40.192  47.257  0.00  0.00    -0.234 NA
ATOM     22  C8  XMP d          -0.143  41.499  47.343  0.00  0.00     0.071 A 
ATOM     23  H7  XMP d          -1.011  42.038  47.720  0.00  0.00     0.144 H 
ENDBRANCH   3  10
BRANCH   4  24
ATOM     24  O2' XMP d           1.136  45.571  48.291  0.00  0.00    -0.388 OA
ATOM     25  H9  XMP d           1.785  46.218  48.040  0.00  0.00     0.210 HD
ENDBRANCH   4  24
BRANCH   1  26
ATOM     26  C5' XMP d           4.777  43.898  46.090  0.00  0.00     0.059 C 
ATOM     27  H1  XMP d           5.492  43.766  46.915  0.00  0.00     0.079 H 
ATOM     28  H2  XMP d           4.562  42.922  45.630  0.00  0.00     0.079 H 
BRANCH  26  29
ATOM     29  O5' XMP d           5.341  44.772  45.107  0.00  0.00    -0.280 OA
BRANCH  29  30
ATOM     30  P   XMP d           5.127  44.571  43.528  0.00  0.00     0.422 P 
ATOM     31  O1P XMP d           3.698  44.520  43.211  0.00  0.00    -0.617 OA
ATOM     32  O2P XMP d           5.811  43.272  43.192  0.00  0.00    -0.617 OA
ATOM     33  O3P XMP d           5.827  45.779  42.860  0.00  0.00    -0.617 OA
ENDBRANCH  29  30
ENDBRANCH  26  29
ENDBRANCH   1  26
BRANCH   5  34
ATOM     34  O3' XMP d           3.698  45.389  48.900  0.00  0.00    -0.390 OA
ATOM     35  H11 XMP d           4.628  45.265  49.049  0.00  0.00     0.210 HD
ENDBRANCH   5  34
TORSDOF 6
ENDMDL
MODEL 10
REMARK VINA RESULT:      -5.0      2.516      4.026
REMARK  6 active torsions:
REMARK  status: ('A' for Active; 'I' for Inactive)
REMARK    1  A    between atoms: P_1  and  O5'_4 
REMARK    2  A    between atoms: O5'_4  and  C5'_6 
REMARK    3  A    between atoms: C5'_6  and  C4'_7 
REMARK    4  A    between atoms: C1'_9  and  N9_10 
REMARK    5  A    between atoms: C2'_21  and  O2'_22 
REMARK    6  A    between atoms: C3'_23  and  O3'_24 
ROOT
ATOM      1  C4' XMP d           4.439  43.228  43.129  0.00  0.00     0.089 C 
ATOM      2  O4' XMP d           3.150  42.718  43.606  0.00  0.00    -0.353 OA
ATOM      3  C1' XMP d           2.658  43.580  44.647  0.00  0.00     0.139 C 
ATOM      4  C2' XMP d           3.691  44.676  44.874  0.00  0.00     0.105 C 
ATOM      5  C3' XMP d           4.940  44.088  44.285  0.00  0.00     0.091 C 
ATOM      6  H3  XMP d           4.331  43.853  42.231  0.00  0.00     0.090 H 
ATOM      7  H4  XMP d           1.728  44.065  44.317  0.00  0.00     0.122 H 
ATOM      8  H8  XMP d           3.820  44.872  45.948  0.00  0.00     0.093 H 
ATOM      9  H10 XMP d           5.454  43.458  45.026  0.00  0.00     0.091 H 
ENDROOT
BRANCH   3  10
ATOM     10  N9  XMP d           2.328  42.711  45.801  0.00  0.00    -0.295 N 
ATOM     11  C4  XMP d           1.777  41.453  45.675  0.00  0.00     0.149 A 
ATOM     12  N3  XMP d           1.448  40.806  44.496  0.00  0.00    -0.292 N 
ATOM     13  C5  XMP d           1.632  40.989  46.967  0.00  0.00     0.170 A 
ATOM     14  C2  XMP d           0.926  39.568  44.724  0.00  0.00     0.328 A 
ATOM     15  H5  XMP d           1.578  41.199  43.586  0.00  0.00     0.172 HD
ATOM     16  N1  XMP d           0.742  39.018  45.997  0.00  0.00    -0.273 N 
ATOM     17  O2  XMP d           0.577  38.836  43.802  0.00  0.00    -0.247 OA
ATOM     18  C6  XMP d           1.085  39.698  47.210  0.00  0.00     0.282 A 
ATOM     19  H6  XMP d           0.349  38.100  46.064  0.00  0.00     0.173 HD
ATOM     20  O6  XMP d           0.900  39.165  48.297  0.00  0.00    -0.265 OA
ATOM     21  N7  XMP d           2.082  41.942  47.918  0.00  0.00    -0.234 NA
ATOM     22  C8  XMP d           2.478  42.927  47.153  0.00  0.00     0.071 A 
ATOM     23  H7  XMP d           2.896  43.849  47.555  0.00  0.00     0.144 H 
ENDBRANCH   3  10
BRANCH   4  24
ATOM     24  O2' XMP d           3.331  45.896  44.214  0.00  0.00    -0.388 OA
ATOM     25  H9  XMP d           3.031  46.527  44.858  0.00  0.00     0.210 HD
ENDBRANCH   4  24
BRANCH   1  26
ATOM     26  C5' XMP d           5.225  41.991  42.779  0.00  0.00     0.059 C 
ATOM     27  H1  XMP d           5.522  42.034  41.720  0.00  0.00     0.079 H 
ATOM     28  H2  XMP d           6.124  41.937  43.410  0.00  0.00     0.079 H 
BRANCH  26  29
ATOM     29  O5' XMP d           4.420  40.828  42.998  0.00  0.00    -0.280 OA
BRANCH  29  30
ATOM     30  P   XMP d           4.911  39.574  43.874  0.00  0.00     0.422 P 
ATOM     31  O1P XMP d           3.763  38.897  44.482  0.00  0.00    -0.617 OA
ATOM     32  O2P XMP d           5.827  40.150  44.921  0.00  0.00    -0.617 OA
ATOM     33  O3P XMP d           5.672  38.656  42.887  0.00  0.00    -0.617 OA
ENDBRANCH  29  30
ENDBRANCH  26  29
ENDBRANCH   1  26
BRANCH   5  34
ATOM     34  O3' XMP d           5.827  45.112  43.865  0.00  0.00    -0.390 OA
ATOM     35  H11 XMP d           5.981  45.712  44.585  0.00  0.00     0.210 HD
ENDBRANCH   5  34
TORSDOF 6
ENDMDL
