REMARK  6 active torsions:
REMARK  status: ('A' for Active; 'I' for Inactive)
REMARK       I    between atoms: C22_2  and  N24_3 
REMARK    1  A    between atoms: C22_2  and  C19_16 
REMARK    2  A    between atoms: N24_3  and  C26_4 
REMARK    3  A    between atoms: C29_6  and  N31_10 
REMARK    4  A    between atoms: C18_19  and  C21_20 
REMARK    5  A    between atoms: C15_21  and  C12_23 
REMARK    6  A    between atoms: C2_30  and  C5_32 
ROOT
ATOM      1  C19 MOL d          40.037  30.331  34.147  0.00  0.00     0.033 A 
ATOM      2  C23 MOL d          38.830  30.545  33.468  0.00  0.00    -0.067 A 
ATOM      3  C20 MOL d          38.800  31.389  32.355  0.00  0.00    -0.075 A 
ATOM      4  C18 MOL d          39.960  32.022  31.908  0.00  0.00    -0.051 A 
ATOM      5  C15 MOL d          41.155  31.806  32.598  0.00  0.00    -0.019 A 
ATOM      6  C17 MOL d          41.202  30.979  33.703  0.00  0.00    -0.057 A 
ATOM      7  H14 MOL d          37.922  30.057  33.805  0.00  0.00     0.085 H 
ATOM      8  H15 MOL d          37.864  31.554  31.833  0.00  0.00     0.084 H 
ATOM      9  H19 MOL d          42.138  30.830  34.228  0.00  0.00     0.086 H 
ENDROOT
BRANCH   5  10
ATOM     10  C12 MOL d          42.386  32.465  32.131  0.00  0.00    -0.023 A 
ATOM     11  C9  MOL d          43.244  31.767  31.283  0.00  0.00    -0.071 A 
ATOM     12  C4  MOL d          44.402  32.391  30.814  0.00  0.00    -0.067 A 
ATOM     13  H20 MOL d          43.014  30.749  30.990  0.00  0.00     0.084 H 
ATOM     14  C1  MOL d          44.668  33.720  31.219  0.00  0.00     0.027 A 
ATOM     15  H21 MOL d          45.083  31.867  30.153  0.00  0.00     0.085 H 
ATOM     16  C3  MOL d          43.804  34.376  32.051  0.00  0.00     0.114 A 
ATOM     17  C2  MOL d          45.730  34.577  30.916  0.00  0.00     0.079 A 
ATOM     18  O8  MOL d          44.309  35.625  32.269  0.00  0.00    -0.212 OA
ATOM     19  C7  MOL d          42.664  33.778  32.511  0.00  0.00    -0.037 A 
ATOM     20  N6  MOL d          45.445  35.735  31.593  0.00  0.00    -0.131 NA
ATOM     21  H22 MOL d          41.985  34.317  33.162  0.00  0.00     0.089 H 
BRANCH  17  22
ATOM     22  C5  MOL d          46.938  34.291  30.051  0.00  0.00    -0.006 C 
ATOM     23  C10 MOL d          47.921  33.311  30.736  0.00  0.00    -0.034 C 
ATOM     24  C13 MOL d          48.943  32.814  29.715  0.00  0.00     0.082 C 
ATOM     25  H24 MOL d          47.362  32.455  31.141  0.00  0.00     0.036 H 
ATOM     26  H25 MOL d          48.443  33.828  31.555  0.00  0.00     0.036 H 
ATOM     27  N16 MOL d          49.712  33.908  29.101  0.00  0.00    -0.075 N 
ATOM     28  H26 MOL d          48.411  32.270  28.921  0.00  0.00     0.075 H 
ATOM     29  H27 MOL d          49.643  32.133  30.221  0.00  0.00     0.075 H 
ATOM     30  C14 MOL d          48.962  35.139  28.759  0.00  0.00     0.082 C 
ATOM     31  H28 MOL d          50.121  33.554  28.251  0.00  0.00     0.277 HD
ATOM     32  H29 MOL d          50.444  34.165  29.744  0.00  0.00     0.277 HD
ATOM     33  C11 MOL d          47.779  35.529  29.689  0.00  0.00    -0.034 C 
ATOM     34  H30 MOL d          48.557  35.009  27.744  0.00  0.00     0.075 H 
ATOM     35  H31 MOL d          49.677  35.975  28.764  0.00  0.00     0.075 H 
ATOM     36  H32 MOL d          48.178  35.977  30.611  0.00  0.00     0.036 H 
ATOM     37  H33 MOL d          47.140  36.261  29.173  0.00  0.00     0.036 H 
ATOM     38  H23 MOL d          46.570  33.836  29.119  0.00  0.00     0.050 H 
ENDBRANCH  17  22
ENDBRANCH   5  10
BRANCH   4  39
ATOM     39  C21 MOL d          39.899  32.934  30.686  0.00  0.00    -0.050 C 
ATOM     40  H16 MOL d          38.869  32.962  30.300  0.00  0.00     0.033 H 
ATOM     41  H17 MOL d          40.572  32.548  29.907  0.00  0.00     0.033 H 
ATOM     42  H18 MOL d          40.211  33.950  30.971  0.00  0.00     0.033 H 
ENDBRANCH   4  39
BRANCH   1  43
ATOM     43  C22 MOL d          40.165  29.484  35.357  0.00  0.00     0.256 C 
ATOM     44  O25 MOL d          41.000  29.800  36.200  0.00  0.00    -0.267 OA
ATOM     45  N24 MOL d          39.302  28.442  35.536  0.00  0.00    -0.323 N 
ATOM     46  H1  MOL d          38.631  28.273  34.814  0.00  0.00     0.169 HD
BRANCH  45  47
ATOM     47  C26 MOL d          39.278  27.591  36.647  0.00  0.00     0.037 A 
ATOM     48  C27 MOL d          39.545  27.996  37.989  0.00  0.00    -0.032 A 
ATOM     49  C29 MOL d          39.525  27.092  39.083  0.00  0.00     0.032 A 
ATOM     50  H2  MOL d          39.773  29.038  38.181  0.00  0.00     0.090 H 
ATOM     51  C32 MOL d          39.221  25.745  38.773  0.00  0.00    -0.057 A 
ATOM     52  C30 MOL d          38.948  25.335  37.462  0.00  0.00    -0.079 A 
ATOM     53  H3  MOL d          39.199  25.012  39.571  0.00  0.00     0.086 H 
ATOM     54  C28 MOL d          38.979  26.253  36.403  0.00  0.00    -0.057 A 
ATOM     55  H4  MOL d          38.710  24.296  37.264  0.00  0.00     0.083 H 
ATOM     56  H5  MOL d          38.770  25.921  35.393  0.00  0.00     0.086 H 
BRANCH  49  57
ATOM     57  N31 MOL d          39.853  27.495  40.396  0.00  0.00    -0.377 N 
ATOM     58  C33 MOL d          40.456  28.839  40.599  0.00  0.00     0.015 C 
ATOM     59  C35 MOL d          40.324  29.388  42.034  0.00  0.00     0.034 C 
ATOM     60  H6  MOL d          39.962  29.544  39.914  0.00  0.00     0.067 H 
ATOM     61  H7  MOL d          41.526  28.776  40.352  0.00  0.00     0.067 H 
ATOM     62  O37 MOL d          40.702  28.360  42.918  0.00  0.00    -0.388 OA
ATOM     63  H8  MOL d          39.283  29.686  42.228  0.00  0.00     0.076 H 
ATOM     64  H9  MOL d          40.984  30.258  42.165  0.00  0.00     0.076 H 
ATOM     65  C36 MOL d          39.769  27.296  42.939  0.00  0.00     0.034 C 
ATOM     66  C34 MOL d          39.728  26.575  41.572  0.00  0.00     0.015 C 
ATOM     67  H10 MOL d          38.770  27.697  43.165  0.00  0.00     0.076 H 
ATOM     68  H11 MOL d          40.060  26.576  43.718  0.00  0.00     0.076 H 
ATOM     69  H12 MOL d          40.557  25.853  41.536  0.00  0.00     0.067 H 
ATOM     70  H13 MOL d          38.771  26.039  41.492  0.00  0.00     0.067 H 
ENDBRANCH  49  57
ENDBRANCH  45  47
ENDBRANCH   1  43
TORSDOF 6
