MODEL 1
REMARK VINA RESULT:     -11.9      0.000      0.000
REMARK  6 active torsions:
REMARK  status: ('A' for Active; 'I' for Inactive)
REMARK       I    between atoms: C22_2  and  N24_3 
REMARK    1  A    between atoms: C22_2  and  C19_16 
REMARK    2  A    between atoms: N24_3  and  C26_4 
REMARK    3  A    between atoms: C29_6  and  N31_10 
REMARK    4  A    between atoms: C18_19  and  C21_20 
REMARK    5  A    between atoms: C15_21  and  C12_23 
REMARK    6  A    between atoms: C2_30  and  C5_32 
ROOT
ATOM      1  C19 MOL d          39.833  30.565  33.729  0.00  0.00     0.033 A 
ATOM      2  C23 MOL d          38.679  31.034  33.086  0.00  0.00    -0.067 A 
ATOM      3  C20 MOL d          38.794  31.771  31.905  0.00  0.00    -0.075 A 
ATOM      4  C18 MOL d          40.046  32.044  31.353  0.00  0.00    -0.051 A 
ATOM      5  C15 MOL d          41.188  31.576  32.007  0.00  0.00    -0.019 A 
ATOM      6  C17 MOL d          41.093  30.851  33.178  0.00  0.00    -0.057 A 
ATOM      7  H14 MOL d          37.700  30.827  33.505  0.00  0.00     0.085 H 
ATOM      8  H15 MOL d          37.899  32.134  31.411  0.00  0.00     0.084 H 
ATOM      9  H19 MOL d          41.992  30.503  33.673  0.00  0.00     0.086 H 
ENDROOT
BRANCH   5  10
ATOM     10  C12 MOL d          42.513  31.855  31.430  0.00  0.00    -0.023 A 
ATOM     11  C9  MOL d          43.056  33.131  31.572  0.00  0.00    -0.071 A 
ATOM     12  C4  MOL d          44.323  33.399  31.050  0.00  0.00    -0.067 A 
ATOM     13  H20 MOL d          42.499  33.907  32.083  0.00  0.00     0.084 H 
ATOM     14  C1  MOL d          45.019  32.359  30.389  0.00  0.00     0.027 A 
ATOM     15  H21 MOL d          44.765  34.384  31.150  0.00  0.00     0.085 H 
ATOM     16  C3  MOL d          44.457  31.119  30.268  0.00  0.00     0.114 A 
ATOM     17  C2  MOL d          46.275  32.340  29.777  0.00  0.00     0.079 A 
ATOM     18  O8  MOL d          45.343  30.329  29.594  0.00  0.00    -0.212 OA
ATOM     19  C7  MOL d          43.220  30.842  30.781  0.00  0.00    -0.037 A 
ATOM     20  N6  MOL d          46.414  31.058  29.311  0.00  0.00    -0.131 NA
ATOM     21  H22 MOL d          42.795  29.850  30.685  0.00  0.00     0.089 H 
BRANCH  17  22
ATOM     22  C5  MOL d          47.260  33.480  29.639  0.00  0.00    -0.006 C 
ATOM     23  C10 MOL d          47.750  33.991  31.016  0.00  0.00    -0.034 C 
ATOM     24  C13 MOL d          48.958  34.906  30.822  0.00  0.00     0.082 C 
ATOM     25  H24 MOL d          48.036  33.135  31.644  0.00  0.00     0.036 H 
ATOM     26  H25 MOL d          46.941  34.552  31.508  0.00  0.00     0.036 H 
ATOM     27  N16 MOL d          48.663  36.063  29.962  0.00  0.00    -0.075 N 
ATOM     28  H26 MOL d          49.770  34.325  30.361  0.00  0.00     0.075 H 
ATOM     29  H27 MOL d          49.282  35.274  31.806  0.00  0.00     0.075 H 
ATOM     30  C14 MOL d          47.811  35.812  28.776  0.00  0.00     0.082 C 
ATOM     31  H28 MOL d          49.541  36.432  29.634  0.00  0.00     0.277 HD
ATOM     32  H29 MOL d          48.199  36.755  30.529  0.00  0.00     0.277 HD
ATOM     33  C11 MOL d          46.711  34.722  28.913  0.00  0.00    -0.034 C 
ATOM     34  H30 MOL d          48.473  35.513  27.950  0.00  0.00     0.075 H 
ATOM     35  H31 MOL d          47.310  36.758  28.521  0.00  0.00     0.075 H 
ATOM     36  H32 MOL d          45.866  35.132  29.486  0.00  0.00     0.036 H 
ATOM     37  H33 MOL d          46.366  34.429  27.910  0.00  0.00     0.036 H 
ATOM     38  H23 MOL d          48.122  33.098  29.072  0.00  0.00     0.050 H 
ENDBRANCH  17  22
ENDBRANCH   5  10
BRANCH   4  39
ATOM     39  C21 MOL d          40.141  32.846  30.058  0.00  0.00    -0.050 C 
ATOM     40  H16 MOL d          40.956  33.580  30.140  0.00  0.00     0.033 H 
ATOM     41  H17 MOL d          39.191  33.371  29.882  0.00  0.00     0.033 H 
ATOM     42  H18 MOL d          40.345  32.164  29.219  0.00  0.00     0.033 H 
ENDBRANCH   4  39
BRANCH   1  43
ATOM     43  C22 MOL d          39.818  29.807  35.003  0.00  0.00     0.256 C 
ATOM     44  O25 MOL d          39.972  30.430  36.050  0.00  0.00    -0.267 OA
ATOM     45  N24 MOL d          39.550  28.469  34.980  0.00  0.00    -0.323 N 
ATOM     46  H1  MOL d          39.406  28.045  34.086  0.00  0.00     0.169 HD
BRANCH  45  47
ATOM     47  C26 MOL d          39.460  27.641  36.105  0.00  0.00     0.037 A 
ATOM     48  C27 MOL d          39.606  28.082  37.455  0.00  0.00    -0.032 A 
ATOM     49  C29 MOL d          39.522  27.201  38.564  0.00  0.00     0.032 A 
ATOM     50  H2  MOL d          39.788  29.134  37.640  0.00  0.00     0.090 H 
ATOM     51  C32 MOL d          39.282  25.839  38.262  0.00  0.00    -0.057 A 
ATOM     52  C30 MOL d          39.128  25.394  36.943  0.00  0.00    -0.079 A 
ATOM     53  H3  MOL d          39.216  25.123  39.073  0.00  0.00     0.086 H 
ATOM     54  C28 MOL d          39.219  26.290  35.869  0.00  0.00    -0.057 A 
ATOM     55  H4  MOL d          38.936  24.344  36.751  0.00  0.00     0.083 H 
ATOM     56  H5  MOL d          39.102  25.931  34.854  0.00  0.00     0.086 H 
BRANCH  49  57
ATOM     57  N31 MOL d          39.732  27.641  39.890  0.00  0.00    -0.377 N 
ATOM     58  C33 MOL d          39.686  29.100  40.171  0.00  0.00     0.015 C 
ATOM     59  C35 MOL d          39.429  29.458  41.649  0.00  0.00     0.034 C 
ATOM     60  H6  MOL d          38.882  29.542  39.565  0.00  0.00     0.067 H 
ATOM     61  H7  MOL d          40.652  29.537  39.875  0.00  0.00     0.067 H 
ATOM     62  O37 MOL d          40.288  28.665  42.433  0.00  0.00    -0.388 OA
ATOM     63  H8  MOL d          38.381  29.246  41.910  0.00  0.00     0.076 H 
ATOM     64  H9  MOL d          39.640  30.523  41.819  0.00  0.00     0.076 H 
ATOM     65  C36 MOL d          39.930  27.296  42.410  0.00  0.00     0.034 C 
ATOM     66  C34 MOL d          40.115  26.704  40.994  0.00  0.00     0.015 C 
ATOM     67  H10 MOL d          38.877  27.194  42.709  0.00  0.00     0.076 H 
ATOM     68  H11 MOL d          40.567  26.745  43.118  0.00  0.00     0.076 H 
ATOM     69  H12 MOL d          41.174  26.434  40.867  0.00  0.00     0.067 H 
ATOM     70  H13 MOL d          39.494  25.800  40.913  0.00  0.00     0.067 H 
ENDBRANCH  49  57
ENDBRANCH  45  47
ENDBRANCH   1  43
TORSDOF 6
ENDMDL
MODEL 2
REMARK VINA RESULT:     -10.4      2.153      3.310
REMARK  6 active torsions:
REMARK  status: ('A' for Active; 'I' for Inactive)
REMARK       I    between atoms: C22_2  and  N24_3 
REMARK    1  A    between atoms: C22_2  and  C19_16 
REMARK    2  A    between atoms: N24_3  and  C26_4 
REMARK    3  A    between atoms: C29_6  and  N31_10 
REMARK    4  A    between atoms: C18_19  and  C21_20 
REMARK    5  A    between atoms: C15_21  and  C12_23 
REMARK    6  A    between atoms: C2_30  and  C5_32 
ROOT
ATOM      1  C19 MOL d          39.962  30.525  33.546  0.00  0.00     0.033 A 
ATOM      2  C23 MOL d          39.046  31.353  32.884  0.00  0.00    -0.067 A 
ATOM      3  C20 MOL d          39.401  31.951  31.672  0.00  0.00    -0.075 A 
ATOM      4  C18 MOL d          40.658  31.732  31.109  0.00  0.00    -0.051 A 
ATOM      5  C15 MOL d          41.565  30.910  31.783  0.00  0.00    -0.019 A 
ATOM      6  C17 MOL d          41.233  30.315  32.984  0.00  0.00    -0.057 A 
ATOM      7  H14 MOL d          38.065  31.529  33.311  0.00  0.00     0.085 H 
ATOM      8  H15 MOL d          38.690  32.593  31.163  0.00  0.00     0.084 H 
ATOM      9  H19 MOL d          41.953  29.686  33.493  0.00  0.00     0.086 H 
ENDROOT
BRANCH   5  10
ATOM     10  C12 MOL d          42.893  30.668  31.194  0.00  0.00    -0.023 A 
ATOM     11  C9  MOL d          43.385  29.365  31.154  0.00  0.00    -0.071 A 
ATOM     12  C4  MOL d          44.632  29.120  30.576  0.00  0.00    -0.067 A 
ATOM     13  H20 MOL d          42.804  28.548  31.568  0.00  0.00     0.084 H 
ATOM     14  C1  MOL d          45.361  30.212  30.048  0.00  0.00     0.027 A 
ATOM     15  H21 MOL d          45.034  28.114  30.534  0.00  0.00     0.085 H 
ATOM     16  C3  MOL d          44.848  31.478  30.103  0.00  0.00     0.114 A 
ATOM     17  C2  MOL d          46.611  30.266  29.426  0.00  0.00     0.079 A 
ATOM     18  O8  MOL d          45.756  32.317  29.525  0.00  0.00    -0.212 OA
ATOM     19  C7  MOL d          43.625  31.728  30.660  0.00  0.00    -0.037 A 
ATOM     20  N6  MOL d          46.793  31.591  29.126  0.00  0.00    -0.131 NA
ATOM     21  H22 MOL d          43.229  32.737  30.685  0.00  0.00     0.089 H 
BRANCH  17  22
ATOM     22  C5  MOL d          47.566  29.123  29.157  0.00  0.00    -0.006 C 
ATOM     23  C10 MOL d          46.988  28.114  28.136  0.00  0.00    -0.034 C 
ATOM     24  C13 MOL d          48.094  27.171  27.666  0.00  0.00     0.082 C 
ATOM     25  H24 MOL d          46.580  28.659  27.273  0.00  0.00     0.036 H 
ATOM     26  H25 MOL d          46.187  27.529  28.612  0.00  0.00     0.036 H 
ATOM     27  N16 MOL d          48.716  26.426  28.772  0.00  0.00    -0.075 N 
ATOM     28  H26 MOL d          48.871  27.764  27.162  0.00  0.00     0.075 H 
ATOM     29  H27 MOL d          47.664  26.450  26.955  0.00  0.00     0.075 H 
ATOM     30  C14 MOL d          48.958  27.176  30.027  0.00  0.00     0.082 C 
ATOM     31  H28 MOL d          49.604  26.081  28.447  0.00  0.00     0.277 HD
ATOM     32  H29 MOL d          48.114  25.648  28.993  0.00  0.00     0.277 HD
ATOM     33  C11 MOL d          47.936  28.287  30.396  0.00  0.00    -0.034 C 
ATOM     34  H30 MOL d          49.948  27.650  29.943  0.00  0.00     0.075 H 
ATOM     35  H31 MOL d          48.969  26.448  30.851  0.00  0.00     0.075 H 
ATOM     36  H32 MOL d          47.026  27.820  30.801  0.00  0.00     0.036 H 
ATOM     37  H33 MOL d          48.378  28.946  31.158  0.00  0.00     0.036 H 
ATOM     38  H23 MOL d          48.489  29.560  28.745  0.00  0.00     0.050 H 
ENDBRANCH  17  22
ENDBRANCH   5  10
BRANCH   4  39
ATOM     39  C21 MOL d          41.017  32.394  29.782  0.00  0.00    -0.050 C 
ATOM     40  H16 MOL d          40.756  33.462  29.822  0.00  0.00     0.033 H 
ATOM     41  H17 MOL d          40.457  31.910  28.968  0.00  0.00     0.033 H 
ATOM     42  H18 MOL d          42.096  32.287  29.599  0.00  0.00     0.033 H 
ENDBRANCH   4  39
BRANCH   1  43
ATOM     43  C22 MOL d          39.695  29.874  34.851  0.00  0.00     0.256 C 
ATOM     44  O25 MOL d          39.290  30.574  35.775  0.00  0.00    -0.267 OA
ATOM     45  N24 MOL d          39.822  28.520  34.960  0.00  0.00    -0.323 N 
ATOM     46  H1  MOL d          40.128  28.021  34.148  0.00  0.00     0.169 HD
BRANCH  45  47
ATOM     47  C26 MOL d          39.559  27.771  36.112  0.00  0.00     0.037 A 
ATOM     48  C27 MOL d          39.711  28.251  37.448  0.00  0.00    -0.032 A 
ATOM     49  C29 MOL d          39.448  27.448  38.588  0.00  0.00     0.032 A 
ATOM     50  H2  MOL d          40.042  29.272  37.597  0.00  0.00     0.090 H 
ATOM     51  C32 MOL d          39.019  26.124  38.332  0.00  0.00    -0.057 A 
ATOM     52  C30 MOL d          38.857  25.642  37.027  0.00  0.00    -0.079 A 
ATOM     53  H3  MOL d          38.810  25.466  39.167  0.00  0.00     0.086 H 
ATOM     54  C28 MOL d          39.128  26.461  35.922  0.00  0.00    -0.057 A 
ATOM     55  H4  MOL d          38.517  24.624  36.870  0.00  0.00     0.083 H 
ATOM     56  H5  MOL d          39.003  26.073  34.918  0.00  0.00     0.086 H 
BRANCH  49  57
ATOM     57  N31 MOL d          39.663  27.917  39.902  0.00  0.00    -0.377 N 
ATOM     58  C33 MOL d          39.437  29.358  40.191  0.00  0.00     0.015 C 
ATOM     59  C35 MOL d          39.209  29.683  41.681  0.00  0.00     0.034 C 
ATOM     60  H6  MOL d          38.551  29.686  39.627  0.00  0.00     0.067 H 
ATOM     61  H7  MOL d          40.319  29.919  39.847  0.00  0.00     0.067 H 
ATOM     62  O37 MOL d          40.206  29.016  42.418  0.00  0.00    -0.388 OA
ATOM     63  H8  MOL d          38.214  29.334  41.994  0.00  0.00     0.076 H 
ATOM     64  H9  MOL d          39.285  30.768  41.844  0.00  0.00     0.076 H 
ATOM     65  C36 MOL d          40.034  27.611  42.409  0.00  0.00     0.034 C 
ATOM     66  C34 MOL d          40.225  27.044  40.983  0.00  0.00     0.015 C 
ATOM     67  H10 MOL d          39.020  27.369  42.760  0.00  0.00     0.076 H 
ATOM     68  H11 MOL d          40.774  27.152  43.081  0.00  0.00     0.076 H 
ATOM     69  H12 MOL d          41.302  26.918  40.801  0.00  0.00     0.067 H 
ATOM     70  H13 MOL d          39.727  26.065  40.931  0.00  0.00     0.067 H 
ENDBRANCH  49  57
ENDBRANCH  45  47
ENDBRANCH   1  43
TORSDOF 6
ENDMDL
MODEL 3
REMARK VINA RESULT:      -9.7      2.740     11.153
REMARK  6 active torsions:
REMARK  status: ('A' for Active; 'I' for Inactive)
REMARK       I    between atoms: C22_2  and  N24_3 
REMARK    1  A    between atoms: C22_2  and  C19_16 
REMARK    2  A    between atoms: N24_3  and  C26_4 
REMARK    3  A    between atoms: C29_6  and  N31_10 
REMARK    4  A    between atoms: C18_19  and  C21_20 
REMARK    5  A    between atoms: C15_21  and  C12_23 
REMARK    6  A    between atoms: C2_30  and  C5_32 
ROOT
ATOM      1  C19 MOL d          42.051  30.497  31.641  0.00  0.00     0.033 A 
ATOM      2  C23 MOL d          41.123  31.360  31.044  0.00  0.00    -0.067 A 
ATOM      3  C20 MOL d          39.904  31.615  31.677  0.00  0.00    -0.075 A 
ATOM      4  C18 MOL d          39.599  31.022  32.903  0.00  0.00    -0.051 A 
ATOM      5  C15 MOL d          40.530  30.158  33.484  0.00  0.00    -0.019 A 
ATOM      6  C17 MOL d          41.737  29.891  32.869  0.00  0.00    -0.057 A 
ATOM      7  H14 MOL d          41.349  31.828  30.092  0.00  0.00     0.085 H 
ATOM      8  H15 MOL d          39.187  32.282  31.211  0.00  0.00     0.084 H 
ATOM      9  H19 MOL d          42.443  29.212  33.334  0.00  0.00     0.086 H 
ENDROOT
BRANCH   5  10
ATOM     10  C12 MOL d          40.220  29.532  34.780  0.00  0.00    -0.023 A 
ATOM     11  C9  MOL d          40.556  30.206  35.952  0.00  0.00    -0.071 A 
ATOM     12  C4  MOL d          40.245  29.632  37.187  0.00  0.00    -0.067 A 
ATOM     13  H20 MOL d          41.055  31.167  35.906  0.00  0.00     0.084 H 
ATOM     14  C1  MOL d          39.594  28.376  37.207  0.00  0.00     0.027 A 
ATOM     15  H21 MOL d          40.497  30.140  38.111  0.00  0.00     0.085 H 
ATOM     16  C3  MOL d          39.277  27.743  36.037  0.00  0.00     0.114 A 
ATOM     17  C2  MOL d          39.172  27.578  38.273  0.00  0.00     0.079 A 
ATOM     18  O8  MOL d          38.664  26.567  36.358  0.00  0.00    -0.212 OA
ATOM     19  C7  MOL d          39.571  28.298  34.823  0.00  0.00    -0.037 A 
ATOM     20  N6  MOL d          38.605  26.479  37.680  0.00  0.00    -0.131 NA
ATOM     21  H22 MOL d          39.303  27.786  33.906  0.00  0.00     0.089 H 
BRANCH  17  22
ATOM     22  C5  MOL d          39.321  27.849  39.754  0.00  0.00    -0.006 C 
ATOM     23  C10 MOL d          40.267  29.043  40.031  0.00  0.00    -0.034 C 
ATOM     24  C13 MOL d          40.136  29.471  41.492  0.00  0.00     0.082 C 
ATOM     25  H24 MOL d          39.996  29.884  39.377  0.00  0.00     0.036 H 
ATOM     26  H25 MOL d          41.306  28.742  39.829  0.00  0.00     0.036 H 
ATOM     27  N16 MOL d          40.452  28.386  42.433  0.00  0.00    -0.075 N 
ATOM     28  H26 MOL d          39.103  29.802  41.670  0.00  0.00     0.075 H 
ATOM     29  H27 MOL d          40.826  30.308  41.676  0.00  0.00     0.075 H 
ATOM     30  C14 MOL d          39.958  27.034  42.081  0.00  0.00     0.082 C 
ATOM     31  H28 MOL d          40.056  28.632  43.327  0.00  0.00     0.277 HD
ATOM     32  H29 MOL d          41.455  28.333  42.514  0.00  0.00     0.277 HD
ATOM     33  C11 MOL d          39.893  26.675  40.570  0.00  0.00    -0.034 C 
ATOM     34  H30 MOL d          38.941  26.936  42.489  0.00  0.00     0.075 H 
ATOM     35  H31 MOL d          40.620  26.302  42.568  0.00  0.00     0.075 H 
ATOM     36  H32 MOL d          40.907  26.445  40.210  0.00  0.00     0.036 H 
ATOM     37  H33 MOL d          39.248  25.794  40.435  0.00  0.00     0.036 H 
ATOM     38  H23 MOL d          38.320  28.088  40.144  0.00  0.00     0.050 H 
ENDBRANCH  17  22
ENDBRANCH   5  10
BRANCH   4  39
ATOM     39  C21 MOL d          38.263  31.324  33.575  0.00  0.00    -0.050 C 
ATOM     40  H16 MOL d          37.775  30.380  33.861  0.00  0.00     0.033 H 
ATOM     41  H17 MOL d          37.617  31.874  32.876  0.00  0.00     0.033 H 
ATOM     42  H18 MOL d          38.435  31.934  34.475  0.00  0.00     0.033 H 
ENDBRANCH   4  39
BRANCH   1  43
ATOM     43  C22 MOL d          43.353  30.135  31.032  0.00  0.00     0.256 C 
ATOM     44  O25 MOL d          43.625  28.944  30.911  0.00  0.00    -0.267 OA
ATOM     45  N24 MOL d          44.163  31.123  30.552  0.00  0.00    -0.323 N 
ATOM     46  H1  MOL d          43.850  32.067  30.664  0.00  0.00     0.169 HD
BRANCH  45  47
ATOM     47  C26 MOL d          45.393  30.925  29.915  0.00  0.00     0.037 A 
ATOM     48  C27 MOL d          45.947  29.650  29.592  0.00  0.00    -0.032 A 
ATOM     49  C29 MOL d          47.209  29.499  28.959  0.00  0.00     0.032 A 
ATOM     50  H2  MOL d          45.381  28.760  29.841  0.00  0.00     0.090 H 
ATOM     51  C32 MOL d          47.902  30.695  28.657  0.00  0.00    -0.057 A 
ATOM     52  C30 MOL d          47.366  31.953  28.960  0.00  0.00    -0.079 A 
ATOM     53  H3  MOL d          48.873  30.635  28.179  0.00  0.00     0.086 H 
ATOM     54  C28 MOL d          46.119  32.068  29.588  0.00  0.00    -0.057 A 
ATOM     55  H4  MOL d          47.923  32.848  28.705  0.00  0.00     0.083 H 
ATOM     56  H5  MOL d          45.718  33.048  29.820  0.00  0.00     0.086 H 
BRANCH  49  57
ATOM     57  N31 MOL d          47.772  28.230  28.703  0.00  0.00    -0.377 N 
ATOM     58  C33 MOL d          47.522  27.130  29.673  0.00  0.00     0.015 C 
ATOM     59  C35 MOL d          47.731  25.714  29.101  0.00  0.00     0.034 C 
ATOM     60  H6  MOL d          46.482  27.210  30.022  0.00  0.00     0.067 H 
ATOM     61  H7  MOL d          48.206  27.261  30.524  0.00  0.00     0.067 H 
ATOM     62  O37 MOL d          48.958  25.712  28.410  0.00  0.00    -0.388 OA
ATOM     63  H8  MOL d          46.912  25.463  28.411  0.00  0.00     0.076 H 
ATOM     64  H9  MOL d          47.759  24.979  29.918  0.00  0.00     0.076 H 
ATOM     65  C36 MOL d          48.913  26.488  27.227  0.00  0.00     0.034 C 
ATOM     66  C34 MOL d          48.708  27.984  27.559  0.00  0.00     0.015 C 
ATOM     67  H10 MOL d          48.078  26.140  26.600  0.00  0.00     0.076 H 
ATOM     68  H11 MOL d          49.859  26.366  26.679  0.00  0.00     0.076 H 
ATOM     69  H12 MOL d          49.686  28.419  27.813  0.00  0.00     0.067 H 
ATOM     70  H13 MOL d          48.304  28.484  26.667  0.00  0.00     0.067 H 
ENDBRANCH  49  57
ENDBRANCH  45  47
ENDBRANCH   1  43
TORSDOF 6
ENDMDL
