MODEL 1
REMARK VINA RESULT:      -6.6      0.000      0.000
REMARK  2 active torsions:
REMARK  status: ('A' for Active; 'I' for Inactive)
REMARK    1  A    between atoms: C0_1  and  C1_2 
REMARK    2  A    between atoms: C0_1  and  N1_3 
ROOT
ATOM      1  C1  ESI d           8.542   0.712  25.345  0.00  0.00     0.049 A 
ATOM      2  S2  ESI d           9.243   1.267  23.826  0.00  0.00    -0.086 SA
ATOM      3  C3  ESI d           9.086   2.947  24.203  0.00  0.00     0.017 A 
ATOM      4  C4  ESI d           8.510   3.042  25.462  0.00  0.00    -0.001 A 
ATOM      5  C5  ESI d           8.220   1.847  26.061  0.00  0.00    -0.050 A 
ATOM      6  C6  ESI d           9.426   4.059  23.469  0.00  0.00    -0.066 A 
ATOM      7  C7  ESI d           9.187   5.309  24.016  0.00  0.00    -0.080 A 
ATOM      8  C8  ESI d           8.620   5.421  25.273  0.00  0.00    -0.066 A 
ATOM      9  C9  ESI d           8.279   4.304  26.013  0.00  0.00     0.018 A 
ATOM     10  I9  ESI d           7.508   4.674  27.854  0.00  0.00    -0.044 I 
ATOM     11  H5  ESI d           7.761   1.794  27.047  0.00  0.00     0.087 H 
ATOM     12  H6  ESI d           9.871   3.960  22.485  0.00  0.00     0.085 H 
ATOM     13  H7  ESI d           9.444   6.202  23.457  0.00  0.00     0.083 H 
ATOM     14  H8  ESI d           8.439   6.407  25.688  0.00  0.00     0.085 H 
ENDROOT
BRANCH   1  15
ATOM     15  C0  ESI d           8.409  -0.622  25.668  0.00  0.00     0.109 C 
ATOM     16  N2  ESI d           8.066  -0.873  26.899  0.00  0.00    -0.385 N 
ATOM     17  H3  ESI d           7.910  -0.097  27.558  0.00  0.00     0.157 HD
ATOM     18  H4  ESI d           7.949  -1.847  27.212  0.00  0.00     0.157 HD
BRANCH  15  19
ATOM     19  N1  ESI d           8.630  -1.521  24.754  0.00  0.00    -0.385 N 
ATOM     20  H1  ESI d           8.924  -2.470  25.025  0.00  0.00     0.157 HD
ATOM     21  H2  ESI d           8.511  -1.283  23.760  0.00  0.00     0.157 HD
ENDBRANCH  15  19
ENDBRANCH   1  15
TORSDOF 2
ENDMDL
MODEL 2
REMARK VINA RESULT:      -4.8      2.119      2.906
REMARK  2 active torsions:
REMARK  status: ('A' for Active; 'I' for Inactive)
REMARK    1  A    between atoms: C0_1  and  C1_2 
REMARK    2  A    between atoms: C0_1  and  N1_3 
ROOT
ATOM      1  C1  ESI d           8.775   1.805  24.862  0.00  0.00     0.049 A 
ATOM      2  S2  ESI d           8.338   1.903  26.567  0.00  0.00    -0.086 SA
ATOM      3  C3  ESI d           8.070   3.611  26.545  0.00  0.00     0.017 A 
ATOM      4  C4  ESI d           8.319   4.059  25.256  0.00  0.00    -0.001 A 
ATOM      5  C5  ESI d           8.697   3.091  24.367  0.00  0.00    -0.050 A 
ATOM      6  C6  ESI d           7.691   4.465  27.555  0.00  0.00    -0.066 A 
ATOM      7  C7  ESI d           7.549   5.812  27.261  0.00  0.00    -0.080 A 
ATOM      8  C8  ESI d           7.786   6.273  25.978  0.00  0.00    -0.066 A 
ATOM      9  C9  ESI d           8.166   5.415  24.963  0.00  0.00     0.018 A 
ATOM     10  I9  ESI d           8.415   6.273  23.139  0.00  0.00    -0.044 I 
ATOM     11  H5  ESI d           8.925   3.321  23.327  0.00  0.00     0.087 H 
ATOM     12  H6  ESI d           7.507   4.093  28.557  0.00  0.00     0.085 H 
ATOM     13  H7  ESI d           7.252   6.506  28.039  0.00  0.00     0.083 H 
ATOM     14  H8  ESI d           7.670   7.329  25.765  0.00  0.00     0.085 H 
ENDROOT
BRANCH   1  15
ATOM     15  C0  ESI d           9.094   0.618  24.235  0.00  0.00     0.109 C 
ATOM     16  N2  ESI d          10.188   0.628  23.531  0.00  0.00    -0.385 N 
ATOM     17  H3  ESI d          10.754   1.486  23.471  0.00  0.00     0.157 HD
ATOM     18  H4  ESI d          10.488  -0.222  23.033  0.00  0.00     0.157 HD
BRANCH  15  19
ATOM     19  N1  ESI d           8.305  -0.406  24.380  0.00  0.00    -0.385 N 
ATOM     20  H1  ESI d           7.924  -0.884  23.551  0.00  0.00     0.157 HD
ATOM     21  H2  ESI d           8.062  -0.739  25.324  0.00  0.00     0.157 HD
ENDBRANCH  15  19
ENDBRANCH   1  15
TORSDOF 2
ENDMDL
MODEL 3
REMARK VINA RESULT:      -3.8      3.735      5.286
REMARK  2 active torsions:
REMARK  status: ('A' for Active; 'I' for Inactive)
REMARK    1  A    between atoms: C0_1  and  C1_2 
REMARK    2  A    between atoms: C0_1  and  N1_3 
ROOT
ATOM      1  C1  ESI d           9.149   3.312  24.254  0.00  0.00     0.049 A 
ATOM      2  S2  ESI d           8.726   3.156  25.958  0.00  0.00    -0.086 SA
ATOM      3  C3  ESI d           8.495   1.444  25.890  0.00  0.00     0.017 A 
ATOM      4  C4  ESI d           8.741   1.038  24.587  0.00  0.00    -0.001 A 
ATOM      5  C5  ESI d           9.085   2.040  23.721  0.00  0.00    -0.050 A 
ATOM      6  C6  ESI d           8.128   0.556  26.875  0.00  0.00    -0.066 A 
ATOM      7  C7  ESI d           8.011  -0.785  26.544  0.00  0.00    -0.080 A 
ATOM      8  C8  ESI d           8.261  -1.206  25.251  0.00  0.00    -0.066 A 
ATOM      9  C9  ESI d           8.631  -0.315  24.260  0.00  0.00     0.018 A 
ATOM     10  I9  ESI d           9.005  -1.133  22.440  0.00  0.00    -0.044 I 
ATOM     11  H5  ESI d           9.297   1.845  22.671  0.00  0.00     0.087 H 
ATOM     12  H6  ESI d           7.936   0.897  27.887  0.00  0.00     0.085 H 
ATOM     13  H7  ESI d           7.723  -1.505  27.302  0.00  0.00     0.083 H 
ATOM     14  H8  ESI d           8.166  -2.258  25.008  0.00  0.00     0.085 H 
ENDROOT
BRANCH   1  15
ATOM     15  C0  ESI d           9.486   4.515  23.670  0.00  0.00     0.109 C 
ATOM     16  N2  ESI d          10.192   5.321  24.408  0.00  0.00    -0.385 N 
ATOM     17  H3  ESI d          10.464   5.042  25.362  0.00  0.00     0.157 HD
ATOM     18  H4  ESI d          10.480   6.239  24.039  0.00  0.00     0.157 HD
BRANCH  15  19
ATOM     19  N1  ESI d           9.090   4.763  22.457  0.00  0.00    -0.385 N 
ATOM     20  H1  ESI d           8.187   4.394  22.124  0.00  0.00     0.157 HD
ATOM     21  H2  ESI d           9.677   5.329  21.829  0.00  0.00     0.157 HD
ENDBRANCH  15  19
ENDBRANCH   1  15
TORSDOF 2
ENDMDL
MODEL 4
REMARK VINA RESULT:      -3.8      2.022      2.649
REMARK  2 active torsions:
REMARK  status: ('A' for Active; 'I' for Inactive)
REMARK    1  A    between atoms: C0_1  and  C1_2 
REMARK    2  A    between atoms: C0_1  and  N1_3 
ROOT
ATOM      1  C1  ESI d           8.686   1.404  25.256  0.00  0.00     0.049 A 
ATOM      2  S2  ESI d           7.894   1.709  26.801  0.00  0.00    -0.086 SA
ATOM      3  C3  ESI d           8.037   3.429  26.696  0.00  0.00     0.017 A 
ATOM      4  C4  ESI d           8.679   3.724  25.502  0.00  0.00    -0.001 A 
ATOM      5  C5  ESI d           9.024   2.640  24.743  0.00  0.00    -0.050 A 
ATOM      6  C6  ESI d           7.636   4.410  27.573  0.00  0.00    -0.066 A 
ATOM      7  C7  ESI d           7.880   5.732  27.239  0.00  0.00    -0.080 A 
ATOM      8  C8  ESI d           8.511   6.044  26.048  0.00  0.00    -0.066 A 
ATOM      9  C9  ESI d           8.914   5.058  25.165  0.00  0.00     0.018 A 
ATOM     10  I9  ESI d           9.775   5.718  23.449  0.00  0.00    -0.044 I 
ATOM     11  H5  ESI d           9.536   2.745  23.788  0.00  0.00     0.087 H 
ATOM     12  H6  ESI d           7.141   4.154  28.503  0.00  0.00     0.085 H 
ATOM     13  H7  ESI d           7.575   6.525  27.912  0.00  0.00     0.083 H 
ATOM     14  H8  ESI d           8.695   7.084  25.801  0.00  0.00     0.085 H 
ENDROOT
BRANCH   1  15
ATOM     15  C0  ESI d           8.863   0.137  24.739  0.00  0.00     0.109 C 
ATOM     16  N2  ESI d           8.529  -0.845  25.525  0.00  0.00    -0.385 N 
ATOM     17  H3  ESI d           8.158  -0.648  26.466  0.00  0.00     0.157 HD
ATOM     18  H4  ESI d           8.635  -1.818  25.207  0.00  0.00     0.157 HD
BRANCH  15  19
ATOM     19  N1  ESI d           9.339   0.005  23.536  0.00  0.00    -0.385 N 
ATOM     20  H1  ESI d          10.279   0.363  23.312  0.00  0.00     0.157 HD
ATOM     21  H2  ESI d           8.777  -0.457  22.808  0.00  0.00     0.157 HD
ENDBRANCH  15  19
ENDBRANCH   1  15
TORSDOF 2
ENDMDL
