MODEL 1
REMARK VINA RESULT:      -5.1      0.000      0.000
REMARK  11 active torsions:
REMARK  status: ('A' for Active; 'I' for Inactive)
REMARK    1  A    between atoms: N1_1  and  CA1_2 
REMARK    2  A    between atoms: CA1_2  and  C1_3 
REMARK    3  A    between atoms: CA1_2  and  CB1_6 
REMARK    4  A    between atoms: CB1_6  and  CG1_7 
REMARK    5  A    between atoms: CG1_7  and  CD1_8 
REMARK       I    between atoms: CD1_8  and  N2_10 
REMARK    6  A    between atoms: N2_10  and  CA2_11 
REMARK    7  A    between atoms: CA2_11  and  C2_12 
REMARK    8  A    between atoms: CA2_11  and  CB2_14 
REMARK       I    between atoms: C2_12  and  N3_16 
REMARK    9  A    between atoms: CB2_14  and  SG2_15 
REMARK   10  A    between atoms: N3_16  and  CA3_17 
REMARK   11  A    between atoms: CA3_17  and  C3_18 
ROOT
ATOM      1  CD1 GSH d           8.195  34.413  -6.390  0.00  0.00     0.218 C 
ATOM      2  OE1 GSH d           7.093  33.907  -6.666  0.00  0.00    -0.274 OA
ATOM      3  N2  GSH d           8.495  34.896  -5.181  0.00  0.00    -0.347 N 
ATOM      4  H9  GSH d           9.404  35.285  -5.032  0.00  0.00     0.163 HD
ENDROOT
BRANCH   3   5
ATOM      5  CA2 GSH d           7.546  34.882  -4.064  0.00  0.00     0.097 C 
ATOM      6  H10 GSH d           6.540  34.668  -4.455  0.00  0.00     0.088 H 
BRANCH   5   7
ATOM      7  C2  GSH d           7.542  36.248  -3.379  0.00  0.00     0.241 C 
ATOM      8  O2  GSH d           6.479  36.848  -3.174  0.00  0.00    -0.271 OA
ATOM      9  N3  GSH d           8.744  36.721  -3.034  0.00  0.00    -0.349 N 
ATOM     10  H14 GSH d           9.557  36.175  -3.234  0.00  0.00     0.163 HD
BRANCH   9  11
ATOM     11  CA3 GSH d           8.900  38.010  -2.374  0.00  0.00     0.075 C 
ATOM     12  H15 GSH d           9.732  37.926  -1.659  0.00  0.00     0.080 H 
ATOM     13  H16 GSH d           7.969  38.228  -1.831  0.00  0.00     0.080 H 
BRANCH  11  14
ATOM     14  C3  GSH d           9.188  39.174  -3.288  0.00  0.00     0.191 C 
ATOM     15  O31 GSH d          10.355  39.617  -3.322  0.00  0.00    -0.647 OA
ATOM     16  O32 GSH d           8.252  39.640  -3.971  0.00  0.00    -0.647 OA
ENDBRANCH  11  14
ENDBRANCH   9  11
ENDBRANCH   5   7
BRANCH   5  17
ATOM     17  CB2 GSH d           7.920  33.804  -3.030  0.00  0.00     0.001 C 
ATOM     18  H11 GSH d           8.917  34.032  -2.624  0.00  0.00     0.052 H 
ATOM     19  H12 GSH d           7.943  32.825  -3.531  0.00  0.00     0.052 H 
BRANCH  17  20
ATOM     20  SG2 GSH d           6.723  33.727  -1.642  0.00  0.00    -0.180 SA
ATOM     21  H13 GSH d           5.786  33.827  -2.001  0.00  0.00     0.101 HD
ENDBRANCH  17  20
ENDBRANCH   5  17
ENDBRANCH   3   5
BRANCH   1  22
ATOM     22  CG1 GSH d           9.303  34.539  -7.429  0.00  0.00     0.012 C 
ATOM     23  H7  GSH d           9.675  33.531  -7.662  0.00  0.00     0.047 H 
ATOM     24  H8  GSH d           8.877  34.992  -8.337  0.00  0.00     0.047 H 
BRANCH  22  25
ATOM     25  CB1 GSH d          10.492  35.399  -6.972  0.00  0.00    -0.021 C 
ATOM     26  H5  GSH d          10.699  36.145  -7.754  0.00  0.00     0.037 H 
ATOM     27  H6  GSH d          10.209  35.912  -6.042  0.00  0.00     0.037 H 
BRANCH  25  28
ATOM     28  CA1 GSH d          11.776  34.607  -6.713  0.00  0.00     0.183 C 
ATOM     29  H4  GSH d          12.613  35.107  -7.223  0.00  0.00     0.101 H 
BRANCH  28  30
ATOM     30  N1  GSH d          11.626  33.231  -7.250  0.00  0.00    -0.065 N 
ATOM     31  H1  GSH d          10.934  33.230  -7.983  0.00  0.00     0.275 HD
ATOM     32  H2  GSH d          11.334  32.613  -6.510  0.00  0.00     0.275 HD
ATOM     33  H3  GSH d          12.509  32.918  -7.622  0.00  0.00     0.275 HD
ENDBRANCH  28  30
BRANCH  28  34
ATOM     34  C1  GSH d          12.077  34.536  -5.213  0.00  0.00     0.204 C 
ATOM     35  O11 GSH d          13.201  34.123  -4.851  0.00  0.00    -0.646 OA
ATOM     36  O12 GSH d          11.190  34.892  -4.410  0.00  0.00    -0.646 OA
ENDBRANCH  28  34
ENDBRANCH  25  28
ENDBRANCH  22  25
ENDBRANCH   1  22
TORSDOF 11
ENDMDL
MODEL 2
REMARK VINA RESULT:      -4.8      2.817      3.694
REMARK  11 active torsions:
REMARK  status: ('A' for Active; 'I' for Inactive)
REMARK    1  A    between atoms: N1_1  and  CA1_2 
REMARK    2  A    between atoms: CA1_2  and  C1_3 
REMARK    3  A    between atoms: CA1_2  and  CB1_6 
REMARK    4  A    between atoms: CB1_6  and  CG1_7 
REMARK    5  A    between atoms: CG1_7  and  CD1_8 
REMARK       I    between atoms: CD1_8  and  N2_10 
REMARK    6  A    between atoms: N2_10  and  CA2_11 
REMARK    7  A    between atoms: CA2_11  and  C2_12 
REMARK    8  A    between atoms: CA2_11  and  CB2_14 
REMARK       I    between atoms: C2_12  and  N3_16 
REMARK    9  A    between atoms: CB2_14  and  SG2_15 
REMARK   10  A    between atoms: N3_16  and  CA3_17 
REMARK   11  A    between atoms: CA3_17  and  C3_18 
ROOT
ATOM      1  CD1 GSH d          12.043  34.523  -5.519  0.00  0.00     0.218 C 
ATOM      2  OE1 GSH d          12.114  34.775  -6.736  0.00  0.00    -0.274 OA
ATOM      3  N2  GSH d          10.976  34.823  -4.772  0.00  0.00    -0.347 N 
ATOM      4  H9  GSH d          10.989  34.585  -3.801  0.00  0.00     0.163 HD
ENDROOT
BRANCH   3   5
ATOM      5  CA2 GSH d           9.789  35.487  -5.316  0.00  0.00     0.097 C 
ATOM      6  H10 GSH d          10.096  36.136  -6.150  0.00  0.00     0.088 H 
BRANCH   5   7
ATOM      7  C2  GSH d           9.134  36.337  -4.228  0.00  0.00     0.241 C 
ATOM      8  O2  GSH d           7.922  36.241  -3.996  0.00  0.00    -0.271 OA
ATOM      9  N3  GSH d           9.955  37.164  -3.574  0.00  0.00    -0.349 N 
ATOM     10  H14 GSH d          10.925  37.183  -3.820  0.00  0.00     0.163 HD
BRANCH   9  11
ATOM     11  CA3 GSH d           9.477  38.038  -2.511  0.00  0.00     0.075 C 
ATOM     12  H15 GSH d           8.972  37.413  -1.760  0.00  0.00     0.080 H 
ATOM     13  H16 GSH d           8.755  38.741  -2.950  0.00  0.00     0.080 H 
BRANCH  11  14
ATOM     14  C3  GSH d          10.540  38.842  -1.808  0.00  0.00     0.191 C 
ATOM     15  O31 GSH d          11.441  39.357  -2.502  0.00  0.00    -0.647 OA
ATOM     16  O32 GSH d          10.471  38.962  -0.566  0.00  0.00    -0.647 OA
ENDBRANCH  11  14
ENDBRANCH   9  11
ENDBRANCH   5   7
BRANCH   5  17
ATOM     17  CB2 GSH d           8.764  34.460  -5.834  0.00  0.00     0.001 C 
ATOM     18  H11 GSH d           7.774  34.710  -5.426  0.00  0.00     0.052 H 
ATOM     19  H12 GSH d           9.061  33.458  -5.489  0.00  0.00     0.052 H 
BRANCH  17  20
ATOM     20  SG2 GSH d           8.659  34.444  -7.666  0.00  0.00    -0.180 SA
ATOM     21  H13 GSH d           9.130  35.255  -8.035  0.00  0.00     0.101 HD
ENDBRANCH  17  20
ENDBRANCH   5  17
ENDBRANCH   3   5
BRANCH   1  22
ATOM     22  CG1 GSH d          13.189  33.856  -4.769  0.00  0.00     0.012 C 
ATOM     23  H7  GSH d          14.024  34.570  -4.706  0.00  0.00     0.047 H 
ATOM     24  H8  GSH d          12.842  33.607  -3.755  0.00  0.00     0.047 H 
BRANCH  22  25
ATOM     25  CB1 GSH d          13.705  32.569  -5.432  0.00  0.00    -0.021 C 
ATOM     26  H5  GSH d          13.178  32.440  -6.390  0.00  0.00     0.037 H 
ATOM     27  H6  GSH d          14.782  32.685  -5.619  0.00  0.00     0.037 H 
BRANCH  25  28
ATOM     28  CA1 GSH d          13.495  31.305  -4.596  0.00  0.00     0.183 C 
ATOM     29  H4  GSH d          13.948  30.451  -5.120  0.00  0.00     0.101 H 
BRANCH  28  30
ATOM     30  N1  GSH d          12.041  31.061  -4.423  0.00  0.00    -0.065 N 
ATOM     31  H1  GSH d          11.735  30.372  -5.092  0.00  0.00     0.275 HD
ATOM     32  H2  GSH d          11.537  31.921  -4.570  0.00  0.00     0.275 HD
ATOM     33  H3  GSH d          11.866  30.724  -3.489  0.00  0.00     0.275 HD
ENDBRANCH  28  30
BRANCH  28  34
ATOM     34  C1  GSH d          14.152  31.450  -3.219  0.00  0.00     0.204 C 
ATOM     35  O11 GSH d          13.424  31.394  -2.204  0.00  0.00    -0.646 OA
ATOM     36  O12 GSH d          15.388  31.618  -3.164  0.00  0.00    -0.646 OA
ENDBRANCH  28  34
ENDBRANCH  25  28
ENDBRANCH  22  25
ENDBRANCH   1  22
TORSDOF 11
ENDMDL
MODEL 3
REMARK VINA RESULT:      -4.8      0.951      1.205
REMARK  11 active torsions:
REMARK  status: ('A' for Active; 'I' for Inactive)
REMARK    1  A    between atoms: N1_1  and  CA1_2 
REMARK    2  A    between atoms: CA1_2  and  C1_3 
REMARK    3  A    between atoms: CA1_2  and  CB1_6 
REMARK    4  A    between atoms: CB1_6  and  CG1_7 
REMARK    5  A    between atoms: CG1_7  and  CD1_8 
REMARK       I    between atoms: CD1_8  and  N2_10 
REMARK    6  A    between atoms: N2_10  and  CA2_11 
REMARK    7  A    between atoms: CA2_11  and  C2_12 
REMARK    8  A    between atoms: CA2_11  and  CB2_14 
REMARK       I    between atoms: C2_12  and  N3_16 
REMARK    9  A    between atoms: CB2_14  and  SG2_15 
REMARK   10  A    between atoms: N3_16  and  CA3_17 
REMARK   11  A    between atoms: CA3_17  and  C3_18 
ROOT
ATOM      1  CD1 GSH d           8.237  34.338  -6.219  0.00  0.00     0.218 C 
ATOM      2  OE1 GSH d           7.106  34.065  -6.661  0.00  0.00    -0.274 OA
ATOM      3  N2  GSH d           8.478  34.578  -4.927  0.00  0.00    -0.347 N 
ATOM      4  H9  GSH d           9.415  34.786  -4.645  0.00  0.00     0.163 HD
ENDROOT
BRANCH   3   5
ATOM      5  CA2 GSH d           7.428  34.549  -3.906  0.00  0.00     0.097 C 
ATOM      6  H10 GSH d           6.492  34.202  -4.368  0.00  0.00     0.088 H 
BRANCH   5   7
ATOM      7  C2  GSH d           7.222  35.955  -3.343  0.00  0.00     0.241 C 
ATOM      8  O2  GSH d           6.086  36.433  -3.237  0.00  0.00    -0.271 OA
ATOM      9  N3  GSH d           8.338  36.600  -2.989  0.00  0.00    -0.349 N 
ATOM     10  H14 GSH d           9.221  36.145  -3.105  0.00  0.00     0.163 HD
BRANCH   9  11
ATOM     11  CA3 GSH d           8.303  37.948  -2.438  0.00  0.00     0.075 C 
ATOM     12  H15 GSH d           9.087  38.021  -1.670  0.00  0.00     0.080 H 
ATOM     13  H16 GSH d           7.318  38.098  -1.972  0.00  0.00     0.080 H 
BRANCH  11  14
ATOM     14  C3  GSH d           8.521  39.060  -3.432  0.00  0.00     0.191 C 
ATOM     15  O31 GSH d           7.515  39.588  -3.950  0.00  0.00    -0.647 OA
ATOM     16  O32 GSH d           9.694  39.405  -3.692  0.00  0.00    -0.647 OA
ENDBRANCH  11  14
ENDBRANCH   9  11
ENDBRANCH   5   7
BRANCH   5  17
ATOM     17  CB2 GSH d           7.798  33.597  -2.752  0.00  0.00     0.001 C 
ATOM     18  H11 GSH d           7.071  33.729  -1.938  0.00  0.00     0.052 H 
ATOM     19  H12 GSH d           8.805  33.853  -2.391  0.00  0.00     0.052 H 
BRANCH  17  20
ATOM     20  SG2 GSH d           7.788  31.838  -3.272  0.00  0.00    -0.180 SA
ATOM     21  H13 GSH d           7.151  31.720  -4.044  0.00  0.00     0.101 HD
ENDBRANCH  17  20
ENDBRANCH   5  17
ENDBRANCH   3   5
BRANCH   1  22
ATOM     22  CG1 GSH d           9.453  34.438  -7.132  0.00  0.00     0.012 C 
ATOM     23  H7  GSH d           9.101  34.469  -8.174  0.00  0.00     0.047 H 
ATOM     24  H8  GSH d           9.987  35.370  -6.897  0.00  0.00     0.047 H 
BRANCH  22  25
ATOM     25  CB1 GSH d          10.438  33.267  -6.990  0.00  0.00    -0.021 C 
ATOM     26  H5  GSH d          10.150  32.679  -6.106  0.00  0.00     0.037 H 
ATOM     27  H6  GSH d          10.359  32.639  -7.890  0.00  0.00     0.037 H 
BRANCH  25  28
ATOM     28  CA1 GSH d          11.898  33.693  -6.828  0.00  0.00     0.183 C 
ATOM     29  H4  GSH d          12.110  34.518  -7.525  0.00  0.00     0.101 H 
BRANCH  28  30
ATOM     30  N1  GSH d          12.786  32.546  -7.143  0.00  0.00    -0.065 N 
ATOM     31  H1  GSH d          13.099  32.118  -6.286  0.00  0.00     0.275 HD
ATOM     32  H2  GSH d          13.583  32.872  -7.666  0.00  0.00     0.275 HD
ATOM     33  H3  GSH d          12.279  31.869  -7.691  0.00  0.00     0.275 HD
ENDBRANCH  28  30
BRANCH  28  34
ATOM     34  C1  GSH d          12.171  34.167  -5.397  0.00  0.00     0.204 C 
ATOM     35  O11 GSH d          13.250  34.753  -5.160  0.00  0.00    -0.646 OA
ATOM     36  O12 GSH d          11.306  33.949  -4.524  0.00  0.00    -0.646 OA
ENDBRANCH  28  34
ENDBRANCH  25  28
ENDBRANCH  22  25
ENDBRANCH   1  22
TORSDOF 11
ENDMDL
MODEL 4
REMARK VINA RESULT:      -4.7      2.465      6.401
REMARK  11 active torsions:
REMARK  status: ('A' for Active; 'I' for Inactive)
REMARK    1  A    between atoms: N1_1  and  CA1_2 
REMARK    2  A    between atoms: CA1_2  and  C1_3 
REMARK    3  A    between atoms: CA1_2  and  CB1_6 
REMARK    4  A    between atoms: CB1_6  and  CG1_7 
REMARK    5  A    between atoms: CG1_7  and  CD1_8 
REMARK       I    between atoms: CD1_8  and  N2_10 
REMARK    6  A    between atoms: N2_10  and  CA2_11 
REMARK    7  A    between atoms: CA2_11  and  C2_12 
REMARK    8  A    between atoms: CA2_11  and  CB2_14 
REMARK       I    between atoms: C2_12  and  N3_16 
REMARK    9  A    between atoms: CB2_14  and  SG2_15 
REMARK   10  A    between atoms: N3_16  and  CA3_17 
REMARK   11  A    between atoms: CA3_17  and  C3_18 
ROOT
ATOM      1  CD1 GSH d           9.317  34.772  -4.689  0.00  0.00     0.218 C 
ATOM      2  OE1 GSH d           8.984  33.929  -3.837  0.00  0.00    -0.274 OA
ATOM      3  N2  GSH d           9.777  34.444  -5.900  0.00  0.00    -0.347 N 
ATOM      4  H9  GSH d          10.021  35.178  -6.534  0.00  0.00     0.163 HD
ENDROOT
BRANCH   3   5
ATOM      5  CA2 GSH d           9.941  33.056  -6.337  0.00  0.00     0.097 C 
ATOM      6  H10 GSH d           9.479  32.392  -5.590  0.00  0.00     0.088 H 
BRANCH   5   7
ATOM      7  C2  GSH d          11.429  32.727  -6.453  0.00  0.00     0.241 C 
ATOM      8  O2  GSH d          12.157  33.365  -7.224  0.00  0.00    -0.271 OA
ATOM      9  N3  GSH d          11.858  31.726  -5.678  0.00  0.00    -0.349 N 
ATOM     10  H14 GSH d          11.205  31.260  -5.081  0.00  0.00     0.163 HD
BRANCH   9  11
ATOM     11  CA3 GSH d          13.249  31.298  -5.680  0.00  0.00     0.075 C 
ATOM     12  H15 GSH d          13.691  31.583  -6.647  0.00  0.00     0.080 H 
ATOM     13  H16 GSH d          13.267  30.203  -5.579  0.00  0.00     0.080 H 
BRANCH  11  14
ATOM     14  C3  GSH d          14.108  31.879  -4.586  0.00  0.00     0.191 C 
ATOM     15  O31 GSH d          15.335  31.653  -4.622  0.00  0.00    -0.647 OA
ATOM     16  O32 GSH d          13.557  32.563  -3.697  0.00  0.00    -0.647 OA
ENDBRANCH  11  14
ENDBRANCH   9  11
ENDBRANCH   5   7
BRANCH   5  17
ATOM     17  CB2 GSH d           9.267  32.818  -7.701  0.00  0.00     0.001 C 
ATOM     18  H11 GSH d           9.629  31.865  -8.114  0.00  0.00     0.052 H 
ATOM     19  H12 GSH d           9.541  33.639  -8.380  0.00  0.00     0.052 H 
BRANCH  17  20
ATOM     20  SG2 GSH d           7.438  32.747  -7.572  0.00  0.00    -0.180 SA
ATOM     21  H13 GSH d           7.181  32.269  -6.722  0.00  0.00     0.101 HD
ENDBRANCH  17  20
ENDBRANCH   5  17
ENDBRANCH   3   5
BRANCH   1  22
ATOM     22  CG1 GSH d           9.240  36.268  -4.410  0.00  0.00     0.012 C 
ATOM     23  H7  GSH d          10.165  36.572  -3.897  0.00  0.00     0.047 H 
ATOM     24  H8  GSH d           9.164  36.797  -5.373  0.00  0.00     0.047 H 
BRANCH  22  25
ATOM     25  CB1 GSH d           8.046  36.680  -3.537  0.00  0.00    -0.021 C 
ATOM     26  H5  GSH d           7.199  36.916  -4.199  0.00  0.00     0.037 H 
ATOM     27  H6  GSH d           7.781  35.830  -2.891  0.00  0.00     0.037 H 
BRANCH  25  28
ATOM     28  CA1 GSH d           8.309  37.896  -2.646  0.00  0.00     0.183 C 
ATOM     29  H4  GSH d           9.123  37.656  -1.946  0.00  0.00     0.101 H 
BRANCH  28  30
ATOM     30  N1  GSH d           7.082  38.222  -1.877  0.00  0.00    -0.065 N 
ATOM     31  H1  GSH d           6.319  38.384  -2.515  0.00  0.00     0.275 HD
ATOM     32  H2  GSH d           7.241  39.051  -1.326  0.00  0.00     0.275 HD
ATOM     33  H3  GSH d           6.853  37.453  -1.267  0.00  0.00     0.275 HD
ENDBRANCH  28  30
BRANCH  28  34
ATOM     34  C1  GSH d           8.717  39.109  -3.488  0.00  0.00     0.204 C 
ATOM     35  O11 GSH d           7.842  39.675  -4.179  0.00  0.00    -0.646 OA
ATOM     36  O12 GSH d           9.907  39.485  -3.453  0.00  0.00    -0.646 OA
ENDBRANCH  28  34
ENDBRANCH  25  28
ENDBRANCH  22  25
ENDBRANCH   1  22
TORSDOF 11
ENDMDL
MODEL 5
REMARK VINA RESULT:      -4.7      2.153      2.831
REMARK  11 active torsions:
REMARK  status: ('A' for Active; 'I' for Inactive)
REMARK    1  A    between atoms: N1_1  and  CA1_2 
REMARK    2  A    between atoms: CA1_2  and  C1_3 
REMARK    3  A    between atoms: CA1_2  and  CB1_6 
REMARK    4  A    between atoms: CB1_6  and  CG1_7 
REMARK    5  A    between atoms: CG1_7  and  CD1_8 
REMARK       I    between atoms: CD1_8  and  N2_10 
REMARK    6  A    between atoms: N2_10  and  CA2_11 
REMARK    7  A    between atoms: CA2_11  and  C2_12 
REMARK    8  A    between atoms: CA2_11  and  CB2_14 
REMARK       I    between atoms: C2_12  and  N3_16 
REMARK    9  A    between atoms: CB2_14  and  SG2_15 
REMARK   10  A    between atoms: N3_16  and  CA3_17 
REMARK   11  A    between atoms: CA3_17  and  C3_18 
ROOT
ATOM      1  CD1 GSH d          10.801  34.868  -5.401  0.00  0.00     0.218 C 
ATOM      2  OE1 GSH d          10.355  35.026  -6.552  0.00  0.00    -0.274 OA
ATOM      3  N2  GSH d          10.116  35.195  -4.301  0.00  0.00    -0.347 N 
ATOM      4  H9  GSH d          10.538  35.035  -3.408  0.00  0.00     0.163 HD
ENDROOT
BRANCH   3   5
ATOM      5  CA2 GSH d           8.773  35.780  -4.347  0.00  0.00     0.097 C 
ATOM      6  H10 GSH d           8.528  36.024  -5.392  0.00  0.00     0.088 H 
BRANCH   5   7
ATOM      7  C2  GSH d           8.742  37.057  -3.509  0.00  0.00     0.241 C 
ATOM      8  O2  GSH d           8.000  37.146  -2.522  0.00  0.00    -0.271 OA
ATOM      9  N3  GSH d           9.555  38.035  -3.921  0.00  0.00    -0.349 N 
ATOM     10  H14 GSH d          10.125  37.885  -4.730  0.00  0.00     0.163 HD
BRANCH   9  11
ATOM     11  CA3 GSH d           9.634  39.311  -3.225  0.00  0.00     0.075 C 
ATOM     12  H15 GSH d           8.651  39.513  -2.775  0.00  0.00     0.080 H 
ATOM     13  H16 GSH d           9.864  40.089  -3.968  0.00  0.00     0.080 H 
BRANCH  11  14
ATOM     14  C3  GSH d          10.671  39.390  -2.134  0.00  0.00     0.191 C 
ATOM     15  O31 GSH d          10.327  39.076  -0.976  0.00  0.00    -0.647 OA
ATOM     16  O32 GSH d          11.825  39.762  -2.436  0.00  0.00    -0.647 OA
ENDBRANCH  11  14
ENDBRANCH   9  11
ENDBRANCH   5   7
BRANCH   5  17
ATOM     17  CB2 GSH d           7.719  34.797  -3.803  0.00  0.00     0.001 C 
ATOM     18  H11 GSH d           6.859  35.372  -3.430  0.00  0.00     0.052 H 
ATOM     19  H12 GSH d           8.163  34.223  -2.977  0.00  0.00     0.052 H 
BRANCH  17  20
ATOM     20  SG2 GSH d           7.132  33.625  -5.087  0.00  0.00    -0.180 SA
ATOM     21  H13 GSH d           7.732  33.685  -5.895  0.00  0.00     0.101 HD
ENDBRANCH  17  20
ENDBRANCH   5  17
ENDBRANCH   3   5
BRANCH   1  22
ATOM     22  CG1 GSH d          12.191  34.296  -5.150  0.00  0.00     0.012 C 
ATOM     23  H7  GSH d          12.925  35.106  -5.271  0.00  0.00     0.047 H 
ATOM     24  H8  GSH d          12.228  33.918  -4.117  0.00  0.00     0.047 H 
BRANCH  22  25
ATOM     25  CB1 GSH d          12.575  33.150  -6.099  0.00  0.00    -0.021 C 
ATOM     26  H5  GSH d          11.748  32.999  -6.809  0.00  0.00     0.037 H 
ATOM     27  H6  GSH d          13.481  33.446  -6.647  0.00  0.00     0.037 H 
BRANCH  25  28
ATOM     28  CA1 GSH d          12.852  31.820  -5.396  0.00  0.00     0.183 C 
ATOM     29  H4  GSH d          13.208  31.091  -6.138  0.00  0.00     0.101 H 
BRANCH  28  30
ATOM     30  N1  GSH d          11.600  31.317  -4.776  0.00  0.00    -0.065 N 
ATOM     31  H1  GSH d          11.803  30.943  -3.863  0.00  0.00     0.275 HD
ATOM     32  H2  GSH d          11.206  30.593  -5.356  0.00  0.00     0.275 HD
ATOM     33  H3  GSH d          10.939  32.074  -4.690  0.00  0.00     0.275 HD
ENDBRANCH  28  30
BRANCH  28  34
ATOM     34  C1  GSH d          13.921  31.990  -4.311  0.00  0.00     0.204 C 
ATOM     35  O11 GSH d          13.586  31.831  -3.117  0.00  0.00    -0.646 OA
ATOM     36  O12 GSH d          15.082  32.282  -4.662  0.00  0.00    -0.646 OA
ENDBRANCH  28  34
ENDBRANCH  25  28
ENDBRANCH  22  25
ENDBRANCH   1  22
TORSDOF 11
ENDMDL
MODEL 6
REMARK VINA RESULT:      -4.4      1.963      5.057
REMARK  11 active torsions:
REMARK  status: ('A' for Active; 'I' for Inactive)
REMARK    1  A    between atoms: N1_1  and  CA1_2 
REMARK    2  A    between atoms: CA1_2  and  C1_3 
REMARK    3  A    between atoms: CA1_2  and  CB1_6 
REMARK    4  A    between atoms: CB1_6  and  CG1_7 
REMARK    5  A    between atoms: CG1_7  and  CD1_8 
REMARK       I    between atoms: CD1_8  and  N2_10 
REMARK    6  A    between atoms: N2_10  and  CA2_11 
REMARK    7  A    between atoms: CA2_11  and  C2_12 
REMARK    8  A    between atoms: CA2_11  and  CB2_14 
REMARK       I    between atoms: C2_12  and  N3_16 
REMARK    9  A    between atoms: CB2_14  and  SG2_15 
REMARK   10  A    between atoms: N3_16  and  CA3_17 
REMARK   11  A    between atoms: CA3_17  and  C3_18 
ROOT
ATOM      1  CD1 GSH d           7.969  35.975  -3.472  0.00  0.00     0.218 C 
ATOM      2  OE1 GSH d           9.152  35.724  -3.767  0.00  0.00    -0.274 OA
ATOM      3  N2  GSH d           6.969  35.110  -3.664  0.00  0.00    -0.347 N 
ATOM      4  H9  GSH d           6.044  35.380  -3.398  0.00  0.00     0.163 HD
ENDROOT
BRANCH   3   5
ATOM      5  CA2 GSH d           7.171  33.783  -4.251  0.00  0.00     0.097 C 
ATOM      6  H10 GSH d           7.846  33.206  -3.600  0.00  0.00     0.088 H 
BRANCH   5   7
ATOM      7  C2  GSH d           7.803  33.925  -5.635  0.00  0.00     0.241 C 
ATOM      8  O2  GSH d           7.113  34.235  -6.615  0.00  0.00    -0.271 OA
ATOM      9  N3  GSH d           9.118  33.692  -5.692  0.00  0.00    -0.349 N 
ATOM     10  H14 GSH d           9.605  33.447  -4.854  0.00  0.00     0.163 HD
BRANCH   9  11
ATOM     11  CA3 GSH d           9.860  33.788  -6.941  0.00  0.00     0.075 C 
ATOM     12  H15 GSH d           9.137  33.738  -7.770  0.00  0.00     0.080 H 
ATOM     13  H16 GSH d          10.542  32.927  -6.997  0.00  0.00     0.080 H 
BRANCH  11  14
ATOM     14  C3  GSH d          10.679  35.041  -7.114  0.00  0.00     0.191 C 
ATOM     15  O31 GSH d          10.089  36.082  -7.471  0.00  0.00    -0.647 OA
ATOM     16  O32 GSH d          11.907  34.985  -6.889  0.00  0.00    -0.647 OA
ENDBRANCH  11  14
ENDBRANCH   9  11
ENDBRANCH   5   7
BRANCH   5  17
ATOM     17  CB2 GSH d           5.837  33.024  -4.384  0.00  0.00     0.001 C 
ATOM     18  H11 GSH d           5.724  32.687  -5.425  0.00  0.00     0.052 H 
ATOM     19  H12 GSH d           5.013  33.707  -4.128  0.00  0.00     0.052 H 
BRANCH  17  20
ATOM     20  SG2 GSH d           5.754  31.562  -3.280  0.00  0.00    -0.180 SA
ATOM     21  H13 GSH d           6.086  30.749  -3.774  0.00  0.00     0.101 HD
ENDBRANCH  17  20
ENDBRANCH   5  17
ENDBRANCH   3   5
BRANCH   1  22
ATOM     22  CG1 GSH d           7.558  37.314  -2.873  0.00  0.00     0.012 C 
ATOM     23  H7  GSH d           7.356  38.014  -3.696  0.00  0.00     0.047 H 
ATOM     24  H8  GSH d           6.640  37.164  -2.285  0.00  0.00     0.047 H 
BRANCH  22  25
ATOM     25  CB1 GSH d           8.621  37.941  -1.957  0.00  0.00    -0.021 C 
ATOM     26  H5  GSH d           8.118  38.321  -1.055  0.00  0.00     0.037 H 
ATOM     27  H6  GSH d           9.338  37.157  -1.674  0.00  0.00     0.037 H 
BRANCH  25  28
ATOM     28  CA1 GSH d           9.397  39.095  -2.594  0.00  0.00     0.183 C 
ATOM     29  H4  GSH d           8.761  39.992  -2.603  0.00  0.00     0.101 H 
BRANCH  28  30
ATOM     30  N1  GSH d           9.760  38.737  -3.989  0.00  0.00    -0.065 N 
ATOM     31  H1  GSH d          10.736  38.492  -4.030  0.00  0.00     0.275 HD
ATOM     32  H2  GSH d           9.584  39.524  -4.593  0.00  0.00     0.275 HD
ATOM     33  H3  GSH d           9.203  37.952  -4.290  0.00  0.00     0.275 HD
ENDBRANCH  28  30
BRANCH  28  34
ATOM     34  C1  GSH d          10.672  39.396  -1.800  0.00  0.00     0.204 C 
ATOM     35  O11 GSH d          10.631  39.310  -0.553  0.00  0.00    -0.646 OA
ATOM     36  O12 GSH d          11.702  39.718  -2.428  0.00  0.00    -0.646 OA
ENDBRANCH  28  34
ENDBRANCH  25  28
ENDBRANCH  22  25
ENDBRANCH   1  22
TORSDOF 11
ENDMDL
MODEL 7
REMARK VINA RESULT:      -4.4      2.724      5.531
REMARK  11 active torsions:
REMARK  status: ('A' for Active; 'I' for Inactive)
REMARK    1  A    between atoms: N1_1  and  CA1_2 
REMARK    2  A    between atoms: CA1_2  and  C1_3 
REMARK    3  A    between atoms: CA1_2  and  CB1_6 
REMARK    4  A    between atoms: CB1_6  and  CG1_7 
REMARK    5  A    between atoms: CG1_7  and  CD1_8 
REMARK       I    between atoms: CD1_8  and  N2_10 
REMARK    6  A    between atoms: N2_10  and  CA2_11 
REMARK    7  A    between atoms: CA2_11  and  C2_12 
REMARK    8  A    between atoms: CA2_11  and  CB2_14 
REMARK       I    between atoms: C2_12  and  N3_16 
REMARK    9  A    between atoms: CB2_14  and  SG2_15 
REMARK   10  A    between atoms: N3_16  and  CA3_17 
REMARK   11  A    between atoms: CA3_17  and  C3_18 
ROOT
ATOM      1  CD1 GSH d           6.736  35.595  -2.484  0.00  0.00     0.218 C 
ATOM      2  OE1 GSH d           5.871  36.186  -3.156  0.00  0.00    -0.274 OA
ATOM      3  N2  GSH d           8.039  35.631  -2.777  0.00  0.00    -0.347 N 
ATOM      4  H9  GSH d           8.677  35.135  -2.188  0.00  0.00     0.163 HD
ENDROOT
BRANCH   3   5
ATOM      5  CA2 GSH d           8.573  36.366  -3.927  0.00  0.00     0.097 C 
ATOM      6  H10 GSH d           7.737  36.828  -4.473  0.00  0.00     0.088 H 
BRANCH   5   7
ATOM      7  C2  GSH d           9.310  35.400  -4.855  0.00  0.00     0.241 C 
ATOM      8  O2  GSH d           8.684  34.682  -5.644  0.00  0.00    -0.271 OA
ATOM      9  N3  GSH d          10.642  35.400  -4.741  0.00  0.00    -0.349 N 
ATOM     10  H14 GSH d          11.074  36.012  -4.078  0.00  0.00     0.163 HD
BRANCH   9  11
ATOM     11  CA3 GSH d          11.480  34.534  -5.557  0.00  0.00     0.075 C 
ATOM     12  H15 GSH d          11.745  35.082  -6.474  0.00  0.00     0.080 H 
ATOM     13  H16 GSH d          10.892  33.642  -5.820  0.00  0.00     0.080 H 
BRANCH  11  14
ATOM     14  C3  GSH d          12.759  34.071  -4.907  0.00  0.00     0.191 C 
ATOM     15  O31 GSH d          13.747  34.833  -4.950  0.00  0.00    -0.647 OA
ATOM     16  O32 GSH d          12.774  32.951  -4.353  0.00  0.00    -0.647 OA
ENDBRANCH  11  14
ENDBRANCH   9  11
ENDBRANCH   5   7
BRANCH   5  17
ATOM     17  CB2 GSH d           9.548  37.471  -3.477  0.00  0.00     0.001 C 
ATOM     18  H11 GSH d          10.418  37.470  -4.149  0.00  0.00     0.052 H 
ATOM     19  H12 GSH d           9.877  37.257  -2.450  0.00  0.00     0.052 H 
BRANCH  17  20
ATOM     20  SG2 GSH d           8.777  39.136  -3.514  0.00  0.00    -0.180 SA
ATOM     21  H13 GSH d           9.466  39.829  -3.268  0.00  0.00     0.101 HD
ENDBRANCH  17  20
ENDBRANCH   5  17
ENDBRANCH   3   5
BRANCH   1  22
ATOM     22  CG1 GSH d           6.371  34.758  -1.264  0.00  0.00     0.012 C 
ATOM     23  H7  GSH d           7.271  34.642  -0.643  0.00  0.00     0.047 H 
ATOM     24  H8  GSH d           5.598  35.295  -0.694  0.00  0.00     0.047 H 
BRANCH  22  25
ATOM     25  CB1 GSH d           5.835  33.359  -1.605  0.00  0.00    -0.021 C 
ATOM     26  H5  GSH d           5.059  33.099  -0.870  0.00  0.00     0.037 H 
ATOM     27  H6  GSH d           5.391  33.395  -2.610  0.00  0.00     0.037 H 
BRANCH  25  28
ATOM     28  CA1 GSH d           6.899  32.259  -1.588  0.00  0.00     0.183 C 
ATOM     29  H4  GSH d           6.429  31.313  -1.280  0.00  0.00     0.101 H 
BRANCH  28  30
ATOM     30  N1  GSH d           7.965  32.615  -0.619  0.00  0.00    -0.065 N 
ATOM     31  H1  GSH d           8.132  33.609  -0.653  0.00  0.00     0.275 HD
ATOM     32  H2  GSH d           8.812  32.124  -0.856  0.00  0.00     0.275 HD
ATOM     33  H3  GSH d           7.675  32.355   0.311  0.00  0.00     0.275 HD
ENDBRANCH  28  30
BRANCH  28  34
ATOM     34  C1  GSH d           7.517  32.079  -2.978  0.00  0.00     0.204 C 
ATOM     35  O11 GSH d           6.826  31.541  -3.871  0.00  0.00    -0.646 OA
ATOM     36  O12 GSH d           8.686  32.475  -3.165  0.00  0.00    -0.646 OA
ENDBRANCH  28  34
ENDBRANCH  25  28
ENDBRANCH  22  25
ENDBRANCH   1  22
TORSDOF 11
ENDMDL
MODEL 8
REMARK VINA RESULT:      -4.4      2.534      6.097
REMARK  11 active torsions:
REMARK  status: ('A' for Active; 'I' for Inactive)
REMARK    1  A    between atoms: N1_1  and  CA1_2 
REMARK    2  A    between atoms: CA1_2  and  C1_3 
REMARK    3  A    between atoms: CA1_2  and  CB1_6 
REMARK    4  A    between atoms: CB1_6  and  CG1_7 
REMARK    5  A    between atoms: CG1_7  and  CD1_8 
REMARK       I    between atoms: CD1_8  and  N2_10 
REMARK    6  A    between atoms: N2_10  and  CA2_11 
REMARK    7  A    between atoms: CA2_11  and  C2_12 
REMARK    8  A    between atoms: CA2_11  and  CB2_14 
REMARK       I    between atoms: C2_12  and  N3_16 
REMARK    9  A    between atoms: CB2_14  and  SG2_15 
REMARK   10  A    between atoms: N3_16  and  CA3_17 
REMARK   11  A    between atoms: CA3_17  and  C3_18 
ROOT
ATOM      1  CD1 GSH d           9.247  36.583  -4.325  0.00  0.00     0.218 C 
ATOM      2  OE1 GSH d           8.771  35.891  -3.407  0.00  0.00    -0.274 OA
ATOM      3  N2  GSH d           9.761  36.060  -5.442  0.00  0.00    -0.347 N 
ATOM      4  H9  GSH d          10.122  36.680  -6.139  0.00  0.00     0.163 HD
ENDROOT
BRANCH   3   5
ATOM      5  CA2 GSH d           9.819  34.618  -5.688  0.00  0.00     0.097 C 
ATOM      6  H10 GSH d           9.572  34.088  -4.757  0.00  0.00     0.088 H 
BRANCH   5   7
ATOM      7  C2  GSH d          11.231  34.230  -6.130  0.00  0.00     0.241 C 
ATOM      8  O2  GSH d          11.863  34.943  -6.919  0.00  0.00    -0.271 OA
ATOM      9  N3  GSH d          11.703  33.094  -5.608  0.00  0.00    -0.349 N 
ATOM     10  H14 GSH d          11.129  32.573  -4.976  0.00  0.00     0.163 HD
BRANCH   9  11
ATOM     11  CA3 GSH d          13.031  32.594  -5.936  0.00  0.00     0.075 C 
ATOM     12  H15 GSH d          13.425  33.197  -6.768  0.00  0.00     0.080 H 
ATOM     13  H16 GSH d          12.929  31.547  -6.257  0.00  0.00     0.080 H 
BRANCH  11  14
ATOM     14  C3  GSH d          14.035  32.639  -4.812  0.00  0.00     0.191 C 
ATOM     15  O31 GSH d          15.082  31.969  -4.935  0.00  0.00    -0.647 OA
ATOM     16  O32 GSH d          13.779  33.346  -3.814  0.00  0.00    -0.647 OA
ENDBRANCH  11  14
ENDBRANCH   9  11
ENDBRANCH   5   7
BRANCH   5  17
ATOM     17  CB2 GSH d           8.819  34.198  -6.782  0.00  0.00     0.001 C 
ATOM     18  H11 GSH d           9.250  34.437  -7.766  0.00  0.00     0.052 H 
ATOM     19  H12 GSH d           7.885  34.763  -6.644  0.00  0.00     0.052 H 
BRANCH  17  20
ATOM     20  SG2 GSH d           8.437  32.405  -6.726  0.00  0.00    -0.180 SA
ATOM     21  H13 GSH d           7.490  32.274  -6.409  0.00  0.00     0.101 HD
ENDBRANCH  17  20
ENDBRANCH   5  17
ENDBRANCH   3   5
BRANCH   1  22
ATOM     22  CG1 GSH d           9.298  38.104  -4.240  0.00  0.00     0.012 C 
ATOM     23  H7  GSH d          10.307  38.433  -4.528  0.00  0.00     0.047 H 
ATOM     24  H8  GSH d           8.562  38.514  -4.948  0.00  0.00     0.047 H 
BRANCH  22  25
ATOM     25  CB1 GSH d           8.988  38.662  -2.843  0.00  0.00    -0.021 C 
ATOM     26  H5  GSH d           8.055  39.242  -2.902  0.00  0.00     0.037 H 
ATOM     27  H6  GSH d           8.849  37.814  -2.156  0.00  0.00     0.037 H 
BRANCH  25  28
ATOM     28  CA1 GSH d          10.080  39.569  -2.273  0.00  0.00     0.183 C 
ATOM     29  H4  GSH d           9.640  40.545  -2.021  0.00  0.00     0.101 H 
BRANCH  28  30
ATOM     30  N1  GSH d          11.146  39.759  -3.289  0.00  0.00    -0.065 N 
ATOM     31  H1  GSH d          11.594  38.876  -3.475  0.00  0.00     0.275 HD
ATOM     32  H2  GSH d          11.826  40.416  -2.942  0.00  0.00     0.275 HD
ATOM     33  H3  GSH d          10.739  40.115  -4.140  0.00  0.00     0.275 HD
ENDBRANCH  28  30
BRANCH  28  34
ATOM     34  C1  GSH d          10.690  38.956  -1.008  0.00  0.00     0.204 C 
ATOM     35  O11 GSH d          10.014  38.124  -0.365  0.00  0.00    -0.646 OA
ATOM     36  O12 GSH d          11.837  39.313  -0.668  0.00  0.00    -0.646 OA
ENDBRANCH  28  34
ENDBRANCH  25  28
ENDBRANCH  22  25
ENDBRANCH   1  22
TORSDOF 11
ENDMDL
MODEL 9
REMARK VINA RESULT:      -4.2      1.873      2.604
REMARK  11 active torsions:
REMARK  status: ('A' for Active; 'I' for Inactive)
REMARK    1  A    between atoms: N1_1  and  CA1_2 
REMARK    2  A    between atoms: CA1_2  and  C1_3 
REMARK    3  A    between atoms: CA1_2  and  CB1_6 
REMARK    4  A    between atoms: CB1_6  and  CG1_7 
REMARK    5  A    between atoms: CG1_7  and  CD1_8 
REMARK       I    between atoms: CD1_8  and  N2_10 
REMARK    6  A    between atoms: N2_10  and  CA2_11 
REMARK    7  A    between atoms: CA2_11  and  C2_12 
REMARK    8  A    between atoms: CA2_11  and  CB2_14 
REMARK       I    between atoms: C2_12  and  N3_16 
REMARK    9  A    between atoms: CB2_14  and  SG2_15 
REMARK   10  A    between atoms: N3_16  and  CA3_17 
REMARK   11  A    between atoms: CA3_17  and  C3_18 
ROOT
ATOM      1  CD1 GSH d           7.423  34.007  -4.104  0.00  0.00     0.218 C 
ATOM      2  OE1 GSH d           8.516  34.020  -3.509  0.00  0.00    -0.274 OA
ATOM      3  N2  GSH d           6.372  34.735  -3.716  0.00  0.00    -0.347 N 
ATOM      4  H9  GSH d           5.527  34.676  -4.247  0.00  0.00     0.163 HD
ENDROOT
BRANCH   3   5
ATOM      5  CA2 GSH d           6.405  35.613  -2.544  0.00  0.00     0.097 C 
ATOM      6  H10 GSH d           5.373  35.886  -2.276  0.00  0.00     0.088 H 
BRANCH   5   7
ATOM      7  C2  GSH d           7.192  36.881  -2.877  0.00  0.00     0.241 C 
ATOM      8  O2  GSH d           6.637  37.844  -3.420  0.00  0.00    -0.271 OA
ATOM      9  N3  GSH d           8.486  36.857  -2.541  0.00  0.00    -0.349 N 
ATOM     10  H14 GSH d           8.860  36.038  -2.104  0.00  0.00     0.163 HD
BRANCH   9  11
ATOM     11  CA3 GSH d           9.365  37.989  -2.796  0.00  0.00     0.075 C 
ATOM     12  H15 GSH d           8.789  38.749  -3.345  0.00  0.00     0.080 H 
ATOM     13  H16 GSH d          10.198  37.638  -3.421  0.00  0.00     0.080 H 
BRANCH  11  14
ATOM     14  C3  GSH d           9.949  38.644  -1.570  0.00  0.00     0.191 C 
ATOM     15  O31 GSH d          10.699  39.629  -1.733  0.00  0.00    -0.647 OA
ATOM     16  O32 GSH d           9.654  38.177  -0.449  0.00  0.00    -0.647 OA
ENDBRANCH  11  14
ENDBRANCH   9  11
ENDBRANCH   5   7
BRANCH   5  17
ATOM     17  CB2 GSH d           7.066  34.914  -1.341  0.00  0.00     0.001 C 
ATOM     18  H11 GSH d           7.509  35.679  -0.687  0.00  0.00     0.052 H 
ATOM     19  H12 GSH d           7.857  34.245  -1.712  0.00  0.00     0.052 H 
BRANCH  17  20
ATOM     20  SG2 GSH d           5.867  33.926  -0.365  0.00  0.00    -0.180 SA
ATOM     21  H13 GSH d           4.948  34.020  -0.769  0.00  0.00     0.101 HD
ENDBRANCH  17  20
ENDBRANCH   5  17
ENDBRANCH   3   5
BRANCH   1  22
ATOM     22  CG1 GSH d           7.188  33.135  -5.332  0.00  0.00     0.012 C 
ATOM     23  H7  GSH d           7.826  32.243  -5.250  0.00  0.00     0.047 H 
ATOM     24  H8  GSH d           6.131  32.831  -5.342  0.00  0.00     0.047 H 
BRANCH  22  25
ATOM     25  CB1 GSH d           7.503  33.834  -6.663  0.00  0.00    -0.021 C 
ATOM     26  H5  GSH d           6.866  33.392  -7.444  0.00  0.00     0.037 H 
ATOM     27  H6  GSH d           7.266  34.902  -6.556  0.00  0.00     0.037 H 
BRANCH  25  28
ATOM     28  CA1 GSH d           8.962  33.708  -7.108  0.00  0.00     0.183 C 
ATOM     29  H4  GSH d           8.989  33.402  -8.164  0.00  0.00     0.101 H 
BRANCH  28  30
ATOM     30  N1  GSH d           9.645  32.681  -6.281  0.00  0.00    -0.065 N 
ATOM     31  H1  GSH d           9.958  31.928  -6.873  0.00  0.00     0.275 HD
ATOM     32  H2  GSH d           9.002  32.323  -5.592  0.00  0.00     0.275 HD
ATOM     33  H3  GSH d          10.438  33.096  -5.817  0.00  0.00     0.275 HD
ENDBRANCH  28  30
BRANCH  28  34
ATOM     34  C1  GSH d           9.693  35.047  -6.959  0.00  0.00     0.204 C 
ATOM     35  O11 GSH d           9.550  35.905  -7.857  0.00  0.00    -0.646 OA
ATOM     36  O12 GSH d          10.403  35.227  -5.948  0.00  0.00    -0.646 OA
ENDBRANCH  28  34
ENDBRANCH  25  28
ENDBRANCH  22  25
ENDBRANCH   1  22
TORSDOF 11
ENDMDL
MODEL 10
REMARK VINA RESULT:      -4.1      2.792      5.980
REMARK  11 active torsions:
REMARK  status: ('A' for Active; 'I' for Inactive)
REMARK    1  A    between atoms: N1_1  and  CA1_2 
REMARK    2  A    between atoms: CA1_2  and  C1_3 
REMARK    3  A    between atoms: CA1_2  and  CB1_6 
REMARK    4  A    between atoms: CB1_6  and  CG1_7 
REMARK    5  A    between atoms: CG1_7  and  CD1_8 
REMARK       I    between atoms: CD1_8  and  N2_10 
REMARK    6  A    between atoms: N2_10  and  CA2_11 
REMARK    7  A    between atoms: CA2_11  and  C2_12 
REMARK    8  A    between atoms: CA2_11  and  CB2_14 
REMARK       I    between atoms: C2_12  and  N3_16 
REMARK    9  A    between atoms: CB2_14  and  SG2_15 
REMARK   10  A    between atoms: N3_16  and  CA3_17 
REMARK   11  A    between atoms: CA3_17  and  C3_18 
ROOT
ATOM      1  CD1 GSH d           9.790  35.698  -4.496  0.00  0.00     0.218 C 
ATOM      2  OE1 GSH d           9.158  34.746  -4.004  0.00  0.00    -0.274 OA
ATOM      3  N2  GSH d          10.386  35.639  -5.690  0.00  0.00    -0.347 N 
ATOM      4  H9  GSH d          10.873  36.447  -6.023  0.00  0.00     0.163 HD
ENDROOT
BRANCH   3   5
ATOM      5  CA2 GSH d          10.357  34.441  -6.532  0.00  0.00     0.097 C 
ATOM      6  H10 GSH d          10.773  34.690  -7.520  0.00  0.00     0.088 H 
BRANCH   5   7
ATOM      7  C2  GSH d           8.914  33.966  -6.698  0.00  0.00     0.241 C 
ATOM      8  O2  GSH d           8.132  34.570  -7.442  0.00  0.00    -0.271 OA
ATOM      9  N3  GSH d           8.583  32.880  -5.992  0.00  0.00    -0.349 N 
ATOM     10  H14 GSH d           9.274  32.448  -5.411  0.00  0.00     0.163 HD
BRANCH   9  11
ATOM     11  CA3 GSH d           7.244  32.310  -6.044  0.00  0.00     0.075 C 
ATOM     12  H15 GSH d           7.340  31.215  -5.998  0.00  0.00     0.080 H 
ATOM     13  H16 GSH d           6.791  32.598  -7.004  0.00  0.00     0.080 H 
BRANCH  11  14
ATOM     14  C3  GSH d           6.312  32.742  -4.942  0.00  0.00     0.191 C 
ATOM     15  O31 GSH d           5.944  31.882  -4.115  0.00  0.00    -0.647 OA
ATOM     16  O32 GSH d           5.953  33.939  -4.900  0.00  0.00    -0.647 OA
ENDBRANCH  11  14
ENDBRANCH   9  11
ENDBRANCH   5   7
BRANCH   5  17
ATOM     17  CB2 GSH d          11.191  33.303  -5.912  0.00  0.00     0.001 C 
ATOM     18  H11 GSH d          10.511  32.596  -5.416  0.00  0.00     0.052 H 
ATOM     19  H12 GSH d          11.879  33.734  -5.169  0.00  0.00     0.052 H 
BRANCH  17  20
ATOM     20  SG2 GSH d          12.173  32.396  -7.168  0.00  0.00    -0.180 SA
ATOM     21  H13 GSH d          11.723  31.518  -7.375  0.00  0.00     0.101 HD
ENDBRANCH  17  20
ENDBRANCH   5  17
ENDBRANCH   3   5
BRANCH   1  22
ATOM     22  CG1 GSH d           9.952  37.022  -3.758  0.00  0.00     0.012 C 
ATOM     23  H7  GSH d          10.082  36.807  -2.687  0.00  0.00     0.047 H 
ATOM     24  H8  GSH d          10.851  37.525  -4.144  0.00  0.00     0.047 H 
BRANCH  22  25
ATOM     25  CB1 GSH d           8.758  37.976  -3.918  0.00  0.00    -0.021 C 
ATOM     26  H5  GSH d           9.144  38.967  -4.201  0.00  0.00     0.037 H 
ATOM     27  H6  GSH d           8.114  37.590  -4.722  0.00  0.00     0.037 H 
BRANCH  25  28
ATOM     28  CA1 GSH d           7.909  38.134  -2.656  0.00  0.00     0.183 C 
ATOM     29  H4  GSH d           8.216  39.050  -2.130  0.00  0.00     0.101 H 
BRANCH  28  30
ATOM     30  N1  GSH d           8.120  36.965  -1.766  0.00  0.00    -0.065 N 
ATOM     31  H1  GSH d           8.207  36.130  -2.324  0.00  0.00     0.275 HD
ATOM     32  H2  GSH d           7.335  36.872  -1.141  0.00  0.00     0.275 HD
ATOM     33  H3  GSH d           8.962  37.099  -1.229  0.00  0.00     0.275 HD
ENDBRANCH  28  30
BRANCH  28  34
ATOM     34  C1  GSH d           6.422  38.239  -3.010  0.00  0.00     0.204 C 
ATOM     35  O11 GSH d           5.640  37.375  -2.557  0.00  0.00    -0.646 OA
ATOM     36  O12 GSH d           6.049  39.182  -3.739  0.00  0.00    -0.646 OA
ENDBRANCH  28  34
ENDBRANCH  25  28
ENDBRANCH  22  25
ENDBRANCH   1  22
TORSDOF 11
ENDMDL
