MODEL 1
REMARK VINA RESULT:     -12.0      0.000      0.000
REMARK  6 active torsions:
REMARK  status: ('A' for Active; 'I' for Inactive)
REMARK       I    between atoms: C22_2  and  N24_3 
REMARK    1  A    between atoms: C22_2  and  C19_16 
REMARK    2  A    between atoms: N24_3  and  C26_4 
REMARK    3  A    between atoms: C29_6  and  N31_10 
REMARK    4  A    between atoms: C18_19  and  C21_20 
REMARK    5  A    between atoms: C15_21  and  C12_23 
REMARK    6  A    between atoms: C2_30  and  C5_32 
ROOT
ATOM      1  C19 MOL d          39.887  30.592  33.725  0.00  0.00     0.033 A 
ATOM      2  C23 MOL d          38.728  31.059  33.090  0.00  0.00    -0.067 A 
ATOM      3  C20 MOL d          38.833  31.801  31.911  0.00  0.00    -0.075 A 
ATOM      4  C18 MOL d          40.081  32.081  31.353  0.00  0.00    -0.051 A 
ATOM      5  C15 MOL d          41.228  31.616  31.999  0.00  0.00    -0.019 A 
ATOM      6  C17 MOL d          41.143  30.886  33.168  0.00  0.00    -0.057 A 
ATOM      7  H14 MOL d          37.752  30.846  33.513  0.00  0.00     0.085 H 
ATOM      8  H15 MOL d          37.934  32.162  31.423  0.00  0.00     0.084 H 
ATOM      9  H19 MOL d          42.046  30.541  33.657  0.00  0.00     0.086 H 
ENDROOT
BRANCH   5  10
ATOM     10  C12 MOL d          42.550  31.902  31.416  0.00  0.00    -0.023 A 
ATOM     11  C9  MOL d          43.093  33.176  31.571  0.00  0.00    -0.071 A 
ATOM     12  C4  MOL d          44.356  33.452  31.043  0.00  0.00    -0.067 A 
ATOM     13  H20 MOL d          42.540  33.946  32.097  0.00  0.00     0.084 H 
ATOM     14  C1  MOL d          45.047  32.421  30.363  0.00  0.00     0.027 A 
ATOM     15  H21 MOL d          44.799  34.436  31.153  0.00  0.00     0.085 H 
ATOM     16  C3  MOL d          44.485  31.182  30.230  0.00  0.00     0.114 A 
ATOM     17  C2  MOL d          46.299  32.410  29.742  0.00  0.00     0.079 A 
ATOM     18  O8  MOL d          45.365  30.401  29.540  0.00  0.00    -0.212 OA
ATOM     19  C7  MOL d          43.252  30.899  30.748  0.00  0.00    -0.037 A 
ATOM     20  N6  MOL d          46.434  31.134  29.258  0.00  0.00    -0.131 NA
ATOM     21  H22 MOL d          42.826  29.908  30.642  0.00  0.00     0.089 H 
BRANCH  17  22
ATOM     22  C5  MOL d          47.283  33.552  29.612  0.00  0.00    -0.006 C 
ATOM     23  C10 MOL d          47.750  34.074  30.992  0.00  0.00    -0.034 C 
ATOM     24  C13 MOL d          48.958  34.991  30.811  0.00  0.00     0.082 C 
ATOM     25  H24 MOL d          48.029  33.223  31.630  0.00  0.00     0.036 H 
ATOM     26  H25 MOL d          46.932  34.635  31.468  0.00  0.00     0.036 H 
ATOM     27  N16 MOL d          48.673  36.142  29.939  0.00  0.00    -0.075 N 
ATOM     28  H26 MOL d          49.778  34.409  30.367  0.00  0.00     0.075 H 
ATOM     29  H27 MOL d          49.266  35.366  31.798  0.00  0.00     0.075 H 
ATOM     30  C14 MOL d          47.840  35.880  28.742  0.00  0.00     0.082 C 
ATOM     31  H28 MOL d          49.555  36.511  29.622  0.00  0.00     0.277 HD
ATOM     32  H29 MOL d          48.199  36.836  30.495  0.00  0.00     0.277 HD
ATOM     33  C11 MOL d          46.741  34.788  28.869  0.00  0.00    -0.034 C 
ATOM     34  H30 MOL d          48.516  35.578  27.928  0.00  0.00     0.075 H 
ATOM     35  H31 MOL d          47.341  36.823  28.473  0.00  0.00     0.075 H 
ATOM     36  H32 MOL d          45.887  35.199  29.426  0.00  0.00     0.036 H 
ATOM     37  H33 MOL d          46.412  34.488  27.863  0.00  0.00     0.036 H 
ATOM     38  H23 MOL d          48.155  33.169  29.060  0.00  0.00     0.050 H 
ENDBRANCH  17  22
ENDBRANCH   5  10
BRANCH   4  39
ATOM     39  C21 MOL d          40.165  32.888  30.061  0.00  0.00    -0.050 C 
ATOM     40  H16 MOL d          40.711  33.825  30.248  0.00  0.00     0.033 H 
ATOM     41  H17 MOL d          39.151  33.120  29.707  0.00  0.00     0.033 H 
ATOM     42  H18 MOL d          40.696  32.301  29.296  0.00  0.00     0.033 H 
ENDBRANCH   4  39
BRANCH   1  43
ATOM     43  C22 MOL d          39.883  29.830  34.996  0.00  0.00     0.256 C 
ATOM     44  O25 MOL d          40.116  30.438  36.037  0.00  0.00    -0.267 OA
ATOM     45  N24 MOL d          39.538  28.510  34.981  0.00  0.00    -0.323 N 
ATOM     46  H1  MOL d          39.332  28.100  34.092  0.00  0.00     0.169 HD
BRANCH  45  47
ATOM     47  C26 MOL d          39.447  27.682  36.106  0.00  0.00     0.037 A 
ATOM     48  C27 MOL d          39.630  28.117  37.453  0.00  0.00    -0.032 A 
ATOM     49  C29 MOL d          39.545  27.236  38.563  0.00  0.00     0.032 A 
ATOM     50  H2  MOL d          39.843  29.163  37.636  0.00  0.00     0.090 H 
ATOM     51  C32 MOL d          39.265  25.881  38.264  0.00  0.00    -0.057 A 
ATOM     52  C30 MOL d          39.074  25.443  36.947  0.00  0.00    -0.079 A 
ATOM     53  H3  MOL d          39.195  25.165  39.074  0.00  0.00     0.086 H 
ATOM     54  C28 MOL d          39.168  26.338  35.873  0.00  0.00    -0.057 A 
ATOM     55  H4  MOL d          38.852  24.399  36.757  0.00  0.00     0.083 H 
ATOM     56  H5  MOL d          39.023  25.984  34.859  0.00  0.00     0.086 H 
BRANCH  49  57
ATOM     57  N31 MOL d          39.790  27.668  39.885  0.00  0.00    -0.377 N 
ATOM     58  C33 MOL d          40.327  29.038  40.098  0.00  0.00     0.015 C 
ATOM     59  C35 MOL d          40.101  29.599  41.517  0.00  0.00     0.034 C 
ATOM     60  H6  MOL d          39.839  29.714  39.380  0.00  0.00     0.067 H 
ATOM     61  H7  MOL d          41.409  29.017  39.906  0.00  0.00     0.067 H 
ATOM     62  O37 MOL d          40.475  28.598  42.433  0.00  0.00    -0.388 OA
ATOM     63  H8  MOL d          39.040  29.855  41.655  0.00  0.00     0.076 H 
ATOM     64  H9  MOL d          40.717  30.497  41.668  0.00  0.00     0.076 H 
ATOM     65  C36 MOL d          39.587  27.496  42.423  0.00  0.00     0.034 C 
ATOM     66  C34 MOL d          39.644  26.758  41.066  0.00  0.00     0.015 C 
ATOM     67  H10 MOL d          38.562  27.858  42.593  0.00  0.00     0.076 H 
ATOM     68  H11 MOL d          39.868  26.799  43.225  0.00  0.00     0.076 H 
ATOM     69  H12 MOL d          40.502  26.071  41.081  0.00  0.00     0.067 H 
ATOM     70  H13 MOL d          38.715  26.182  40.946  0.00  0.00     0.067 H 
ENDBRANCH  49  57
ENDBRANCH  45  47
ENDBRANCH   1  43
TORSDOF 6
ENDMDL
MODEL 2
REMARK VINA RESULT:     -10.4      2.159      3.332
REMARK  6 active torsions:
REMARK  status: ('A' for Active; 'I' for Inactive)
REMARK       I    between atoms: C22_2  and  N24_3 
REMARK    1  A    between atoms: C22_2  and  C19_16 
REMARK    2  A    between atoms: N24_3  and  C26_4 
REMARK    3  A    between atoms: C29_6  and  N31_10 
REMARK    4  A    between atoms: C18_19  and  C21_20 
REMARK    5  A    between atoms: C15_21  and  C12_23 
REMARK    6  A    between atoms: C2_30  and  C5_32 
ROOT
ATOM      1  C19 MOL d          39.893  30.569  33.545  0.00  0.00     0.033 A 
ATOM      2  C23 MOL d          38.996  31.426  32.893  0.00  0.00    -0.067 A 
ATOM      3  C20 MOL d          39.372  32.045  31.698  0.00  0.00    -0.075 A 
ATOM      4  C18 MOL d          40.631  31.819  31.143  0.00  0.00    -0.051 A 
ATOM      5  C15 MOL d          41.519  30.969  31.806  0.00  0.00    -0.019 A 
ATOM      6  C17 MOL d          41.166  30.353  32.991  0.00  0.00    -0.057 A 
ATOM      7  H14 MOL d          38.013  31.608  33.314  0.00  0.00     0.085 H 
ATOM      8  H15 MOL d          38.676  32.709  31.197  0.00  0.00     0.084 H 
ATOM      9  H19 MOL d          41.872  29.702  33.493  0.00  0.00     0.086 H 
ENDROOT
BRANCH   5  10
ATOM     10  C12 MOL d          42.848  30.720  31.226  0.00  0.00    -0.023 A 
ATOM     11  C9  MOL d          43.314  29.409  31.146  0.00  0.00    -0.071 A 
ATOM     12  C4  MOL d          44.563  29.158  30.574  0.00  0.00    -0.067 A 
ATOM     13  H20 MOL d          42.711  28.591  31.523  0.00  0.00     0.084 H 
ATOM     14  C1  MOL d          45.321  30.252  30.093  0.00  0.00     0.027 A 
ATOM     15  H21 MOL d          44.944  28.146  30.501  0.00  0.00     0.085 H 
ATOM     16  C3  MOL d          44.833  31.526  30.187  0.00  0.00     0.114 A 
ATOM     17  C2  MOL d          46.580  30.301  29.488  0.00  0.00     0.079 A 
ATOM     18  O8  MOL d          45.766  32.365  29.649  0.00  0.00    -0.212 OA
ATOM     19  C7  MOL d          43.609  31.782  30.738  0.00  0.00    -0.037 A 
ATOM     20  N6  MOL d          46.792  31.632  29.238  0.00  0.00    -0.131 NA
ATOM     21  H22 MOL d          43.234  32.798  30.794  0.00  0.00     0.089 H 
BRANCH  17  22
ATOM     22  C5  MOL d          47.515  29.149  29.191  0.00  0.00    -0.006 C 
ATOM     23  C10 MOL d          46.870  28.112  28.239  0.00  0.00    -0.034 C 
ATOM     24  C13 MOL d          47.943  27.153  27.725  0.00  0.00     0.082 C 
ATOM     25  H24 MOL d          46.407  28.634  27.389  0.00  0.00     0.036 H 
ATOM     26  H25 MOL d          46.101  27.544  28.782  0.00  0.00     0.036 H 
ATOM     27  N16 MOL d          48.634  26.438  28.809  0.00  0.00    -0.075 N 
ATOM     28  H26 MOL d          48.686  27.730  27.155  0.00  0.00     0.075 H 
ATOM     29  H27 MOL d          47.466  26.414  27.064  0.00  0.00     0.075 H 
ATOM     30  C14 MOL d          48.958  27.223  30.024  0.00  0.00     0.082 C 
ATOM     31  H28 MOL d          49.499  26.082  28.437  0.00  0.00     0.277 HD
ATOM     32  H29 MOL d          48.047  25.669  29.090  0.00  0.00     0.277 HD
ATOM     33  C11 MOL d          47.963  28.347  30.427  0.00  0.00    -0.034 C 
ATOM     34  H30 MOL d          49.940  27.692  29.863  0.00  0.00     0.075 H 
ATOM     35  H31 MOL d          49.021  26.519  30.866  0.00  0.00     0.075 H 
ATOM     36  H32 MOL d          47.081  27.894  30.903  0.00  0.00     0.036 H 
ATOM     37  H33 MOL d          48.455  29.027  31.139  0.00  0.00     0.036 H 
ATOM     38  H23 MOL d          48.408  29.572  28.708  0.00  0.00     0.050 H 
ENDBRANCH  17  22
ENDBRANCH   5  10
BRANCH   4  39
ATOM     39  C21 MOL d          41.013  32.504  29.834  0.00  0.00    -0.050 C 
ATOM     40  H16 MOL d          40.751  31.851  28.988  0.00  0.00     0.033 H 
ATOM     41  H17 MOL d          42.094  32.700  29.824  0.00  0.00     0.033 H 
ATOM     42  H18 MOL d          40.466  33.455  29.745  0.00  0.00     0.033 H 
ENDBRANCH   4  39
BRANCH   1  43
ATOM     43  C22 MOL d          39.603  29.895  34.833  0.00  0.00     0.256 C 
ATOM     44  O25 MOL d          39.057  30.547  35.719  0.00  0.00    -0.267 OA
ATOM     45  N24 MOL d          39.868  28.562  34.963  0.00  0.00    -0.323 N 
ATOM     46  H1  MOL d          40.285  28.100  34.180  0.00  0.00     0.169 HD
BRANCH  45  47
ATOM     47  C26 MOL d          39.605  27.790  36.100  0.00  0.00     0.037 A 
ATOM     48  C27 MOL d          39.740  28.248  37.445  0.00  0.00    -0.032 A 
ATOM     49  C29 MOL d          39.477  27.422  38.568  0.00  0.00     0.032 A 
ATOM     50  H2  MOL d          40.058  29.270  37.615  0.00  0.00     0.090 H 
ATOM     51  C32 MOL d          39.065  26.098  38.285  0.00  0.00    -0.057 A 
ATOM     52  C30 MOL d          38.919  25.637  36.971  0.00  0.00    -0.079 A 
ATOM     53  H3  MOL d          38.857  25.423  39.107  0.00  0.00     0.086 H 
ATOM     54  C28 MOL d          39.191  26.479  35.883  0.00  0.00    -0.057 A 
ATOM     55  H4  MOL d          38.593  24.619  36.793  0.00  0.00     0.083 H 
ATOM     56  H5  MOL d          39.078  26.108  34.871  0.00  0.00     0.086 H 
BRANCH  49  57
ATOM     57  N31 MOL d          39.676  27.870  39.892  0.00  0.00    -0.377 N 
ATOM     58  C33 MOL d          39.475  29.312  40.194  0.00  0.00     0.015 C 
ATOM     59  C35 MOL d          39.225  29.624  41.684  0.00  0.00     0.034 C 
ATOM     60  H6  MOL d          38.608  29.666  39.618  0.00  0.00     0.067 H 
ATOM     61  H7  MOL d          40.375  29.858  39.876  0.00  0.00     0.067 H 
ATOM     62  O37 MOL d          40.191  28.926  42.432  0.00  0.00    -0.388 OA
ATOM     63  H8  MOL d          38.216  29.293  41.972  0.00  0.00     0.076 H 
ATOM     64  H9  MOL d          39.320  30.705  41.862  0.00  0.00     0.076 H 
ATOM     65  C36 MOL d          39.989  27.525  42.402  0.00  0.00     0.034 C 
ATOM     66  C34 MOL d          40.196  26.972  40.973  0.00  0.00     0.015 C 
ATOM     67  H10 MOL d          38.964  27.302  42.730  0.00  0.00     0.076 H 
ATOM     68  H11 MOL d          40.706  27.043  43.083  0.00  0.00     0.076 H 
ATOM     69  H12 MOL d          41.274  26.824  40.811  0.00  0.00     0.067 H 
ATOM     70  H13 MOL d          39.678  26.004  40.899  0.00  0.00     0.067 H 
ENDBRANCH  49  57
ENDBRANCH  45  47
ENDBRANCH   1  43
TORSDOF 6
ENDMDL
MODEL 3
REMARK VINA RESULT:      -9.8      2.852     10.992
REMARK  6 active torsions:
REMARK  status: ('A' for Active; 'I' for Inactive)
REMARK       I    between atoms: C22_2  and  N24_3 
REMARK    1  A    between atoms: C22_2  and  C19_16 
REMARK    2  A    between atoms: N24_3  and  C26_4 
REMARK    3  A    between atoms: C29_6  and  N31_10 
REMARK    4  A    between atoms: C18_19  and  C21_20 
REMARK    5  A    between atoms: C15_21  and  C12_23 
REMARK    6  A    between atoms: C2_30  and  C5_32 
ROOT
ATOM      1  C19 MOL d          41.788  31.572  31.573  0.00  0.00     0.033 A 
ATOM      2  C23 MOL d          40.667  32.156  30.967  0.00  0.00    -0.067 A 
ATOM      3  C20 MOL d          39.410  32.026  31.563  0.00  0.00    -0.075 A 
ATOM      4  C18 MOL d          39.256  31.323  32.758  0.00  0.00    -0.051 A 
ATOM      5  C15 MOL d          40.380  30.740  33.347  0.00  0.00    -0.019 A 
ATOM      6  C17 MOL d          41.629  30.853  32.770  0.00  0.00    -0.057 A 
ATOM      7  H14 MOL d          40.775  32.707  30.039  0.00  0.00     0.085 H 
ATOM      8  H15 MOL d          38.545  32.478  31.090  0.00  0.00     0.084 H 
ATOM      9  H19 MOL d          42.487  30.388  33.240  0.00  0.00     0.086 H 
ENDROOT
BRANCH   5  10
ATOM     10  C12 MOL d          40.228  30.000  34.611  0.00  0.00    -0.023 A 
ATOM     11  C9  MOL d          40.645  30.601  35.798  0.00  0.00    -0.071 A 
ATOM     12  C4  MOL d          40.483  29.919  37.005  0.00  0.00    -0.067 A 
ATOM     13  H20 MOL d          41.090  31.589  35.783  0.00  0.00     0.084 H 
ATOM     14  C1  MOL d          39.899  28.631  36.984  0.00  0.00     0.027 A 
ATOM     15  H21 MOL d          40.799  30.367  37.940  0.00  0.00     0.085 H 
ATOM     16  C3  MOL d          39.500  28.071  35.802  0.00  0.00     0.114 A 
ATOM     17  C2  MOL d          39.622  27.731  38.017  0.00  0.00     0.079 A 
ATOM     18  O8  MOL d          38.979  26.841  36.082  0.00  0.00    -0.212 OA
ATOM     19  C7  MOL d          39.647  28.732  34.614  0.00  0.00    -0.037 A 
ATOM     20  N6  MOL d          39.053  26.650  37.393  0.00  0.00    -0.131 NA
ATOM     21  H22 MOL d          39.316  28.277  33.688  0.00  0.00     0.089 H 
BRANCH  17  22
ATOM     22  C5  MOL d          39.902  27.897  39.495  0.00  0.00    -0.006 C 
ATOM     23  C10 MOL d          39.316  26.732  40.329  0.00  0.00    -0.034 C 
ATOM     24  C13 MOL d          39.888  26.778  41.745  0.00  0.00     0.082 C 
ATOM     25  H24 MOL d          39.581  25.775  39.858  0.00  0.00     0.036 H 
ATOM     26  H25 MOL d          38.220  26.827  40.373  0.00  0.00     0.036 H 
ATOM     27  N16 MOL d          39.602  28.047  42.433  0.00  0.00    -0.075 N 
ATOM     28  H26 MOL d          40.978  26.647  41.688  0.00  0.00     0.075 H 
ATOM     29  H27 MOL d          39.449  25.955  42.328  0.00  0.00     0.075 H 
ATOM     30  C14 MOL d          39.709  29.283  41.623  0.00  0.00     0.082 C 
ATOM     31  H28 MOL d          40.248  28.130  43.202  0.00  0.00     0.277 HD
ATOM     32  H29 MOL d          38.661  27.996  42.789  0.00  0.00     0.277 HD
ATOM     33  C11 MOL d          39.324  29.180  40.120  0.00  0.00    -0.034 C 
ATOM     34  H30 MOL d          40.754  29.623  41.674  0.00  0.00     0.075 H 
ATOM     35  H31 MOL d          39.054  30.038  42.082  0.00  0.00     0.075 H 
ATOM     36  H32 MOL d          38.228  29.164  40.029  0.00  0.00     0.036 H 
ATOM     37  H33 MOL d          39.723  30.054  39.584  0.00  0.00     0.036 H 
ATOM     38  H23 MOL d          40.995  27.911  39.619  0.00  0.00     0.050 H 
ENDBRANCH  17  22
ENDBRANCH   5  10
BRANCH   4  39
ATOM     39  C21 MOL d          37.872  31.203  33.389  0.00  0.00    -0.050 C 
ATOM     40  H16 MOL d          37.157  30.835  32.638  0.00  0.00     0.033 H 
ATOM     41  H17 MOL d          37.548  32.189  33.752  0.00  0.00     0.033 H 
ATOM     42  H18 MOL d          37.913  30.496  34.232  0.00  0.00     0.033 H 
ENDBRANCH   4  39
BRANCH   1  43
ATOM     43  C22 MOL d          43.155  31.622  31.002  0.00  0.00     0.256 C 
ATOM     44  O25 MOL d          43.776  32.680  31.075  0.00  0.00    -0.267 OA
ATOM     45  N24 MOL d          43.709  30.482  30.496  0.00  0.00    -0.323 N 
ATOM     46  H1  MOL d          43.146  29.656  30.504  0.00  0.00     0.169 HD
BRANCH  45  47
ATOM     47  C26 MOL d          45.002  30.373  29.970  0.00  0.00     0.037 A 
ATOM     48  C27 MOL d          45.644  29.144  29.636  0.00  0.00    -0.032 A 
ATOM     49  C29 MOL d          46.965  29.082  29.119  0.00  0.00     0.032 A 
ATOM     50  H2  MOL d          45.101  28.217  29.784  0.00  0.00     0.090 H 
ATOM     51  C32 MOL d          47.625  30.322  28.946  0.00  0.00    -0.057 A 
ATOM     52  C30 MOL d          47.003  31.537  29.261  0.00  0.00    -0.079 A 
ATOM     53  H3  MOL d          48.638  30.331  28.561  0.00  0.00     0.086 H 
ATOM     54  C28 MOL d          45.699  31.563  29.773  0.00  0.00    -0.057 A 
ATOM     55  H4  MOL d          47.537  32.468  29.107  0.00  0.00     0.083 H 
ATOM     56  H5  MOL d          45.232  32.510  30.016  0.00  0.00     0.086 H 
BRANCH  49  57
ATOM     57  N31 MOL d          47.610  27.855  28.853  0.00  0.00    -0.377 N 
ATOM     58  C33 MOL d          47.431  26.733  29.812  0.00  0.00     0.015 C 
ATOM     59  C35 MOL d          47.733  25.338  29.227  0.00  0.00     0.034 C 
ATOM     60  H6  MOL d          46.387  26.742  30.160  0.00  0.00     0.067 H 
ATOM     61  H7  MOL d          48.104  26.901  30.666  0.00  0.00     0.067 H 
ATOM     62  O37 MOL d          48.957  25.422  28.539  0.00  0.00    -0.388 OA
ATOM     63  H8  MOL d          46.932  25.040  28.534  0.00  0.00     0.076 H 
ATOM     64  H9  MOL d          47.807  24.599  30.039  0.00  0.00     0.076 H 
ATOM     65  C36 MOL d          48.863  26.204  27.363  0.00  0.00     0.034 C 
ATOM     66  C34 MOL d          48.561  27.680  27.708  0.00  0.00     0.015 C 
ATOM     67  H10 MOL d          48.053  25.809  26.732  0.00  0.00     0.076 H 
ATOM     68  H11 MOL d          49.815  26.149  26.815  0.00  0.00     0.076 H 
ATOM     69  H12 MOL d          49.508  28.176  27.967  0.00  0.00     0.067 H 
ATOM     70  H13 MOL d          48.126  28.161  26.820  0.00  0.00     0.067 H 
ENDBRANCH  49  57
ENDBRANCH  45  47
ENDBRANCH   1  43
TORSDOF 6
ENDMDL
