REMARK  20 active torsions:
REMARK  status: ('A' for Active; 'I' for Inactive)
REMARK    1  A    between atoms: C3_3  and  C7_7 
REMARK    2  A    between atoms: C4_4  and  C27_27 
REMARK    3  A    between atoms: C7_7  and  C8_8 
REMARK    4  A    between atoms: C8_8  and  C9_9 
REMARK    5  A    between atoms: C9_9  and  C10_10 
REMARK    6  A    between atoms: C10_10  and  C11_11 
REMARK    7  A    between atoms: C11_11  and  C12_12 
REMARK    8  A    between atoms: C12_12  and  C13_13 
REMARK    9  A    between atoms: C13_13  and  C14_14 
REMARK   10  A    between atoms: C14_14  and  C15_15 
REMARK   11  A    between atoms: C15_15  and  C16_16 
REMARK       I    between atoms: C16_16  and  N17_17 
REMARK   12  A    between atoms: N17_17  and  C18_18 
REMARK   13  A    between atoms: C18_18  and  C20_20 
REMARK   14  A    between atoms: C18_18  and  C21_21 
REMARK   15  A    between atoms: C20_20  and  C23_23 
REMARK       I    between atoms: C21_21  and  N22_22 
REMARK   16  A    between atoms: N22_22  and  O32_32 
REMARK   17  A    between atoms: C23_23  and  C24_24 
REMARK   18  A    between atoms: C24_24  and  C25_25 
REMARK   19  A    between atoms: C25_25  and  N26_26 
REMARK   20  A    between atoms: C27_27  and  N28_28 
REMARK       I    between atoms: N28_28  and  C29_29 
REMARK       I    between atoms: C29_29  and  N30_30 
ROOT
ATOM      1  C12 FA4 d          28.727   6.230  15.991  0.00  0.00    -0.065 C 
ATOM      2  H15 FA4 d          28.550   5.752  16.966  0.00  0.00     0.033 H 
ATOM      3  H16 FA4 d          27.797   6.698  15.638  0.00  0.00     0.033 H 
ENDROOT
BRANCH   1   4
ATOM      4  C11 FA4 d          29.140   5.150  14.987  0.00  0.00    -0.065 C 
ATOM      5  H13 FA4 d          29.898   5.569  14.308  0.00  0.00     0.033 H 
ATOM      6  H14 FA4 d          29.571   4.301  15.538  0.00  0.00     0.033 H 
BRANCH   4   7
ATOM      7  C10 FA4 d          27.957   4.648  14.155  0.00  0.00    -0.065 C 
ATOM      8  H11 FA4 d          27.221   5.461  14.069  0.00  0.00     0.033 H 
ATOM      9  H12 FA4 d          28.324   4.378  13.154  0.00  0.00     0.033 H 
BRANCH   7  10
ATOM     10  C9  FA4 d          27.264   3.426  14.765  0.00  0.00    -0.065 C 
ATOM     11  H9  FA4 d          27.996   2.608  14.841  0.00  0.00     0.033 H 
ATOM     12  H10 FA4 d          26.904   3.691  15.770  0.00  0.00     0.033 H 
BRANCH  10  13
ATOM     13  C8  FA4 d          26.076   2.943  13.932  0.00  0.00    -0.061 C 
ATOM     14  H7  FA4 d          26.142   3.392  12.930  0.00  0.00     0.033 H 
ATOM     15  H8  FA4 d          26.127   1.847  13.847  0.00  0.00     0.033 H 
BRANCH  13  16
ATOM     16  C7  FA4 d          24.724   3.327  14.557  0.00  0.00    -0.040 C 
ATOM     17  H5  FA4 d          24.604   2.780  15.504  0.00  0.00     0.040 H 
ATOM     18  H6  FA4 d          24.721   4.409  14.756  0.00  0.00     0.040 H 
BRANCH  16  19
ATOM     19  C3  FA4 d          23.562   2.996  13.655  0.00  0.00    -0.050 A 
ATOM     20  C2  FA4 d          23.009   1.673  13.677  0.00  0.00    -0.076 A 
ATOM     21  C1  FA4 d          21.909   1.329  12.834  0.00  0.00    -0.082 A 
ATOM     22  H2  FA4 d          23.430   0.926  14.340  0.00  0.00     0.084 H 
ATOM     23  C6  FA4 d          21.340   2.297  11.946  0.00  0.00    -0.082 A 
ATOM     24  H1  FA4 d          21.501   0.325  12.867  0.00  0.00     0.083 H 
ATOM     25  C5  FA4 d          21.875   3.631  11.905  0.00  0.00    -0.075 A 
ATOM     26  H4  FA4 d          20.508   2.025  11.306  0.00  0.00     0.083 H 
ATOM     27  C4  FA4 d          22.983   3.995  12.749  0.00  0.00    -0.034 A 
ATOM     28  H3  FA4 d          21.442   4.366  11.236  0.00  0.00     0.084 H 
BRANCH  27  29
ATOM     29  C27 FA4 d          23.478   5.427  12.643  0.00  0.00     0.033 C 
ATOM     30  H37 FA4 d          23.186   5.836  11.665  0.00  0.00     0.072 H 
ATOM     31  H38 FA4 d          24.574   5.435  12.731  0.00  0.00     0.072 H 
BRANCH  29  32
ATOM     32  N28 FA4 d          22.906   6.266  13.704  0.00  0.00    -0.223 N 
ATOM     33  C29 FA4 d          21.755   6.992  13.482  0.00  0.00     0.665 C 
ATOM     34  N30 FA4 d          20.949   7.268  14.501  0.00  0.00    -0.235 N 
ATOM     35  N31 FA4 d          21.430   7.422  12.254  0.00  0.00    -0.235 N 
ATOM     36  H40 FA4 d          20.087   7.810  14.344  0.00  0.00     0.174 HD
ATOM     37  H41 FA4 d          21.186   6.940  15.448  0.00  0.00     0.174 HD
ATOM     38  H42 FA4 d          22.047   7.214  11.456  0.00  0.00     0.174 HD
ATOM     39  H43 FA4 d          20.564   7.960  12.109  0.00  0.00     0.174 HD
ATOM     40  H39 FA4 d          23.369   6.312  14.623  0.00  0.00     0.178 HD
ENDBRANCH  29  32
ENDBRANCH  27  29
ENDBRANCH  16  19
ENDBRANCH  13  16
ENDBRANCH  10  13
ENDBRANCH   7  10
ENDBRANCH   4   7
ENDBRANCH   1   4
BRANCH   1  41
ATOM     41  C13 FA4 d          29.780   7.318  16.169  0.00  0.00    -0.065 C 
ATOM     42  H17 FA4 d          29.273   8.292  16.229  0.00  0.00     0.033 H 
ATOM     43  H18 FA4 d          30.449   7.306  15.296  0.00  0.00     0.033 H 
BRANCH  41  44
ATOM     44  C14 FA4 d          30.622   7.125  17.435  0.00  0.00    -0.057 C 
ATOM     45  H19 FA4 d          31.124   6.148  17.372  0.00  0.00     0.033 H 
ATOM     46  H20 FA4 d          29.949   7.136  18.305  0.00  0.00     0.033 H 
BRANCH  44  47
ATOM     47  C15 FA4 d          31.688   8.203  17.636  0.00  0.00     0.009 C 
ATOM     48  H21 FA4 d          32.056   8.157  18.672  0.00  0.00     0.047 H 
ATOM     49  H22 FA4 d          31.241   9.191  17.449  0.00  0.00     0.047 H 
BRANCH  47  50
ATOM     50  C16 FA4 d          32.866   7.994  16.674  0.00  0.00     0.218 C 
ATOM     51  N17 FA4 d          32.905   8.962  15.732  0.00  0.00    -0.348 N 
ATOM     52  H23 FA4 d          32.205   9.676  15.738  0.00  0.00     0.163 HD
ATOM     53  O19 FA4 d          33.647   7.047  16.798  0.00  0.00    -0.274 OA
BRANCH  51  54
ATOM     54  C18 FA4 d          33.936   8.993  14.712  0.00  0.00     0.091 C 
ATOM     55  H24 FA4 d          34.824   8.451  15.068  0.00  0.00     0.087 H 
BRANCH  54  56
ATOM     56  C20 FA4 d          34.301  10.459  14.467  0.00  0.00    -0.038 C 
ATOM     57  H25 FA4 d          33.652  11.088  15.094  0.00  0.00     0.036 H 
ATOM     58  H26 FA4 d          34.121  10.689  13.406  0.00  0.00     0.036 H 
BRANCH  56  59
ATOM     59  C23 FA4 d          35.753  10.793  14.792  0.00  0.00    -0.061 C 
ATOM     60  H28 FA4 d          36.410  10.185  14.152  0.00  0.00     0.033 H 
ATOM     61  H29 FA4 d          35.946  10.553  15.848  0.00  0.00     0.033 H 
BRANCH  59  62
ATOM     62  C24 FA4 d          36.063  12.271  14.556  0.00  0.00    -0.043 C 
ATOM     63  H30 FA4 d          35.144  12.854  14.714  0.00  0.00     0.035 H 
ATOM     64  H31 FA4 d          36.404  12.399  13.518  0.00  0.00     0.035 H 
BRANCH  62  65
ATOM     65  C25 FA4 d          37.147  12.798  15.498  0.00  0.00     0.080 C 
ATOM     66  H32 FA4 d          38.067  12.218  15.336  0.00  0.00     0.075 H 
ATOM     67  H33 FA4 d          36.807  12.665  16.536  0.00  0.00     0.075 H 
BRANCH  65  68
ATOM     68  N26 FA4 d          37.440  14.209  15.279  0.00  0.00    -0.079 N 
ATOM     69  H34 FA4 d          38.157  14.507  15.921  0.00  0.00     0.274 HD
ATOM     70  H35 FA4 d          36.605  14.753  15.432  0.00  0.00     0.274 HD
ATOM     71  H36 FA4 d          37.760  14.343  14.333  0.00  0.00     0.274 HD
ENDBRANCH  65  68
ENDBRANCH  62  65
ENDBRANCH  59  62
ENDBRANCH  56  59
ENDBRANCH  54  56
BRANCH  54  72
ATOM     72  C21 FA4 d          33.425   8.321  13.425  0.00  0.00     0.263 C 
ATOM     73  N22 FA4 d          34.232   7.357  12.959  0.00  0.00    -0.236 N 
ATOM     74  H27 FA4 d          35.080   7.133  13.439  0.00  0.00     0.197 HD
ATOM     75  O33 FA4 d          32.366   8.657  12.905  0.00  0.00    -0.269 OA
BRANCH  73  76
ATOM     76  O32 FA4 d          33.878   6.667  11.796  0.00  0.00    -0.287 OA
ATOM     77  H44 FA4 d          34.546   6.021  11.597  0.00  0.00     0.244 HD
ENDBRANCH  73  76
ENDBRANCH  54  72
ENDBRANCH  51  54
ENDBRANCH  47  50
ENDBRANCH  44  47
ENDBRANCH  41  44
ENDBRANCH   1  41
TORSDOF 20
