MODEL 1
REMARK VINA RESULT:      -8.0      0.000      0.000
REMARK  20 active torsions:
REMARK  status: ('A' for Active; 'I' for Inactive)
REMARK    1  A    between atoms: C3_3  and  C7_7 
REMARK    2  A    between atoms: C4_4  and  C27_27 
REMARK    3  A    between atoms: C7_7  and  C8_8 
REMARK    4  A    between atoms: C8_8  and  C9_9 
REMARK    5  A    between atoms: C9_9  and  C10_10 
REMARK    6  A    between atoms: C10_10  and  C11_11 
REMARK    7  A    between atoms: C11_11  and  C12_12 
REMARK    8  A    between atoms: C12_12  and  C13_13 
REMARK    9  A    between atoms: C13_13  and  C14_14 
REMARK   10  A    between atoms: C14_14  and  C15_15 
REMARK   11  A    between atoms: C15_15  and  C16_16 
REMARK       I    between atoms: C16_16  and  N17_17 
REMARK   12  A    between atoms: N17_17  and  C18_18 
REMARK   13  A    between atoms: C18_18  and  C20_20 
REMARK   14  A    between atoms: C18_18  and  C21_21 
REMARK   15  A    between atoms: C20_20  and  C23_23 
REMARK       I    between atoms: C21_21  and  N22_22 
REMARK   16  A    between atoms: N22_22  and  O32_32 
REMARK   17  A    between atoms: C23_23  and  C24_24 
REMARK   18  A    between atoms: C24_24  and  C25_25 
REMARK   19  A    between atoms: C25_25  and  N26_26 
REMARK   20  A    between atoms: C27_27  and  N28_28 
REMARK       I    between atoms: N28_28  and  C29_29 
REMARK       I    between atoms: C29_29  and  N30_30 
ROOT
ATOM      1  C12 FA4 d          30.055   4.206  14.687  0.00  0.00    -0.065 C 
ATOM      2  H15 FA4 d          29.606   4.620  13.772  0.00  0.00     0.033 H 
ATOM      3  H16 FA4 d          30.331   3.156  14.517  0.00  0.00     0.033 H 
ENDROOT
BRANCH   1   4
ATOM      4  C11 FA4 d          29.014   4.261  15.808  0.00  0.00    -0.065 C 
ATOM      5  H13 FA4 d          29.291   3.532  16.585  0.00  0.00     0.033 H 
ATOM      6  H14 FA4 d          29.011   5.273  16.239  0.00  0.00     0.033 H 
BRANCH   4   7
ATOM      7  C10 FA4 d          27.604   3.935  15.307  0.00  0.00    -0.065 C 
ATOM      8  H11 FA4 d          27.020   3.531  16.148  0.00  0.00     0.033 H 
ATOM      9  H12 FA4 d          27.138   4.864  14.949  0.00  0.00     0.033 H 
BRANCH   7  10
ATOM     10  C9  FA4 d          27.589   2.911  14.168  0.00  0.00    -0.065 C 
ATOM     11  H9  FA4 d          27.840   3.427  13.229  0.00  0.00     0.033 H 
ATOM     12  H10 FA4 d          28.345   2.140  14.377  0.00  0.00     0.033 H 
BRANCH  10  13
ATOM     13  C8  FA4 d          26.229   2.231  14.003  0.00  0.00    -0.061 C 
ATOM     14  H7  FA4 d          26.113   1.926  12.952  0.00  0.00     0.033 H 
ATOM     15  H8  FA4 d          26.200   1.340  14.649  0.00  0.00     0.033 H 
BRANCH  13  16
ATOM     16  C7  FA4 d          25.059   3.154  14.381  0.00  0.00    -0.040 C 
ATOM     17  H5  FA4 d          24.876   3.068  15.463  0.00  0.00     0.040 H 
ATOM     18  H6  FA4 d          25.334   4.191  14.138  0.00  0.00     0.040 H 
BRANCH  16  19
ATOM     19  C3  FA4 d          23.791   2.802  13.645  0.00  0.00    -0.050 A 
ATOM     20  C2  FA4 d          23.206   1.506  13.831  0.00  0.00    -0.076 A 
ATOM     21  C1  FA4 d          22.006   1.143  13.147  0.00  0.00    -0.082 A 
ATOM     22  H2  FA4 d          23.679   0.794  14.497  0.00  0.00     0.084 H 
ATOM     23  C6  FA4 d          21.367   2.065  12.258  0.00  0.00    -0.082 A 
ATOM     24  H1  FA4 d          21.576   0.161  13.303  0.00  0.00     0.083 H 
ATOM     25  C5  FA4 d          21.932   3.371  12.054  0.00  0.00    -0.075 A 
ATOM     26  H4  FA4 d          20.458   1.778  11.739  0.00  0.00     0.083 H 
ATOM     27  C4  FA4 d          23.140   3.754  12.737  0.00  0.00    -0.034 A 
ATOM     28  H3  FA4 d          21.446   4.071  11.384  0.00  0.00     0.084 H 
BRANCH  27  29
ATOM     29  C27 FA4 d          23.661   5.155  12.466  0.00  0.00     0.033 C 
ATOM     30  H37 FA4 d          23.168   5.553  11.567  0.00  0.00     0.072 H 
ATOM     31  H38 FA4 d          24.747   5.107  12.298  0.00  0.00     0.072 H 
BRANCH  29  32
ATOM     32  N28 FA4 d          23.390   6.050  13.598  0.00  0.00    -0.223 N 
ATOM     33  C29 FA4 d          22.192   6.726  13.688  0.00  0.00     0.665 C 
ATOM     34  N30 FA4 d          21.712   7.050  14.884  0.00  0.00    -0.235 N 
ATOM     35  N31 FA4 d          21.497   7.059  12.591  0.00  0.00    -0.235 N 
ATOM     36  H40 FA4 d          20.817   7.555  14.960  0.00  0.00     0.174 HD
ATOM     37  H41 FA4 d          22.235   6.796  15.734  0.00  0.00     0.174 HD
ATOM     38  H42 FA4 d          21.858   6.813  11.659  0.00  0.00     0.174 HD
ATOM     39  H43 FA4 d          20.602   7.561  12.680  0.00  0.00     0.174 HD
ATOM     40  H39 FA4 d          24.102   6.173  14.332  0.00  0.00     0.178 HD
ENDBRANCH  29  32
ENDBRANCH  27  29
ENDBRANCH  16  19
ENDBRANCH  13  16
ENDBRANCH  10  13
ENDBRANCH   7  10
ENDBRANCH   4   7
ENDBRANCH   1   4
BRANCH   1  41
ATOM     41  C13 FA4 d          31.321   4.994  15.004  0.00  0.00    -0.065 C 
ATOM     42  H17 FA4 d          31.483   5.736  14.208  0.00  0.00     0.033 H 
ATOM     43  H18 FA4 d          32.171   4.297  15.035  0.00  0.00     0.033 H 
BRANCH  41  44
ATOM     44  C14 FA4 d          31.240   5.728  16.348  0.00  0.00    -0.057 C 
ATOM     45  H19 FA4 d          32.120   5.452  16.947  0.00  0.00     0.033 H 
ATOM     46  H20 FA4 d          30.326   5.401  16.867  0.00  0.00     0.033 H 
BRANCH  44  47
ATOM     47  C15 FA4 d          31.202   7.251  16.217  0.00  0.00     0.009 C 
ATOM     48  H21 FA4 d          30.815   7.683  17.152  0.00  0.00     0.047 H 
ATOM     49  H22 FA4 d          30.537   7.525  15.384  0.00  0.00     0.047 H 
BRANCH  47  50
ATOM     50  C16 FA4 d          32.605   7.812  15.946  0.00  0.00     0.218 C 
ATOM     51  N17 FA4 d          32.585   8.712  14.939  0.00  0.00    -0.348 N 
ATOM     52  H23 FA4 d          31.718   8.914  14.483  0.00  0.00     0.163 HD
ATOM     53  O19 FA4 d          33.587   7.452  16.600  0.00  0.00    -0.274 OA
BRANCH  51  54
ATOM     54  C18 FA4 d          33.788   9.395  14.501  0.00  0.00     0.091 C 
ATOM     55  H24 FA4 d          34.585   9.252  15.245  0.00  0.00     0.087 H 
BRANCH  54  56
ATOM     56  C20 FA4 d          33.459  10.886  14.390  0.00  0.00    -0.038 C 
ATOM     57  H25 FA4 d          33.603  11.196  13.345  0.00  0.00     0.036 H 
ATOM     58  H26 FA4 d          34.153  11.443  15.037  0.00  0.00     0.036 H 
BRANCH  56  59
ATOM     59  C23 FA4 d          32.033  11.233  14.803  0.00  0.00    -0.061 C 
ATOM     60  H28 FA4 d          31.790  10.696  15.732  0.00  0.00     0.033 H 
ATOM     61  H29 FA4 d          31.344  10.916  14.006  0.00  0.00     0.033 H 
BRANCH  59  62
ATOM     62  C24 FA4 d          31.859  12.733  15.039  0.00  0.00    -0.043 C 
ATOM     63  H30 FA4 d          31.349  13.171  14.168  0.00  0.00     0.035 H 
ATOM     64  H31 FA4 d          32.853  13.191  15.149  0.00  0.00     0.035 H 
BRANCH  62  65
ATOM     65  C25 FA4 d          31.036  13.035  16.293  0.00  0.00     0.080 C 
ATOM     66  H32 FA4 d          31.087  14.115  16.496  0.00  0.00     0.075 H 
ATOM     67  H33 FA4 d          31.468  12.482  17.140  0.00  0.00     0.075 H 
BRANCH  65  68
ATOM     68  N26 FA4 d          29.637  12.653  16.149  0.00  0.00    -0.079 N 
ATOM     69  H34 FA4 d          29.114  12.988  16.942  0.00  0.00     0.274 HD
ATOM     70  H35 FA4 d          29.567  11.648  16.101  0.00  0.00     0.274 HD
ATOM     71  H36 FA4 d          29.263  13.057  15.305  0.00  0.00     0.274 HD
ENDBRANCH  65  68
ENDBRANCH  62  65
ENDBRANCH  59  62
ENDBRANCH  56  59
ENDBRANCH  54  56
BRANCH  54  72
ATOM     72  C21 FA4 d          34.257   8.824  13.152  0.00  0.00     0.263 C 
ATOM     73  N22 FA4 d          34.115   7.495  13.046  0.00  0.00    -0.236 N 
ATOM     74  H27 FA4 d          33.734   6.966  13.805  0.00  0.00     0.197 HD
ATOM     75  O33 FA4 d          34.708   9.549  12.272  0.00  0.00    -0.269 OA
BRANCH  73  76
ATOM     76  O32 FA4 d          34.502   6.853  11.866  0.00  0.00    -0.287 OA
ATOM     77  H44 FA4 d          35.403   7.080  11.665  0.00  0.00     0.244 HD
ENDBRANCH  73  76
ENDBRANCH  54  72
ENDBRANCH  51  54
ENDBRANCH  47  50
ENDBRANCH  44  47
ENDBRANCH  41  44
ENDBRANCH   1  41
TORSDOF 20
ENDMDL
MODEL 2
REMARK VINA RESULT:      -7.7      1.767      2.226
REMARK  20 active torsions:
REMARK  status: ('A' for Active; 'I' for Inactive)
REMARK    1  A    between atoms: C3_3  and  C7_7 
REMARK    2  A    between atoms: C4_4  and  C27_27 
REMARK    3  A    between atoms: C7_7  and  C8_8 
REMARK    4  A    between atoms: C8_8  and  C9_9 
REMARK    5  A    between atoms: C9_9  and  C10_10 
REMARK    6  A    between atoms: C10_10  and  C11_11 
REMARK    7  A    between atoms: C11_11  and  C12_12 
REMARK    8  A    between atoms: C12_12  and  C13_13 
REMARK    9  A    between atoms: C13_13  and  C14_14 
REMARK   10  A    between atoms: C14_14  and  C15_15 
REMARK   11  A    between atoms: C15_15  and  C16_16 
REMARK       I    between atoms: C16_16  and  N17_17 
REMARK   12  A    between atoms: N17_17  and  C18_18 
REMARK   13  A    between atoms: C18_18  and  C20_20 
REMARK   14  A    between atoms: C18_18  and  C21_21 
REMARK   15  A    between atoms: C20_20  and  C23_23 
REMARK       I    between atoms: C21_21  and  N22_22 
REMARK   16  A    between atoms: N22_22  and  O32_32 
REMARK   17  A    between atoms: C23_23  and  C24_24 
REMARK   18  A    between atoms: C24_24  and  C25_25 
REMARK   19  A    between atoms: C25_25  and  N26_26 
REMARK   20  A    between atoms: C27_27  and  N28_28 
REMARK       I    between atoms: N28_28  and  C29_29 
REMARK       I    between atoms: C29_29  and  N30_30 
ROOT
ATOM      1  C12 FA4 d          28.984   3.574  14.588  0.00  0.00    -0.065 C 
ATOM      2  H15 FA4 d          28.845   4.166  13.672  0.00  0.00     0.033 H 
ATOM      3  H16 FA4 d          29.742   2.798  14.413  0.00  0.00     0.033 H 
ENDROOT
BRANCH   1   4
ATOM      4  C11 FA4 d          27.657   2.890  14.931  0.00  0.00    -0.065 C 
ATOM      5  H13 FA4 d          27.871   1.906  15.376  0.00  0.00     0.033 H 
ATOM      6  H14 FA4 d          27.115   3.512  15.658  0.00  0.00     0.033 H 
BRANCH   4   7
ATOM      7  C10 FA4 d          26.772   2.690  13.698  0.00  0.00    -0.065 C 
ATOM      8  H11 FA4 d          27.384   2.251  12.896  0.00  0.00     0.033 H 
ATOM      9  H12 FA4 d          25.959   1.997  13.960  0.00  0.00     0.033 H 
BRANCH   7  10
ATOM     10  C9  FA4 d          26.153   3.992  13.180  0.00  0.00    -0.065 C 
ATOM     11  H9  FA4 d          26.776   4.835  13.515  0.00  0.00     0.033 H 
ATOM     12  H10 FA4 d          26.138   3.962  12.081  0.00  0.00     0.033 H 
BRANCH  10  13
ATOM     13  C8  FA4 d          24.726   4.209  13.683  0.00  0.00    -0.061 C 
ATOM     14  H7  FA4 d          24.400   3.306  14.220  0.00  0.00     0.033 H 
ATOM     15  H8  FA4 d          24.721   5.067  14.372  0.00  0.00     0.033 H 
BRANCH  13  16
ATOM     16  C7  FA4 d          23.735   4.489  12.540  0.00  0.00    -0.040 C 
ATOM     17  H5  FA4 d          23.418   5.541  12.596  0.00  0.00     0.040 H 
ATOM     18  H6  FA4 d          24.242   4.309  11.581  0.00  0.00     0.040 H 
BRANCH  16  19
ATOM     19  C3  FA4 d          22.512   3.610  12.615  0.00  0.00    -0.050 A 
ATOM     20  C2  FA4 d          22.671   2.201  12.832  0.00  0.00    -0.076 A 
ATOM     21  C1  FA4 d          21.532   1.343  12.907  0.00  0.00    -0.082 A 
ATOM     22  H2  FA4 d          23.665   1.783  12.939  0.00  0.00     0.084 H 
ATOM     23  C6  FA4 d          20.209   1.871  12.762  0.00  0.00    -0.082 A 
ATOM     24  H1  FA4 d          21.670   0.281  13.075  0.00  0.00     0.083 H 
ATOM     25  C5  FA4 d          20.022   3.280  12.545  0.00  0.00    -0.075 A 
ATOM     26  H4  FA4 d          19.351   1.211  12.815  0.00  0.00     0.083 H 
ATOM     27  C4  FA4 d          21.159   4.160  12.468  0.00  0.00    -0.034 A 
ATOM     28  H3  FA4 d          19.021   3.682  12.440  0.00  0.00     0.084 H 
BRANCH  27  29
ATOM     29  C27 FA4 d          20.866   5.633  12.243  0.00  0.00     0.033 C 
ATOM     30  H37 FA4 d          20.028   5.729  11.539  0.00  0.00     0.072 H 
ATOM     31  H38 FA4 d          21.759   6.116  11.818  0.00  0.00     0.072 H 
BRANCH  29  32
ATOM     32  N28 FA4 d          20.514   6.302  13.502  0.00  0.00    -0.223 N 
ATOM     33  C29 FA4 d          21.328   7.282  14.029  0.00  0.00     0.665 C 
ATOM     34  N30 FA4 d          20.797   8.240  14.780  0.00  0.00    -0.235 N 
ATOM     35  N31 FA4 d          22.649   7.290  13.795  0.00  0.00    -0.235 N 
ATOM     36  H40 FA4 d          21.398   8.976  15.178  0.00  0.00     0.174 HD
ATOM     37  H41 FA4 d          19.784   8.247  14.965  0.00  0.00     0.174 HD
ATOM     38  H42 FA4 d          23.072   6.552  13.214  0.00  0.00     0.174 HD
ATOM     39  H43 FA4 d          23.239   8.032  14.195  0.00  0.00     0.174 HD
ATOM     40  H39 FA4 d          19.649   6.037  13.996  0.00  0.00     0.178 HD
ENDBRANCH  29  32
ENDBRANCH  27  29
ENDBRANCH  16  19
ENDBRANCH  13  16
ENDBRANCH  10  13
ENDBRANCH   7  10
ENDBRANCH   4   7
ENDBRANCH   1   4
BRANCH   1  41
ATOM     41  C13 FA4 d          29.483   4.500  15.692  0.00  0.00    -0.065 C 
ATOM     42  H17 FA4 d          28.988   4.224  16.634  0.00  0.00     0.033 H 
ATOM     43  H18 FA4 d          29.220   5.535  15.429  0.00  0.00     0.033 H 
BRANCH  41  44
ATOM     44  C14 FA4 d          31.000   4.416  15.893  0.00  0.00    -0.057 C 
ATOM     45  H19 FA4 d          31.278   3.356  15.997  0.00  0.00     0.033 H 
ATOM     46  H20 FA4 d          31.259   4.955  16.816  0.00  0.00     0.033 H 
BRANCH  44  47
ATOM     47  C15 FA4 d          31.808   5.015  14.741  0.00  0.00     0.009 C 
ATOM     48  H21 FA4 d          31.122   5.297  13.928  0.00  0.00     0.047 H 
ATOM     49  H22 FA4 d          32.524   4.263  14.374  0.00  0.00     0.047 H 
BRANCH  47  50
ATOM     50  C16 FA4 d          32.580   6.259  15.203  0.00  0.00     0.218 C 
ATOM     51  N17 FA4 d          32.776   7.120  14.180  0.00  0.00    -0.348 N 
ATOM     52  H23 FA4 d          32.433   6.882  13.271  0.00  0.00     0.163 HD
ATOM     53  O19 FA4 d          32.944   6.402  16.373  0.00  0.00    -0.274 OA
BRANCH  51  54
ATOM     54  C18 FA4 d          33.471   8.379  14.365  0.00  0.00     0.091 C 
ATOM     55  H24 FA4 d          34.084   8.332  15.276  0.00  0.00     0.087 H 
BRANCH  54  56
ATOM     56  C20 FA4 d          32.413   9.474  14.521  0.00  0.00    -0.038 C 
ATOM     57  H25 FA4 d          31.442   9.066  14.202  0.00  0.00     0.036 H 
ATOM     58  H26 FA4 d          32.687  10.318  13.872  0.00  0.00     0.036 H 
BRANCH  56  59
ATOM     59  C23 FA4 d          32.271   9.991  15.949  0.00  0.00    -0.061 C 
ATOM     60  H28 FA4 d          31.602   9.318  16.506  0.00  0.00     0.033 H 
ATOM     61  H29 FA4 d          31.834  11.000  15.920  0.00  0.00     0.033 H 
BRANCH  59  62
ATOM     62  C24 FA4 d          33.618  10.055  16.667  0.00  0.00    -0.043 C 
ATOM     63  H30 FA4 d          34.227   9.195  16.352  0.00  0.00     0.035 H 
ATOM     64  H31 FA4 d          33.443  10.002  17.752  0.00  0.00     0.035 H 
BRANCH  62  65
ATOM     65  C25 FA4 d          34.386  11.341  16.355  0.00  0.00     0.080 C 
ATOM     66  H32 FA4 d          34.610  11.856  17.301  0.00  0.00     0.075 H 
ATOM     67  H33 FA4 d          33.753  11.986  15.727  0.00  0.00     0.075 H 
BRANCH  65  68
ATOM     68  N26 FA4 d          35.638  11.089  15.653  0.00  0.00    -0.079 N 
ATOM     69  H34 FA4 d          36.346  11.720  15.992  0.00  0.00     0.274 HD
ATOM     70  H35 FA4 d          35.504  11.233  14.665  0.00  0.00     0.274 HD
ATOM     71  H36 FA4 d          35.930  10.138  15.818  0.00  0.00     0.274 HD
ENDBRANCH  65  68
ENDBRANCH  62  65
ENDBRANCH  59  62
ENDBRANCH  56  59
ENDBRANCH  54  56
BRANCH  54  72
ATOM     72  C21 FA4 d          34.389   8.657  13.161  0.00  0.00     0.263 C 
ATOM     73  N22 FA4 d          34.566   7.598  12.357  0.00  0.00    -0.236 N 
ATOM     74  H27 FA4 d          34.121   6.727  12.566  0.00  0.00     0.197 HD
ATOM     75  O33 FA4 d          34.890   9.762  12.980  0.00  0.00    -0.269 OA
BRANCH  73  76
ATOM     76  O32 FA4 d          35.377   7.722  11.226  0.00  0.00    -0.287 OA
ATOM     77  H44 FA4 d          35.961   6.974  11.173  0.00  0.00     0.244 HD
ENDBRANCH  73  76
ENDBRANCH  54  72
ENDBRANCH  51  54
ENDBRANCH  47  50
ENDBRANCH  44  47
ENDBRANCH  41  44
ENDBRANCH   1  41
TORSDOF 20
ENDMDL
MODEL 3
REMARK VINA RESULT:      -7.3      2.012      3.412
REMARK  20 active torsions:
REMARK  status: ('A' for Active; 'I' for Inactive)
REMARK    1  A    between atoms: C3_3  and  C7_7 
REMARK    2  A    between atoms: C4_4  and  C27_27 
REMARK    3  A    between atoms: C7_7  and  C8_8 
REMARK    4  A    between atoms: C8_8  and  C9_9 
REMARK    5  A    between atoms: C9_9  and  C10_10 
REMARK    6  A    between atoms: C10_10  and  C11_11 
REMARK    7  A    between atoms: C11_11  and  C12_12 
REMARK    8  A    between atoms: C12_12  and  C13_13 
REMARK    9  A    between atoms: C13_13  and  C14_14 
REMARK   10  A    between atoms: C14_14  and  C15_15 
REMARK   11  A    between atoms: C15_15  and  C16_16 
REMARK       I    between atoms: C16_16  and  N17_17 
REMARK   12  A    between atoms: N17_17  and  C18_18 
REMARK   13  A    between atoms: C18_18  and  C20_20 
REMARK   14  A    between atoms: C18_18  and  C21_21 
REMARK   15  A    between atoms: C20_20  and  C23_23 
REMARK       I    between atoms: C21_21  and  N22_22 
REMARK   16  A    between atoms: N22_22  and  O32_32 
REMARK   17  A    between atoms: C23_23  and  C24_24 
REMARK   18  A    between atoms: C24_24  and  C25_25 
REMARK   19  A    between atoms: C25_25  and  N26_26 
REMARK   20  A    between atoms: C27_27  and  N28_28 
REMARK       I    between atoms: N28_28  and  C29_29 
REMARK       I    between atoms: C29_29  and  N30_30 
ROOT
ATOM      1  C12 FA4 d          29.584   4.334  15.026  0.00  0.00    -0.065 C 
ATOM      2  H15 FA4 d          29.219   4.967  14.203  0.00  0.00     0.033 H 
ATOM      3  H16 FA4 d          30.371   3.664  14.653  0.00  0.00     0.033 H 
ENDROOT
BRANCH   1   4
ATOM      4  C11 FA4 d          28.419   3.479  15.536  0.00  0.00    -0.065 C 
ATOM      5  H13 FA4 d          28.820   2.686  16.184  0.00  0.00     0.033 H 
ATOM      6  H14 FA4 d          27.739   4.119  16.117  0.00  0.00     0.033 H 
BRANCH   4   7
ATOM      7  C10 FA4 d          27.631   2.832  14.394  0.00  0.00    -0.065 C 
ATOM      8  H11 FA4 d          28.344   2.361  13.701  0.00  0.00     0.033 H 
ATOM      9  H12 FA4 d          26.969   2.063  14.819  0.00  0.00     0.033 H 
BRANCH   7  10
ATOM     10  C9  FA4 d          26.776   3.830  13.608  0.00  0.00    -0.065 C 
ATOM     11  H9  FA4 d          27.244   4.824  13.675  0.00  0.00     0.033 H 
ATOM     12  H10 FA4 d          26.741   3.511  12.556  0.00  0.00     0.033 H 
BRANCH  10  13
ATOM     13  C8  FA4 d          25.344   3.927  14.137  0.00  0.00    -0.061 C 
ATOM     14  H7  FA4 d          25.067   2.960  14.582  0.00  0.00     0.033 H 
ATOM     15  H8  FA4 d          25.305   4.711  14.908  0.00  0.00     0.033 H 
BRANCH  13  16
ATOM     16  C7  FA4 d          24.331   4.271  13.032  0.00  0.00    -0.040 C 
ATOM     17  H5  FA4 d          23.910   5.267  13.236  0.00  0.00     0.040 H 
ATOM     18  H6  FA4 d          24.853   4.285  12.064  0.00  0.00     0.040 H 
BRANCH  16  19
ATOM     19  C3  FA4 d          23.202   3.274  12.960  0.00  0.00    -0.050 A 
ATOM     20  C2  FA4 d          23.455   1.901  13.288  0.00  0.00    -0.076 A 
ATOM     21  C1  FA4 d          22.407   0.933  13.228  0.00  0.00    -0.082 A 
ATOM     22  H2  FA4 d          24.452   1.594  13.583  0.00  0.00     0.084 H 
ATOM     23  C6  FA4 d          21.084   1.313  12.835  0.00  0.00    -0.082 A 
ATOM     24  H1  FA4 d          22.616  -0.100  13.483  0.00  0.00     0.083 H 
ATOM     25  C5  FA4 d          20.804   2.683  12.503  0.00  0.00    -0.075 A 
ATOM     26  H4  FA4 d          20.296   0.570  12.788  0.00  0.00     0.083 H 
ATOM     27  C4  FA4 d          21.848   3.672  12.558  0.00  0.00    -0.034 A 
ATOM     28  H3  FA4 d          19.801   2.973  12.209  0.00  0.00     0.084 H 
BRANCH  27  29
ATOM     29  C27 FA4 d          21.459   5.095  12.196  0.00  0.00     0.033 C 
ATOM     30  H37 FA4 d          21.055   5.107  11.174  0.00  0.00     0.072 H 
ATOM     31  H38 FA4 d          22.352   5.735  12.245  0.00  0.00     0.072 H 
BRANCH  29  32
ATOM     32  N28 FA4 d          20.443   5.619  13.120  0.00  0.00    -0.223 N 
ATOM     33  C29 FA4 d          20.788   6.515  14.109  0.00  0.00     0.665 C 
ATOM     34  N30 FA4 d          19.887   7.388  14.544  0.00  0.00    -0.235 N 
ATOM     35  N31 FA4 d          22.020   6.526  14.639  0.00  0.00    -0.235 N 
ATOM     36  H40 FA4 d          20.136   8.061  15.283  0.00  0.00     0.174 HD
ATOM     37  H41 FA4 d          18.939   7.392  14.142  0.00  0.00     0.174 HD
ATOM     38  H42 FA4 d          22.728   5.854  14.309  0.00  0.00     0.174 HD
ATOM     39  H43 FA4 d          22.259   7.206  15.374  0.00  0.00     0.174 HD
ATOM     40  H39 FA4 d          19.464   5.313  13.026  0.00  0.00     0.178 HD
ENDBRANCH  29  32
ENDBRANCH  27  29
ENDBRANCH  16  19
ENDBRANCH  13  16
ENDBRANCH  10  13
ENDBRANCH   7  10
ENDBRANCH   4   7
ENDBRANCH   1   4
BRANCH   1  41
ATOM     41  C13 FA4 d          30.183   5.234  16.101  0.00  0.00    -0.065 C 
ATOM     42  H17 FA4 d          30.114   4.719  17.070  0.00  0.00     0.033 H 
ATOM     43  H18 FA4 d          29.603   6.168  16.140  0.00  0.00     0.033 H 
BRANCH  41  44
ATOM     44  C14 FA4 d          31.652   5.579  15.833  0.00  0.00    -0.057 C 
ATOM     45  H19 FA4 d          32.245   4.656  15.915  0.00  0.00     0.033 H 
ATOM     46  H20 FA4 d          31.985   6.298  16.595  0.00  0.00     0.033 H 
BRANCH  44  47
ATOM     47  C15 FA4 d          31.899   6.190  14.453  0.00  0.00     0.009 C 
ATOM     48  H21 FA4 d          31.161   5.786  13.743  0.00  0.00     0.047 H 
ATOM     49  H22 FA4 d          32.913   5.925  14.118  0.00  0.00     0.047 H 
BRANCH  47  50
ATOM     50  C16 FA4 d          31.768   7.719  14.500  0.00  0.00     0.218 C 
ATOM     51  N17 FA4 d          31.896   8.181  15.763  0.00  0.00    -0.348 N 
ATOM     52  H23 FA4 d          32.046   7.531  16.507  0.00  0.00     0.163 HD
ATOM     53  O19 FA4 d          31.575   8.387  13.480  0.00  0.00    -0.274 OA
BRANCH  51  54
ATOM     54  C18 FA4 d          31.823   9.598  16.068  0.00  0.00     0.091 C 
ATOM     55  H24 FA4 d          31.714  10.171  15.136  0.00  0.00     0.087 H 
BRANCH  54  56
ATOM     56  C20 FA4 d          33.133   9.991  16.755  0.00  0.00    -0.038 C 
ATOM     57  H25 FA4 d          33.138   9.559  17.766  0.00  0.00     0.036 H 
ATOM     58  H26 FA4 d          33.172  11.089  16.825  0.00  0.00     0.036 H 
BRANCH  56  59
ATOM     59  C23 FA4 d          34.380   9.511  16.021  0.00  0.00    -0.061 C 
ATOM     60  H28 FA4 d          34.145   8.575  15.493  0.00  0.00     0.033 H 
ATOM     61  H29 FA4 d          35.177   9.327  16.756  0.00  0.00     0.033 H 
BRANCH  59  62
ATOM     62  C24 FA4 d          34.874  10.541  15.005  0.00  0.00    -0.043 C 
ATOM     63  H30 FA4 d          35.764  11.041  15.412  0.00  0.00     0.035 H 
ATOM     64  H31 FA4 d          34.079  11.284  14.841  0.00  0.00     0.035 H 
BRANCH  62  65
ATOM     65  C25 FA4 d          35.238   9.907  13.661  0.00  0.00     0.080 C 
ATOM     66  H32 FA4 d          36.269  10.190  13.406  0.00  0.00     0.075 H 
ATOM     67  H33 FA4 d          34.551  10.291  12.892  0.00  0.00     0.075 H 
BRANCH  65  68
ATOM     68  N26 FA4 d          35.146   8.452  13.686  0.00  0.00    -0.079 N 
ATOM     69  H34 FA4 d          34.723   8.157  14.551  0.00  0.00     0.274 HD
ATOM     70  H35 FA4 d          36.070   8.056  13.612  0.00  0.00     0.274 HD
ATOM     71  H36 FA4 d          34.582   8.138  12.913  0.00  0.00     0.274 HD
ENDBRANCH  65  68
ENDBRANCH  62  65
ENDBRANCH  59  62
ENDBRANCH  56  59
ENDBRANCH  54  56
BRANCH  54  72
ATOM     72  C21 FA4 d          30.610   9.881  16.971  0.00  0.00     0.263 C 
ATOM     73  N22 FA4 d          29.811   8.820  17.155  0.00  0.00    -0.236 N 
ATOM     74  H27 FA4 d          30.026   7.945  16.721  0.00  0.00     0.197 HD
ATOM     75  O33 FA4 d          30.427  10.987  17.468  0.00  0.00    -0.269 OA
BRANCH  73  76
ATOM     76  O32 FA4 d          28.675   8.946  17.959  0.00  0.00    -0.287 OA
ATOM     77  H44 FA4 d          28.526   9.865  18.152  0.00  0.00     0.244 HD
ENDBRANCH  73  76
ENDBRANCH  54  72
ENDBRANCH  51  54
ENDBRANCH  47  50
ENDBRANCH  44  47
ENDBRANCH  41  44
ENDBRANCH   1  41
TORSDOF 20
ENDMDL
MODEL 4
REMARK VINA RESULT:      -7.3      2.169      3.555
REMARK  20 active torsions:
REMARK  status: ('A' for Active; 'I' for Inactive)
REMARK    1  A    between atoms: C3_3  and  C7_7 
REMARK    2  A    between atoms: C4_4  and  C27_27 
REMARK    3  A    between atoms: C7_7  and  C8_8 
REMARK    4  A    between atoms: C8_8  and  C9_9 
REMARK    5  A    between atoms: C9_9  and  C10_10 
REMARK    6  A    between atoms: C10_10  and  C11_11 
REMARK    7  A    between atoms: C11_11  and  C12_12 
REMARK    8  A    between atoms: C12_12  and  C13_13 
REMARK    9  A    between atoms: C13_13  and  C14_14 
REMARK   10  A    between atoms: C14_14  and  C15_15 
REMARK   11  A    between atoms: C15_15  and  C16_16 
REMARK       I    between atoms: C16_16  and  N17_17 
REMARK   12  A    between atoms: N17_17  and  C18_18 
REMARK   13  A    between atoms: C18_18  and  C20_20 
REMARK   14  A    between atoms: C18_18  and  C21_21 
REMARK   15  A    between atoms: C20_20  and  C23_23 
REMARK       I    between atoms: C21_21  and  N22_22 
REMARK   16  A    between atoms: N22_22  and  O32_32 
REMARK   17  A    between atoms: C23_23  and  C24_24 
REMARK   18  A    between atoms: C24_24  and  C25_25 
REMARK   19  A    between atoms: C25_25  and  N26_26 
REMARK   20  A    between atoms: C27_27  and  N28_28 
REMARK       I    between atoms: N28_28  and  C29_29 
REMARK       I    between atoms: C29_29  and  N30_30 
ROOT
ATOM      1  C12 FA4 d          28.678   3.628  14.484  0.00  0.00    -0.065 C 
ATOM      2  H15 FA4 d          28.469   4.584  13.982  0.00  0.00     0.033 H 
ATOM      3  H16 FA4 d          29.422   3.064  13.902  0.00  0.00     0.033 H 
ENDROOT
BRANCH   1   4
ATOM      4  C11 FA4 d          27.383   2.813  14.538  0.00  0.00    -0.065 C 
ATOM      5  H13 FA4 d          27.233   2.321  13.565  0.00  0.00     0.033 H 
ATOM      6  H14 FA4 d          27.479   2.048  15.324  0.00  0.00     0.033 H 
BRANCH   4   7
ATOM      7  C10 FA4 d          26.162   3.683  14.845  0.00  0.00    -0.065 C 
ATOM      8  H11 FA4 d          25.378   3.045  15.279  0.00  0.00     0.033 H 
ATOM      9  H12 FA4 d          26.455   4.451  15.575  0.00  0.00     0.033 H 
BRANCH   7  10
ATOM     10  C9  FA4 d          25.591   4.382  13.607  0.00  0.00    -0.065 C 
ATOM     11  H9  FA4 d          25.757   5.465  13.706  0.00  0.00     0.033 H 
ATOM     12  H10 FA4 d          26.120   4.009  12.718  0.00  0.00     0.033 H 
BRANCH  10  13
ATOM     13  C8  FA4 d          24.094   4.132  13.425  0.00  0.00    -0.061 C 
ATOM     14  H7  FA4 d          23.956   3.163  12.923  0.00  0.00     0.033 H 
ATOM     15  H8  FA4 d          23.618   4.102  14.417  0.00  0.00     0.033 H 
BRANCH  13  16
ATOM     16  C7  FA4 d          23.413   5.225  12.584  0.00  0.00    -0.040 C 
ATOM     17  H5  FA4 d          24.166   5.975  12.302  0.00  0.00     0.040 H 
ATOM     18  H6  FA4 d          22.997   4.764  11.675  0.00  0.00     0.040 H 
BRANCH  16  19
ATOM     19  C3  FA4 d          22.299   5.912  13.332  0.00  0.00    -0.050 A 
ATOM     20  C2  FA4 d          22.589   7.088  14.101  0.00  0.00    -0.076 A 
ATOM     21  C1  FA4 d          21.556   7.760  14.821  0.00  0.00    -0.082 A 
ATOM     22  H2  FA4 d          23.602   7.470  14.136  0.00  0.00     0.084 H 
ATOM     23  C6  FA4 d          20.210   7.271  14.794  0.00  0.00    -0.082 A 
ATOM     24  H1  FA4 d          21.792   8.650  15.394  0.00  0.00     0.083 H 
ATOM     25  C5  FA4 d          19.892   6.095  14.031  0.00  0.00    -0.075 A 
ATOM     26  H4  FA4 d          19.433   7.786  15.349  0.00  0.00     0.083 H 
ATOM     27  C4  FA4 d          20.922   5.405  13.298  0.00  0.00    -0.034 A 
ATOM     28  H3  FA4 d          18.873   5.726  14.006  0.00  0.00     0.084 H 
BRANCH  27  29
ATOM     29  C27 FA4 d          20.493   4.177  12.515  0.00  0.00     0.033 C 
ATOM     30  H37 FA4 d          21.014   4.168  11.547  0.00  0.00     0.072 H 
ATOM     31  H38 FA4 d          19.407   4.220  12.346  0.00  0.00     0.072 H 
BRANCH  29  32
ATOM     32  N28 FA4 d          20.816   2.943  13.244  0.00  0.00    -0.223 N 
ATOM     33  C29 FA4 d          21.060   1.769  12.565  0.00  0.00     0.665 C 
ATOM     34  N30 FA4 d          21.864   0.858  13.101  0.00  0.00    -0.235 N 
ATOM     35  N31 FA4 d          20.503   1.529  11.368  0.00  0.00    -0.235 N 
ATOM     36  H40 FA4 d          22.052  -0.023  12.600  0.00  0.00     0.174 HD
ATOM     37  H41 FA4 d          22.301   1.032  14.017  0.00  0.00     0.174 HD
ATOM     38  H42 FA4 d          19.878   2.227  10.942  0.00  0.00     0.174 HD
ATOM     39  H43 FA4 d          20.701   0.646  10.876  0.00  0.00     0.174 HD
ATOM     40  H39 FA4 d          20.861   2.957  14.273  0.00  0.00     0.178 HD
ENDBRANCH  29  32
ENDBRANCH  27  29
ENDBRANCH  16  19
ENDBRANCH  13  16
ENDBRANCH  10  13
ENDBRANCH   7  10
ENDBRANCH   4   7
ENDBRANCH   1   4
BRANCH   1  41
ATOM     41  C13 FA4 d          29.262   3.920  15.861  0.00  0.00    -0.065 C 
ATOM     42  H17 FA4 d          29.887   3.069  16.167  0.00  0.00     0.033 H 
ATOM     43  H18 FA4 d          28.434   4.043  16.575  0.00  0.00     0.033 H 
BRANCH  41  44
ATOM     44  C14 FA4 d          30.120   5.190  15.883  0.00  0.00    -0.057 C 
ATOM     45  H19 FA4 d          30.593   5.272  16.873  0.00  0.00     0.033 H 
ATOM     46  H20 FA4 d          29.462   6.057  15.718  0.00  0.00     0.033 H 
BRANCH  44  47
ATOM     47  C15 FA4 d          31.219   5.209  14.820  0.00  0.00     0.009 C 
ATOM     48  H21 FA4 d          30.790   5.545  13.864  0.00  0.00     0.047 H 
ATOM     49  H22 FA4 d          31.625   4.193  14.703  0.00  0.00     0.047 H 
BRANCH  47  50
ATOM     50  C16 FA4 d          32.355   6.160  15.223  0.00  0.00     0.218 C 
ATOM     51  N17 FA4 d          32.468   7.184  14.349  0.00  0.00    -0.348 N 
ATOM     52  H23 FA4 d          31.850   7.225  13.564  0.00  0.00     0.163 HD
ATOM     53  O19 FA4 d          33.039   5.965  16.231  0.00  0.00    -0.274 OA
BRANCH  51  54
ATOM     54  C18 FA4 d          33.462   8.226  14.520  0.00  0.00     0.091 C 
ATOM     55  H24 FA4 d          34.268   7.865  15.175  0.00  0.00     0.087 H 
BRANCH  54  56
ATOM     56  C20 FA4 d          32.771   9.423  15.178  0.00  0.00    -0.038 C 
ATOM     57  H25 FA4 d          31.683   9.288  15.087  0.00  0.00     0.036 H 
ATOM     58  H26 FA4 d          33.073  10.336  14.643  0.00  0.00     0.036 H 
BRANCH  56  59
ATOM     59  C23 FA4 d          33.113   9.594  16.654  0.00  0.00    -0.061 C 
ATOM     60  H28 FA4 d          33.384  10.644  16.837  0.00  0.00     0.033 H 
ATOM     61  H29 FA4 d          33.968   8.947  16.899  0.00  0.00     0.033 H 
BRANCH  59  62
ATOM     62  C24 FA4 d          31.937   9.223  17.557  0.00  0.00    -0.043 C 
ATOM     63  H30 FA4 d          31.852   9.975  18.354  0.00  0.00     0.035 H 
ATOM     64  H31 FA4 d          32.131   8.236  18.003  0.00  0.00     0.035 H 
BRANCH  62  65
ATOM     65  C25 FA4 d          30.611   9.164  16.795  0.00  0.00     0.080 C 
ATOM     66  H32 FA4 d          30.489   8.155  16.377  0.00  0.00     0.075 H 
ATOM     67  H33 FA4 d          30.643   9.899  15.976  0.00  0.00     0.075 H 
BRANCH  65  68
ATOM     68  N26 FA4 d          29.465   9.460  17.645  0.00  0.00    -0.079 N 
ATOM     69  H34 FA4 d          28.946  10.230  17.253  0.00  0.00     0.274 HD
ATOM     70  H35 FA4 d          29.786   9.706  18.568  0.00  0.00     0.274 HD
ATOM     71  H36 FA4 d          28.870   8.649  17.701  0.00  0.00     0.274 HD
ENDBRANCH  65  68
ENDBRANCH  62  65
ENDBRANCH  59  62
ENDBRANCH  56  59
ENDBRANCH  54  56
BRANCH  54  72
ATOM     72  C21 FA4 d          34.065   8.609  13.156  0.00  0.00     0.263 C 
ATOM     73  N22 FA4 d          34.544   9.860  13.106  0.00  0.00    -0.236 N 
ATOM     74  H27 FA4 d          34.490  10.453  13.909  0.00  0.00     0.197 HD
ATOM     75  O33 FA4 d          34.094   7.813  12.223  0.00  0.00    -0.269 OA
BRANCH  73  76
ATOM     76  O32 FA4 d          35.121  10.329  11.922  0.00  0.00    -0.287 OA
ATOM     77  H44 FA4 d          36.062  10.200  11.957  0.00  0.00     0.244 HD
ENDBRANCH  73  76
ENDBRANCH  54  72
ENDBRANCH  51  54
ENDBRANCH  47  50
ENDBRANCH  44  47
ENDBRANCH  41  44
ENDBRANCH   1  41
TORSDOF 20
ENDMDL
MODEL 5
REMARK VINA RESULT:      -7.0      2.448      3.786
REMARK  20 active torsions:
REMARK  status: ('A' for Active; 'I' for Inactive)
REMARK    1  A    between atoms: C3_3  and  C7_7 
REMARK    2  A    between atoms: C4_4  and  C27_27 
REMARK    3  A    between atoms: C7_7  and  C8_8 
REMARK    4  A    between atoms: C8_8  and  C9_9 
REMARK    5  A    between atoms: C9_9  and  C10_10 
REMARK    6  A    between atoms: C10_10  and  C11_11 
REMARK    7  A    between atoms: C11_11  and  C12_12 
REMARK    8  A    between atoms: C12_12  and  C13_13 
REMARK    9  A    between atoms: C13_13  and  C14_14 
REMARK   10  A    between atoms: C14_14  and  C15_15 
REMARK   11  A    between atoms: C15_15  and  C16_16 
REMARK       I    between atoms: C16_16  and  N17_17 
REMARK   12  A    between atoms: N17_17  and  C18_18 
REMARK   13  A    between atoms: C18_18  and  C20_20 
REMARK   14  A    between atoms: C18_18  and  C21_21 
REMARK   15  A    between atoms: C20_20  and  C23_23 
REMARK       I    between atoms: C21_21  and  N22_22 
REMARK   16  A    between atoms: N22_22  and  O32_32 
REMARK   17  A    between atoms: C23_23  and  C24_24 
REMARK   18  A    between atoms: C24_24  and  C25_25 
REMARK   19  A    between atoms: C25_25  and  N26_26 
REMARK   20  A    between atoms: C27_27  and  N28_28 
REMARK       I    between atoms: N28_28  and  C29_29 
REMARK       I    between atoms: C29_29  and  N30_30 
ROOT
ATOM      1  C12 FA4 d          30.352   6.393  15.396  0.00  0.00    -0.065 C 
ATOM      2  H15 FA4 d          29.845   6.339  14.421  0.00  0.00     0.033 H 
ATOM      3  H16 FA4 d          31.384   6.028  15.293  0.00  0.00     0.033 H 
ENDROOT
BRANCH   1   4
ATOM      4  C11 FA4 d          29.610   5.484  16.380  0.00  0.00    -0.065 C 
ATOM      5  H13 FA4 d          30.195   5.418  17.310  0.00  0.00     0.033 H 
ATOM      6  H14 FA4 d          28.626   5.925  16.596  0.00  0.00     0.033 H 
BRANCH   4   7
ATOM      7  C10 FA4 d          29.406   4.072  15.825  0.00  0.00    -0.065 C 
ATOM      8  H11 FA4 d          30.391   3.593  15.719  0.00  0.00     0.033 H 
ATOM      9  H12 FA4 d          28.796   3.501  16.540  0.00  0.00     0.033 H 
BRANCH   7  10
ATOM     10  C9  FA4 d          28.705   4.052  14.464  0.00  0.00    -0.065 C 
ATOM     11  H9  FA4 d          29.338   4.581  13.735  0.00  0.00     0.033 H 
ATOM     12  H10 FA4 d          28.578   3.006  14.149  0.00  0.00     0.033 H 
BRANCH  10  13
ATOM     13  C8  FA4 d          27.332   4.724  14.496  0.00  0.00    -0.061 C 
ATOM     14  H7  FA4 d          26.844   4.483  15.452  0.00  0.00     0.033 H 
ATOM     15  H8  FA4 d          27.470   5.813  14.418  0.00  0.00     0.033 H 
BRANCH  13  16
ATOM     16  C7  FA4 d          26.422   4.258  13.347  0.00  0.00    -0.040 C 
ATOM     17  H5  FA4 d          26.087   5.141  12.781  0.00  0.00     0.040 H 
ATOM     18  H6  FA4 d          26.999   3.596  12.685  0.00  0.00     0.040 H 
BRANCH  16  19
ATOM     19  C3  FA4 d          25.209   3.512  13.843  0.00  0.00    -0.050 A 
ATOM     20  C2  FA4 d          25.386   2.351  14.667  0.00  0.00    -0.076 A 
ATOM     21  C1  FA4 d          24.258   1.623  15.152  0.00  0.00    -0.082 A 
ATOM     22  H2  FA4 d          26.387   2.023  14.924  0.00  0.00     0.084 H 
ATOM     23  C6  FA4 d          22.927   2.034  14.821  0.00  0.00    -0.082 A 
ATOM     24  H1  FA4 d          24.410   0.751  15.777  0.00  0.00     0.083 H 
ATOM     25  C5  FA4 d          22.722   3.195  13.997  0.00  0.00    -0.075 A 
ATOM     26  H4  FA4 d          22.077   1.472  15.189  0.00  0.00     0.083 H 
ATOM     27  C4  FA4 d          23.848   3.941  13.501  0.00  0.00    -0.034 A 
ATOM     28  H3  FA4 d          21.715   3.510  13.749  0.00  0.00     0.084 H 
BRANCH  27  29
ATOM     29  C27 FA4 d          23.536   5.156  12.644  0.00  0.00     0.033 C 
ATOM     30  H37 FA4 d          22.592   4.983  12.107  0.00  0.00     0.072 H 
ATOM     31  H38 FA4 d          24.349   5.301  11.918  0.00  0.00     0.072 H 
BRANCH  29  32
ATOM     32  N28 FA4 d          23.406   6.366  13.466  0.00  0.00    -0.223 N 
ATOM     33  C29 FA4 d          22.190   7.003  13.590  0.00  0.00     0.665 C 
ATOM     34  N30 FA4 d          21.921   7.690  14.695  0.00  0.00    -0.235 N 
ATOM     35  N31 FA4 d          21.269   6.940  12.618  0.00  0.00    -0.235 N 
ATOM     36  H40 FA4 d          21.015   8.169  14.797  0.00  0.00     0.174 HD
ATOM     37  H41 FA4 d          22.619   7.742  15.451  0.00  0.00     0.174 HD
ATOM     38  H42 FA4 d          21.466   6.411  11.756  0.00  0.00     0.174 HD
ATOM     39  H43 FA4 d          20.365   7.421  12.732  0.00  0.00     0.174 HD
ATOM     40  H39 FA4 d          24.232   6.742  13.954  0.00  0.00     0.178 HD
ENDBRANCH  29  32
ENDBRANCH  27  29
ENDBRANCH  16  19
ENDBRANCH  13  16
ENDBRANCH  10  13
ENDBRANCH   7  10
ENDBRANCH   4   7
ENDBRANCH   1   4
BRANCH   1  41
ATOM     41  C13 FA4 d          30.394   7.850  15.840  0.00  0.00    -0.065 C 
ATOM     42  H17 FA4 d          30.589   7.883  16.922  0.00  0.00     0.033 H 
ATOM     43  H18 FA4 d          29.418   8.311  15.629  0.00  0.00     0.033 H 
BRANCH  41  44
ATOM     44  C14 FA4 d          31.482   8.657  15.122  0.00  0.00    -0.057 C 
ATOM     45  H19 FA4 d          32.262   8.915  15.854  0.00  0.00     0.033 H 
ATOM     46  H20 FA4 d          31.028   9.578  14.728  0.00  0.00     0.033 H 
BRANCH  44  47
ATOM     47  C15 FA4 d          32.139   7.908  13.962  0.00  0.00     0.009 C 
ATOM     48  H21 FA4 d          31.428   7.847  13.124  0.00  0.00     0.047 H 
ATOM     49  H22 FA4 d          32.404   6.892  14.292  0.00  0.00     0.047 H 
BRANCH  47  50
ATOM     50  C16 FA4 d          33.409   8.631  13.493  0.00  0.00     0.218 C 
ATOM     51  N17 FA4 d          33.588   9.789  14.165  0.00  0.00    -0.348 N 
ATOM     52  H23 FA4 d          32.918  10.060  14.857  0.00  0.00     0.163 HD
ATOM     53  O19 FA4 d          34.136   8.164  12.613  0.00  0.00    -0.274 OA
BRANCH  51  54
ATOM     54  C18 FA4 d          34.728  10.650  13.912  0.00  0.00     0.091 C 
ATOM     55  H24 FA4 d          34.848  10.793  12.828  0.00  0.00     0.087 H 
BRANCH  54  56
ATOM     56  C20 FA4 d          35.969   9.953  14.472  0.00  0.00    -0.038 C 
ATOM     57  H25 FA4 d          35.824   8.866  14.390  0.00  0.00     0.036 H 
ATOM     58  H26 FA4 d          36.074  10.230  15.532  0.00  0.00     0.036 H 
BRANCH  56  59
ATOM     59  C23 FA4 d          37.260  10.322  13.749  0.00  0.00    -0.061 C 
ATOM     60  H28 FA4 d          38.076   9.691  14.134  0.00  0.00     0.033 H 
ATOM     61  H29 FA4 d          37.490  11.379  13.947  0.00  0.00     0.033 H 
BRANCH  59  62
ATOM     62  C24 FA4 d          37.145  10.114  12.239  0.00  0.00    -0.043 C 
ATOM     63  H30 FA4 d          36.173   9.649  12.020  0.00  0.00     0.035 H 
ATOM     64  H31 FA4 d          37.954   9.444  11.912  0.00  0.00     0.035 H 
BRANCH  62  65
ATOM     65  C25 FA4 d          37.248  11.426  11.460  0.00  0.00     0.080 C 
ATOM     66  H32 FA4 d          36.246  11.871  11.384  0.00  0.00     0.075 H 
ATOM     67  H33 FA4 d          37.630  11.208  10.451  0.00  0.00     0.075 H 
BRANCH  65  68
ATOM     68  N26 FA4 d          38.139  12.387  12.099  0.00  0.00    -0.079 N 
ATOM     69  H34 FA4 d          37.660  13.267  12.209  0.00  0.00     0.274 HD
ATOM     70  H35 FA4 d          38.957  12.520  11.526  0.00  0.00     0.274 HD
ATOM     71  H36 FA4 d          38.414  12.040  13.004  0.00  0.00     0.274 HD
ENDBRANCH  65  68
ENDBRANCH  62  65
ENDBRANCH  59  62
ENDBRANCH  56  59
ENDBRANCH  54  56
BRANCH  54  72
ATOM     72  C21 FA4 d          34.509  12.022  14.574  0.00  0.00     0.263 C 
ATOM     73  N22 FA4 d          35.013  13.049  13.874  0.00  0.00    -0.236 N 
ATOM     74  H27 FA4 d          35.481  12.886  13.006  0.00  0.00     0.197 HD
ATOM     75  O33 FA4 d          33.917  12.130  15.643  0.00  0.00    -0.269 OA
BRANCH  73  76
ATOM     76  O32 FA4 d          34.877  14.350  14.368  0.00  0.00    -0.287 OA
ATOM     77  H44 FA4 d          35.007  14.971  13.660  0.00  0.00     0.244 HD
ENDBRANCH  73  76
ENDBRANCH  54  72
ENDBRANCH  51  54
ENDBRANCH  47  50
ENDBRANCH  44  47
ENDBRANCH  41  44
ENDBRANCH   1  41
TORSDOF 20
ENDMDL
MODEL 6
REMARK VINA RESULT:      -6.9      2.103      3.312
REMARK  20 active torsions:
REMARK  status: ('A' for Active; 'I' for Inactive)
REMARK    1  A    between atoms: C3_3  and  C7_7 
REMARK    2  A    between atoms: C4_4  and  C27_27 
REMARK    3  A    between atoms: C7_7  and  C8_8 
REMARK    4  A    between atoms: C8_8  and  C9_9 
REMARK    5  A    between atoms: C9_9  and  C10_10 
REMARK    6  A    between atoms: C10_10  and  C11_11 
REMARK    7  A    between atoms: C11_11  and  C12_12 
REMARK    8  A    between atoms: C12_12  and  C13_13 
REMARK    9  A    between atoms: C13_13  and  C14_14 
REMARK   10  A    between atoms: C14_14  and  C15_15 
REMARK   11  A    between atoms: C15_15  and  C16_16 
REMARK       I    between atoms: C16_16  and  N17_17 
REMARK   12  A    between atoms: N17_17  and  C18_18 
REMARK   13  A    between atoms: C18_18  and  C20_20 
REMARK   14  A    between atoms: C18_18  and  C21_21 
REMARK   15  A    between atoms: C20_20  and  C23_23 
REMARK       I    between atoms: C21_21  and  N22_22 
REMARK   16  A    between atoms: N22_22  and  O32_32 
REMARK   17  A    between atoms: C23_23  and  C24_24 
REMARK   18  A    between atoms: C24_24  and  C25_25 
REMARK   19  A    between atoms: C25_25  and  N26_26 
REMARK   20  A    between atoms: C27_27  and  N28_28 
REMARK       I    between atoms: N28_28  and  C29_29 
REMARK       I    between atoms: C29_29  and  N30_30 
ROOT
ATOM      1  C12 FA4 d          29.262   3.968  14.485  0.00  0.00    -0.065 C 
ATOM      2  H15 FA4 d          29.469   4.879  13.902  0.00  0.00     0.033 H 
ATOM      3  H16 FA4 d          29.894   3.147  14.119  0.00  0.00     0.033 H 
ENDROOT
BRANCH   1   4
ATOM      4  C11 FA4 d          27.794   3.582  14.279  0.00  0.00    -0.065 C 
ATOM      5  H13 FA4 d          27.745   2.752  13.557  0.00  0.00     0.033 H 
ATOM      6  H14 FA4 d          27.376   3.255  15.242  0.00  0.00     0.033 H 
BRANCH   4   7
ATOM      7  C10 FA4 d          26.956   4.747  13.747  0.00  0.00    -0.065 C 
ATOM      8  H11 FA4 d          26.592   5.334  14.604  0.00  0.00     0.033 H 
ATOM      9  H12 FA4 d          27.597   5.379  13.116  0.00  0.00     0.033 H 
BRANCH   7  10
ATOM     10  C9  FA4 d          25.750   4.296  12.919  0.00  0.00    -0.065 C 
ATOM     11  H9  FA4 d          25.771   4.822  11.952  0.00  0.00     0.033 H 
ATOM     12  H10 FA4 d          25.825   3.212  12.749  0.00  0.00     0.033 H 
BRANCH  10  13
ATOM     13  C8  FA4 d          24.416   4.591  13.607  0.00  0.00    -0.061 C 
ATOM     14  H7  FA4 d          23.998   3.647  13.984  0.00  0.00     0.033 H 
ATOM     15  H8  FA4 d          24.598   5.275  14.449  0.00  0.00     0.033 H 
BRANCH  13  16
ATOM     16  C7  FA4 d          23.394   5.239  12.657  0.00  0.00    -0.040 C 
ATOM     17  H5  FA4 d          23.895   6.039  12.090  0.00  0.00     0.040 H 
ATOM     18  H6  FA4 d          23.025   4.473  11.959  0.00  0.00     0.040 H 
BRANCH  16  19
ATOM     19  C3  FA4 d          22.221   5.830  13.396  0.00  0.00    -0.050 A 
ATOM     20  C2  FA4 d          22.312   7.167  13.907  0.00  0.00    -0.076 A 
ATOM     21  C1  FA4 d          21.218   7.754  14.612  0.00  0.00    -0.082 A 
ATOM     22  H2  FA4 d          23.221   7.738  13.758  0.00  0.00     0.084 H 
ATOM     23  C6  FA4 d          20.009   7.017  14.826  0.00  0.00    -0.082 A 
ATOM     24  H1  FA4 d          21.303   8.767  14.988  0.00  0.00     0.083 H 
ATOM     25  C5  FA4 d          19.891   5.675  14.323  0.00  0.00    -0.075 A 
ATOM     26  H4  FA4 d          19.185   7.469  15.367  0.00  0.00     0.083 H 
ATOM     27  C4  FA4 d          20.984   5.069  13.609  0.00  0.00    -0.034 A 
ATOM     28  H3  FA4 d          18.974   5.118  14.481  0.00  0.00     0.084 H 
BRANCH  27  29
ATOM     29  C27 FA4 d          20.768   3.651  13.109  0.00  0.00     0.033 C 
ATOM     30  H37 FA4 d          21.289   3.526  12.149  0.00  0.00     0.072 H 
ATOM     31  H38 FA4 d          19.691   3.482  12.965  0.00  0.00     0.072 H 
BRANCH  29  32
ATOM     32  N28 FA4 d          21.284   2.666  14.068  0.00  0.00    -0.223 N 
ATOM     33  C29 FA4 d          22.319   1.823  13.721  0.00  0.00     0.665 C 
ATOM     34  N30 FA4 d          23.136   1.369  14.664  0.00  0.00    -0.235 N 
ATOM     35  N31 FA4 d          22.519   1.456  12.447  0.00  0.00    -0.235 N 
ATOM     36  H40 FA4 d          23.912   0.738  14.413  0.00  0.00     0.174 HD
ATOM     37  H41 FA4 d          22.995   1.647  15.645  0.00  0.00     0.174 HD
ATOM     38  H42 FA4 d          21.892   1.802  11.707  0.00  0.00     0.174 HD
ATOM     39  H43 FA4 d          23.300   0.828  12.208  0.00  0.00     0.174 HD
ATOM     40  H39 FA4 d          20.869   2.604  15.009  0.00  0.00     0.178 HD
ENDBRANCH  29  32
ENDBRANCH  27  29
ENDBRANCH  16  19
ENDBRANCH  13  16
ENDBRANCH  10  13
ENDBRANCH   7  10
ENDBRANCH   4   7
ENDBRANCH   1   4
BRANCH   1  41
ATOM     41  C13 FA4 d          29.612   4.237  15.944  0.00  0.00    -0.065 C 
ATOM     42  H17 FA4 d          30.688   4.056  16.087  0.00  0.00     0.033 H 
ATOM     43  H18 FA4 d          29.037   3.545  16.577  0.00  0.00     0.033 H 
BRANCH  41  44
ATOM     44  C14 FA4 d          29.295   5.673  16.374  0.00  0.00    -0.057 C 
ATOM     45  H19 FA4 d          29.874   5.899  17.282  0.00  0.00     0.033 H 
ATOM     46  H20 FA4 d          28.221   5.740  16.599  0.00  0.00     0.033 H 
BRANCH  44  47
ATOM     47  C15 FA4 d          29.633   6.722  15.314  0.00  0.00     0.009 C 
ATOM     48  H21 FA4 d          28.796   7.432  15.230  0.00  0.00     0.047 H 
ATOM     49  H22 FA4 d          29.787   6.220  14.347  0.00  0.00     0.047 H 
BRANCH  47  50
ATOM     50  C16 FA4 d          30.908   7.490  15.690  0.00  0.00     0.218 C 
ATOM     51  N17 FA4 d          31.538   7.959  14.590  0.00  0.00    -0.348 N 
ATOM     52  H23 FA4 d          31.150   7.769  13.689  0.00  0.00     0.163 HD
ATOM     53  O19 FA4 d          31.259   7.633  16.864  0.00  0.00    -0.274 OA
BRANCH  51  54
ATOM     54  C18 FA4 d          32.763   8.730  14.684  0.00  0.00     0.091 C 
ATOM     55  H24 FA4 d          33.304   8.455  15.601  0.00  0.00     0.087 H 
BRANCH  54  56
ATOM     56  C20 FA4 d          32.375  10.209  14.748  0.00  0.00    -0.038 C 
ATOM     57  H25 FA4 d          31.286  10.289  14.611  0.00  0.00     0.036 H 
ATOM     58  H26 FA4 d          32.887  10.739  13.931  0.00  0.00     0.036 H 
BRANCH  56  59
ATOM     59  C23 FA4 d          32.743  10.884  16.065  0.00  0.00    -0.061 C 
ATOM     60  H28 FA4 d          32.725  10.132  16.868  0.00  0.00     0.033 H 
ATOM     61  H29 FA4 d          32.004  11.669  16.282  0.00  0.00     0.033 H 
BRANCH  59  62
ATOM     62  C24 FA4 d          34.134  11.516  16.010  0.00  0.00    -0.043 C 
ATOM     63  H30 FA4 d          34.602  11.256  15.050  0.00  0.00     0.035 H 
ATOM     64  H31 FA4 d          34.739  11.110  16.835  0.00  0.00     0.035 H 
BRANCH  62  65
ATOM     65  C25 FA4 d          34.089  13.040  16.137  0.00  0.00     0.080 C 
ATOM     66  H32 FA4 d          35.113  13.411  16.288  0.00  0.00     0.075 H 
ATOM     67  H33 FA4 d          33.471  13.303  17.009  0.00  0.00     0.075 H 
BRANCH  65  68
ATOM     68  N26 FA4 d          33.528  13.683  14.955  0.00  0.00    -0.079 N 
ATOM     69  H34 FA4 d          33.795  13.166  14.133  0.00  0.00     0.274 HD
ATOM     70  H35 FA4 d          33.878  14.626  14.888  0.00  0.00     0.274 HD
ATOM     71  H36 FA4 d          32.523  13.702  15.028  0.00  0.00     0.274 HD
ENDBRANCH  65  68
ENDBRANCH  62  65
ENDBRANCH  59  62
ENDBRANCH  56  59
ENDBRANCH  54  56
BRANCH  54  72
ATOM     72  C21 FA4 d          33.662   8.440  13.469  0.00  0.00     0.263 C 
ATOM     73  N22 FA4 d          33.655   7.157  13.082  0.00  0.00    -0.236 N 
ATOM     74  H27 FA4 d          33.100   6.485  13.572  0.00  0.00     0.197 HD
ATOM     75  O33 FA4 d          34.307   9.330  12.924  0.00  0.00    -0.269 OA
BRANCH  73  76
ATOM     76  O32 FA4 d          34.430   6.764  11.987  0.00  0.00    -0.287 OA
ATOM     77  H44 FA4 d          35.110   7.411  11.834  0.00  0.00     0.244 HD
ENDBRANCH  73  76
ENDBRANCH  54  72
ENDBRANCH  51  54
ENDBRANCH  47  50
ENDBRANCH  44  47
ENDBRANCH  41  44
ENDBRANCH   1  41
TORSDOF 20
ENDMDL
MODEL 7
REMARK VINA RESULT:      -6.8      2.169      2.555
REMARK  20 active torsions:
REMARK  status: ('A' for Active; 'I' for Inactive)
REMARK    1  A    between atoms: C3_3  and  C7_7 
REMARK    2  A    between atoms: C4_4  and  C27_27 
REMARK    3  A    between atoms: C7_7  and  C8_8 
REMARK    4  A    between atoms: C8_8  and  C9_9 
REMARK    5  A    between atoms: C9_9  and  C10_10 
REMARK    6  A    between atoms: C10_10  and  C11_11 
REMARK    7  A    between atoms: C11_11  and  C12_12 
REMARK    8  A    between atoms: C12_12  and  C13_13 
REMARK    9  A    between atoms: C13_13  and  C14_14 
REMARK   10  A    between atoms: C14_14  and  C15_15 
REMARK   11  A    between atoms: C15_15  and  C16_16 
REMARK       I    between atoms: C16_16  and  N17_17 
REMARK   12  A    between atoms: N17_17  and  C18_18 
REMARK   13  A    between atoms: C18_18  and  C20_20 
REMARK   14  A    between atoms: C18_18  and  C21_21 
REMARK   15  A    between atoms: C20_20  and  C23_23 
REMARK       I    between atoms: C21_21  and  N22_22 
REMARK   16  A    between atoms: N22_22  and  O32_32 
REMARK   17  A    between atoms: C23_23  and  C24_24 
REMARK   18  A    between atoms: C24_24  and  C25_25 
REMARK   19  A    between atoms: C25_25  and  N26_26 
REMARK   20  A    between atoms: C27_27  and  N28_28 
REMARK       I    between atoms: N28_28  and  C29_29 
REMARK       I    between atoms: C29_29  and  N30_30 
ROOT
ATOM      1  C12 FA4 d          30.593   5.384  14.624  0.00  0.00    -0.065 C 
ATOM      2  H15 FA4 d          29.836   6.045  15.072  0.00  0.00     0.033 H 
ATOM      3  H16 FA4 d          30.623   5.544  13.537  0.00  0.00     0.033 H 
ENDROOT
BRANCH   1   4
ATOM      4  C11 FA4 d          30.189   3.931  14.891  0.00  0.00    -0.065 C 
ATOM      5  H13 FA4 d          29.891   3.466  13.940  0.00  0.00     0.033 H 
ATOM      6  H14 FA4 d          31.055   3.394  15.307  0.00  0.00     0.033 H 
BRANCH   4   7
ATOM      7  C10 FA4 d          29.024   3.824  15.878  0.00  0.00    -0.065 C 
ATOM      8  H11 FA4 d          28.956   2.783  16.227  0.00  0.00     0.033 H 
ATOM      9  H12 FA4 d          29.229   4.485  16.733  0.00  0.00     0.033 H 
BRANCH   7  10
ATOM     10  C9  FA4 d          27.677   4.223  15.268  0.00  0.00    -0.065 C 
ATOM     11  H9  FA4 d          26.935   4.305  16.076  0.00  0.00     0.033 H 
ATOM     12  H10 FA4 d          27.790   5.198  14.772  0.00  0.00     0.033 H 
BRANCH  10  13
ATOM     13  C8  FA4 d          27.170   3.209  14.241  0.00  0.00    -0.061 C 
ATOM     14  H7  FA4 d          28.024   2.851  13.647  0.00  0.00     0.033 H 
ATOM     15  H8  FA4 d          26.715   2.362  14.776  0.00  0.00     0.033 H 
BRANCH  13  16
ATOM     16  C7  FA4 d          26.123   3.810  13.287  0.00  0.00    -0.040 C 
ATOM     17  H5  FA4 d          26.069   4.895  13.460  0.00  0.00     0.040 H 
ATOM     18  H6  FA4 d          26.439   3.619  12.251  0.00  0.00     0.040 H 
BRANCH  16  19
ATOM     19  C3  FA4 d          24.753   3.217  13.495  0.00  0.00    -0.050 A 
ATOM     20  C2  FA4 d          24.631   1.922  14.099  0.00  0.00    -0.076 A 
ATOM     21  C1  FA4 d          23.346   1.333  14.308  0.00  0.00    -0.082 A 
ATOM     22  H2  FA4 d          25.522   1.383  14.399  0.00  0.00     0.084 H 
ATOM     23  C6  FA4 d          22.155   2.023  13.913  0.00  0.00    -0.082 A 
ATOM     24  H1  FA4 d          23.273   0.355  14.769  0.00  0.00     0.083 H 
ATOM     25  C5  FA4 d          22.250   3.323  13.307  0.00  0.00    -0.075 A 
ATOM     26  H4  FA4 d          21.185   1.566  14.072  0.00  0.00     0.083 H 
ATOM     27  C4  FA4 d          23.536   3.931  13.090  0.00  0.00    -0.034 A 
ATOM     28  H3  FA4 d          21.348   3.848  13.012  0.00  0.00     0.084 H 
BRANCH  27  29
ATOM     29  C27 FA4 d          23.539   5.308  12.449  0.00  0.00     0.033 C 
ATOM     30  H37 FA4 d          22.700   5.377  11.742  0.00  0.00     0.072 H 
ATOM     31  H38 FA4 d          24.486   5.450  11.908  0.00  0.00     0.072 H 
BRANCH  29  32
ATOM     32  N28 FA4 d          23.402   6.364  13.460  0.00  0.00    -0.223 N 
ATOM     33  C29 FA4 d          22.207   7.033  13.621  0.00  0.00     0.665 C 
ATOM     34  N30 FA4 d          21.891   7.532  14.810  0.00  0.00    -0.235 N 
ATOM     35  N31 FA4 d          21.352   7.185  12.598  0.00  0.00    -0.235 N 
ATOM     36  H40 FA4 d          21.000   8.033  14.939  0.00  0.00     0.174 HD
ATOM     37  H41 FA4 d          22.537   7.419  15.604  0.00  0.00     0.174 HD
ATOM     38  H42 FA4 d          21.586   6.802  11.671  0.00  0.00     0.174 HD
ATOM     39  H43 FA4 d          20.463   7.684  12.740  0.00  0.00     0.174 HD
ATOM     40  H39 FA4 d          24.206   6.608  14.056  0.00  0.00     0.178 HD
ENDBRANCH  29  32
ENDBRANCH  27  29
ENDBRANCH  16  19
ENDBRANCH  13  16
ENDBRANCH  10  13
ENDBRANCH   7  10
ENDBRANCH   4   7
ENDBRANCH   1   4
BRANCH   1  41
ATOM     41  C13 FA4 d          31.956   5.744  15.205  0.00  0.00    -0.065 C 
ATOM     42  H17 FA4 d          32.638   5.987  14.378  0.00  0.00     0.033 H 
ATOM     43  H18 FA4 d          32.344   4.875  15.757  0.00  0.00     0.033 H 
BRANCH  41  44
ATOM     44  C14 FA4 d          31.895   6.943  16.158  0.00  0.00    -0.057 C 
ATOM     45  H19 FA4 d          31.527   6.592  17.134  0.00  0.00     0.033 H 
ATOM     46  H20 FA4 d          31.190   7.680  15.745  0.00  0.00     0.033 H 
BRANCH  44  47
ATOM     47  C15 FA4 d          33.244   7.632  16.370  0.00  0.00     0.009 C 
ATOM     48  H21 FA4 d          33.743   7.752  15.396  0.00  0.00     0.047 H 
ATOM     49  H22 FA4 d          33.867   7.008  17.027  0.00  0.00     0.047 H 
BRANCH  47  50
ATOM     50  C16 FA4 d          33.058   9.012  17.014  0.00  0.00     0.218 C 
ATOM     51  N17 FA4 d          33.707   9.969  16.314  0.00  0.00    -0.348 N 
ATOM     52  H23 FA4 d          34.224   9.710  15.498  0.00  0.00     0.163 HD
ATOM     53  O19 FA4 d          32.388   9.168  18.038  0.00  0.00    -0.274 OA
BRANCH  51  54
ATOM     54  C18 FA4 d          33.674  11.363  16.715  0.00  0.00     0.091 C 
ATOM     55  H24 FA4 d          33.668  11.431  17.812  0.00  0.00     0.087 H 
BRANCH  54  56
ATOM     56  C20 FA4 d          32.383  11.973  16.163  0.00  0.00    -0.038 C 
ATOM     57  H25 FA4 d          32.378  13.047  16.397  0.00  0.00     0.036 H 
ATOM     58  H26 FA4 d          31.529  11.485  16.657  0.00  0.00     0.036 H 
BRANCH  56  59
ATOM     59  C23 FA4 d          32.223  11.809  14.655  0.00  0.00    -0.061 C 
ATOM     60  H28 FA4 d          31.654  10.889  14.455  0.00  0.00     0.033 H 
ATOM     61  H29 FA4 d          33.220  11.730  14.197  0.00  0.00     0.033 H 
BRANCH  59  62
ATOM     62  C24 FA4 d          31.484  12.993  14.030  0.00  0.00    -0.043 C 
ATOM     63  H30 FA4 d          30.684  13.311  14.714  0.00  0.00     0.035 H 
ATOM     64  H31 FA4 d          31.043  12.670  13.076  0.00  0.00     0.035 H 
BRANCH  62  65
ATOM     65  C25 FA4 d          32.407  14.184  13.766  0.00  0.00     0.080 C 
ATOM     66  H32 FA4 d          32.505  14.766  14.694  0.00  0.00     0.075 H 
ATOM     67  H33 FA4 d          31.956  14.813  12.984  0.00  0.00     0.075 H 
BRANCH  65  68
ATOM     68  N26 FA4 d          33.736  13.775  13.329  0.00  0.00    -0.079 N 
ATOM     69  H34 FA4 d          33.859  12.790  13.502  0.00  0.00     0.274 HD
ATOM     70  H35 FA4 d          34.432  14.295  13.840  0.00  0.00     0.274 HD
ATOM     71  H36 FA4 d          33.836  13.958  12.343  0.00  0.00     0.274 HD
ENDBRANCH  65  68
ENDBRANCH  62  65
ENDBRANCH  59  62
ENDBRANCH  56  59
ENDBRANCH  54  56
BRANCH  54  72
ATOM     72  C21 FA4 d          34.915  12.097  16.176  0.00  0.00     0.263 C 
ATOM     73  N22 FA4 d          35.852  11.280  15.673  0.00  0.00    -0.236 N 
ATOM     74  H27 FA4 d          35.712  10.290  15.673  0.00  0.00     0.197 HD
ATOM     75  O33 FA4 d          35.000  13.320  16.211  0.00  0.00    -0.269 OA
BRANCH  73  76
ATOM     76  O32 FA4 d          37.028  11.825  15.149  0.00  0.00    -0.287 OA
ATOM     77  H44 FA4 d          37.674  11.136  15.044  0.00  0.00     0.244 HD
ENDBRANCH  73  76
ENDBRANCH  54  72
ENDBRANCH  51  54
ENDBRANCH  47  50
ENDBRANCH  44  47
ENDBRANCH  41  44
ENDBRANCH   1  41
TORSDOF 20
ENDMDL
MODEL 8
REMARK VINA RESULT:      -6.4      2.311      3.723
REMARK  20 active torsions:
REMARK  status: ('A' for Active; 'I' for Inactive)
REMARK    1  A    between atoms: C3_3  and  C7_7 
REMARK    2  A    between atoms: C4_4  and  C27_27 
REMARK    3  A    between atoms: C7_7  and  C8_8 
REMARK    4  A    between atoms: C8_8  and  C9_9 
REMARK    5  A    between atoms: C9_9  and  C10_10 
REMARK    6  A    between atoms: C10_10  and  C11_11 
REMARK    7  A    between atoms: C11_11  and  C12_12 
REMARK    8  A    between atoms: C12_12  and  C13_13 
REMARK    9  A    between atoms: C13_13  and  C14_14 
REMARK   10  A    between atoms: C14_14  and  C15_15 
REMARK   11  A    between atoms: C15_15  and  C16_16 
REMARK       I    between atoms: C16_16  and  N17_17 
REMARK   12  A    between atoms: N17_17  and  C18_18 
REMARK   13  A    between atoms: C18_18  and  C20_20 
REMARK   14  A    between atoms: C18_18  and  C21_21 
REMARK   15  A    between atoms: C20_20  and  C23_23 
REMARK       I    between atoms: C21_21  and  N22_22 
REMARK   16  A    between atoms: N22_22  and  O32_32 
REMARK   17  A    between atoms: C23_23  and  C24_24 
REMARK   18  A    between atoms: C24_24  and  C25_25 
REMARK   19  A    between atoms: C25_25  and  N26_26 
REMARK   20  A    between atoms: C27_27  and  N28_28 
REMARK       I    between atoms: N28_28  and  C29_29 
REMARK       I    between atoms: C29_29  and  N30_30 
ROOT
ATOM      1  C12 FA4 d          31.300   6.279  14.515  0.00  0.00    -0.065 C 
ATOM      2  H15 FA4 d          30.548   6.872  15.057  0.00  0.00     0.033 H 
ATOM      3  H16 FA4 d          31.135   6.377  13.433  0.00  0.00     0.033 H 
ENDROOT
BRANCH   1   4
ATOM      4  C11 FA4 d          31.129   4.807  14.902  0.00  0.00    -0.065 C 
ATOM      5  H13 FA4 d          30.935   4.222  13.990  0.00  0.00     0.033 H 
ATOM      6  H14 FA4 d          32.059   4.454  15.373  0.00  0.00     0.033 H 
BRANCH   4   7
ATOM      7  C10 FA4 d          29.970   4.594  15.879  0.00  0.00    -0.065 C 
ATOM      8  H11 FA4 d          29.964   3.539  16.190  0.00  0.00     0.033 H 
ATOM      9  H12 FA4 d          30.134   5.234  16.759  0.00  0.00     0.033 H 
BRANCH   7  10
ATOM     10  C9  FA4 d          28.603   4.933  15.279  0.00  0.00    -0.065 C 
ATOM     11  H9  FA4 d          27.946   5.299  16.083  0.00  0.00     0.033 H 
ATOM     12  H10 FA4 d          28.735   5.723  14.525  0.00  0.00     0.033 H 
BRANCH  10  13
ATOM     13  C8  FA4 d          27.935   3.729  14.613  0.00  0.00    -0.061 C 
ATOM     14  H7  FA4 d          28.680   3.212  13.991  0.00  0.00     0.033 H 
ATOM     15  H8  FA4 d          27.574   3.047  15.398  0.00  0.00     0.033 H 
BRANCH  13  16
ATOM     16  C7  FA4 d          26.745   4.133  13.726  0.00  0.00    -0.040 C 
ATOM     17  H5  FA4 d          26.583   5.217  13.822  0.00  0.00     0.040 H 
ATOM     18  H6  FA4 d          26.985   3.889  12.680  0.00  0.00     0.040 H 
BRANCH  16  19
ATOM     19  C3  FA4 d          25.475   3.417  14.111  0.00  0.00    -0.050 A 
ATOM     20  C2  FA4 d          25.536   2.327  15.042  0.00  0.00    -0.076 A 
ATOM     21  C1  FA4 d          24.351   1.630  15.425  0.00  0.00    -0.082 A 
ATOM     22  H2  FA4 d          26.491   2.030  15.458  0.00  0.00     0.084 H 
ATOM     23  C6  FA4 d          23.078   2.001  14.884  0.00  0.00    -0.082 A 
ATOM     24  H1  FA4 d          24.415   0.811  16.133  0.00  0.00     0.083 H 
ATOM     25  C5  FA4 d          22.989   3.090  13.950  0.00  0.00    -0.075 A 
ATOM     26  H4  FA4 d          22.185   1.462  15.178  0.00  0.00     0.083 H 
ATOM     27  C4  FA4 d          24.174   3.805  13.553  0.00  0.00    -0.034 A 
ATOM     28  H3  FA4 d          22.025   3.375  13.543  0.00  0.00     0.084 H 
BRANCH  27  29
ATOM     29  C27 FA4 d          23.984   4.945  12.567  0.00  0.00     0.033 C 
ATOM     30  H37 FA4 d          24.257   4.597  11.560  0.00  0.00     0.072 H 
ATOM     31  H38 FA4 d          24.636   5.781  12.856  0.00  0.00     0.072 H 
BRANCH  29  32
ATOM     32  N28 FA4 d          22.590   5.407  12.554  0.00  0.00    -0.223 N 
ATOM     33  C29 FA4 d          22.259   6.657  13.033  0.00  0.00     0.665 C 
ATOM     34  N30 FA4 d          21.201   7.289  12.538  0.00  0.00    -0.235 N 
ATOM     35  N31 FA4 d          22.989   7.250  13.989  0.00  0.00    -0.235 N 
ATOM     36  H40 FA4 d          20.947   8.223  12.890  0.00  0.00     0.174 HD
ATOM     37  H41 FA4 d          20.635   6.844  11.801  0.00  0.00     0.174 HD
ATOM     38  H42 FA4 d          23.812   6.770  14.380  0.00  0.00     0.174 HD
ATOM     39  H43 FA4 d          22.727   8.186  14.331  0.00  0.00     0.174 HD
ATOM     40  H39 FA4 d          21.852   4.792  12.182  0.00  0.00     0.178 HD
ENDBRANCH  29  32
ENDBRANCH  27  29
ENDBRANCH  16  19
ENDBRANCH  13  16
ENDBRANCH  10  13
ENDBRANCH   7  10
ENDBRANCH   4   7
ENDBRANCH   1   4
BRANCH   1  41
ATOM     41  C13 FA4 d          32.682   6.830  14.847  0.00  0.00    -0.065 C 
ATOM     42  H17 FA4 d          32.970   7.550  14.068  0.00  0.00     0.033 H 
ATOM     43  H18 FA4 d          33.399   5.996  14.859  0.00  0.00     0.033 H 
BRANCH  41  44
ATOM     44  C14 FA4 d          32.727   7.535  16.207  0.00  0.00    -0.057 C 
ATOM     45  H19 FA4 d          32.942   6.783  16.981  0.00  0.00     0.033 H 
ATOM     46  H20 FA4 d          31.743   7.986  16.397  0.00  0.00     0.033 H 
BRANCH  44  47
ATOM     47  C15 FA4 d          33.787   8.634  16.296  0.00  0.00     0.009 C 
ATOM     48  H21 FA4 d          34.330   8.689  15.340  0.00  0.00     0.047 H 
ATOM     49  H22 FA4 d          34.492   8.390  17.105  0.00  0.00     0.047 H 
BRANCH  47  50
ATOM     50  C16 FA4 d          33.140   9.996  16.586  0.00  0.00     0.218 C 
ATOM     51  N17 FA4 d          32.193  10.292  15.669  0.00  0.00    -0.348 N 
ATOM     52  H23 FA4 d          32.015   9.646  14.926  0.00  0.00     0.163 HD
ATOM     53  O19 FA4 d          33.480  10.685  17.551  0.00  0.00    -0.274 OA
BRANCH  51  54
ATOM     54  C18 FA4 d          31.427  11.522  15.733  0.00  0.00     0.091 C 
ATOM     55  H24 FA4 d          30.773  11.596  14.852  0.00  0.00     0.087 H 
BRANCH  54  56
ATOM     56  C20 FA4 d          32.421  12.687  15.725  0.00  0.00    -0.038 C 
ATOM     57  H25 FA4 d          33.296  12.401  16.327  0.00  0.00     0.036 H 
ATOM     58  H26 FA4 d          31.933  13.562  16.180  0.00  0.00     0.036 H 
BRANCH  56  59
ATOM     59  C23 FA4 d          32.902  13.075  14.331  0.00  0.00    -0.061 C 
ATOM     60  H28 FA4 d          32.735  14.152  14.184  0.00  0.00     0.033 H 
ATOM     61  H29 FA4 d          32.325  12.509  13.585  0.00  0.00     0.033 H 
BRANCH  59  62
ATOM     62  C24 FA4 d          34.388  12.775  14.139  0.00  0.00    -0.043 C 
ATOM     63  H30 FA4 d          34.634  11.848  14.678  0.00  0.00     0.035 H 
ATOM     64  H31 FA4 d          34.974  13.607  14.557  0.00  0.00     0.035 H 
BRANCH  62  65
ATOM     65  C25 FA4 d          34.764  12.601  12.667  0.00  0.00     0.080 C 
ATOM     66  H32 FA4 d          34.539  13.536  12.133  0.00  0.00     0.075 H 
ATOM     67  H33 FA4 d          34.161  11.783  12.244  0.00  0.00     0.075 H 
BRANCH  65  68
ATOM     68  N26 FA4 d          36.175  12.286  12.483  0.00  0.00    -0.079 N 
ATOM     69  H34 FA4 d          36.470  11.637  13.194  0.00  0.00     0.274 HD
ATOM     70  H35 FA4 d          36.719  13.132  12.553  0.00  0.00     0.274 HD
ATOM     71  H36 FA4 d          36.312  11.873  11.574  0.00  0.00     0.274 HD
ENDBRANCH  65  68
ENDBRANCH  62  65
ENDBRANCH  59  62
ENDBRANCH  56  59
ENDBRANCH  54  56
BRANCH  54  72
ATOM     72  C21 FA4 d          30.558  11.537  17.003  0.00  0.00     0.263 C 
ATOM     73  N22 FA4 d          29.755  10.469  17.123  0.00  0.00    -0.236 N 
ATOM     74  H27 FA4 d          29.756   9.756  16.422  0.00  0.00     0.197 HD
ATOM     75  O33 FA4 d          30.625  12.454  17.814  0.00  0.00    -0.269 OA
BRANCH  73  76
ATOM     76  O32 FA4 d          28.916  10.362  18.236  0.00  0.00    -0.287 OA
ATOM     77  H44 FA4 d          28.850  11.208  18.663  0.00  0.00     0.244 HD
ENDBRANCH  73  76
ENDBRANCH  54  72
ENDBRANCH  51  54
ENDBRANCH  47  50
ENDBRANCH  44  47
ENDBRANCH  41  44
ENDBRANCH   1  41
TORSDOF 20
ENDMDL
MODEL 9
REMARK VINA RESULT:      -6.0      4.236     10.646
REMARK  20 active torsions:
REMARK  status: ('A' for Active; 'I' for Inactive)
REMARK    1  A    between atoms: C3_3  and  C7_7 
REMARK    2  A    between atoms: C4_4  and  C27_27 
REMARK    3  A    between atoms: C7_7  and  C8_8 
REMARK    4  A    between atoms: C8_8  and  C9_9 
REMARK    5  A    between atoms: C9_9  and  C10_10 
REMARK    6  A    between atoms: C10_10  and  C11_11 
REMARK    7  A    between atoms: C11_11  and  C12_12 
REMARK    8  A    between atoms: C12_12  and  C13_13 
REMARK    9  A    between atoms: C13_13  and  C14_14 
REMARK   10  A    between atoms: C14_14  and  C15_15 
REMARK   11  A    between atoms: C15_15  and  C16_16 
REMARK       I    between atoms: C16_16  and  N17_17 
REMARK   12  A    between atoms: N17_17  and  C18_18 
REMARK   13  A    between atoms: C18_18  and  C20_20 
REMARK   14  A    between atoms: C18_18  and  C21_21 
REMARK   15  A    between atoms: C20_20  and  C23_23 
REMARK       I    between atoms: C21_21  and  N22_22 
REMARK   16  A    between atoms: N22_22  and  O32_32 
REMARK   17  A    between atoms: C23_23  and  C24_24 
REMARK   18  A    between atoms: C24_24  and  C25_25 
REMARK   19  A    between atoms: C25_25  and  N26_26 
REMARK   20  A    between atoms: C27_27  and  N28_28 
REMARK       I    between atoms: N28_28  and  C29_29 
REMARK       I    between atoms: C29_29  and  N30_30 
ROOT
ATOM      1  C12 FA4 d          33.029   9.666  14.863  0.00  0.00    -0.065 C 
ATOM      2  H15 FA4 d          33.152   8.872  14.111  0.00  0.00     0.033 H 
ATOM      3  H16 FA4 d          33.491  10.594  14.495  0.00  0.00     0.033 H 
ENDROOT
BRANCH   1   4
ATOM      4  C11 FA4 d          33.750   9.239  16.145  0.00  0.00    -0.065 C 
ATOM      5  H13 FA4 d          33.116   8.519  16.684  0.00  0.00     0.033 H 
ATOM      6  H14 FA4 d          34.701   8.757  15.872  0.00  0.00     0.033 H 
BRANCH   4   7
ATOM      7  C10 FA4 d          34.045  10.424  17.067  0.00  0.00    -0.065 C 
ATOM      8  H11 FA4 d          35.028  10.265  17.536  0.00  0.00     0.033 H 
ATOM      9  H12 FA4 d          34.073  11.341  16.460  0.00  0.00     0.033 H 
BRANCH   7  10
ATOM     10  C9  FA4 d          33.001  10.605  18.173  0.00  0.00    -0.065 C 
ATOM     11  H9  FA4 d          32.172   9.904  17.992  0.00  0.00     0.033 H 
ATOM     12  H10 FA4 d          33.470  10.375  19.141  0.00  0.00     0.033 H 
BRANCH  10  13
ATOM     13  C8  FA4 d          32.438  12.025  18.228  0.00  0.00    -0.061 C 
ATOM     14  H7  FA4 d          31.391  12.003  17.889  0.00  0.00     0.033 H 
ATOM     15  H8  FA4 d          32.478  12.381  19.269  0.00  0.00     0.033 H 
BRANCH  13  16
ATOM     16  C7  FA4 d          33.224  13.005  17.341  0.00  0.00    -0.040 C 
ATOM     17  H5  FA4 d          33.357  13.950  17.889  0.00  0.00     0.040 H 
ATOM     18  H6  FA4 d          34.209  12.569  17.119  0.00  0.00     0.040 H 
BRANCH  16  19
ATOM     19  C3  FA4 d          32.517  13.294  16.041  0.00  0.00    -0.050 A 
ATOM     20  C2  FA4 d          31.098  13.506  16.044  0.00  0.00    -0.076 A 
ATOM     21  C1  FA4 d          30.400  13.780  14.829  0.00  0.00    -0.082 A 
ATOM     22  H2  FA4 d          30.550  13.457  16.978  0.00  0.00     0.084 H 
ATOM     23  C6  FA4 d          31.102  13.844  13.583  0.00  0.00    -0.082 A 
ATOM     24  H1  FA4 d          29.328  13.942  14.851  0.00  0.00     0.083 H 
ATOM     25  C5  FA4 d          32.524  13.637  13.552  0.00  0.00    -0.075 A 
ATOM     26  H4  FA4 d          30.562  14.049  12.665  0.00  0.00     0.083 H 
ATOM     27  C4  FA4 d          33.244  13.360  14.768  0.00  0.00    -0.034 A 
ATOM     28  H3  FA4 d          33.057  13.689  12.610  0.00  0.00     0.084 H 
BRANCH  27  29
ATOM     29  C27 FA4 d          34.744  13.160  14.641  0.00  0.00     0.033 C 
ATOM     30  H37 FA4 d          35.132  12.748  15.583  0.00  0.00     0.072 H 
ATOM     31  H38 FA4 d          35.220  14.132  14.443  0.00  0.00     0.072 H 
BRANCH  29  32
ATOM     32  N28 FA4 d          35.066  12.238  13.544  0.00  0.00    -0.223 N 
ATOM     33  C29 FA4 d          36.373  12.038  13.154  0.00  0.00     0.665 C 
ATOM     34  N30 FA4 d          36.726  10.875  12.619  0.00  0.00    -0.235 N 
ATOM     35  N31 FA4 d          37.299  12.996  13.309  0.00  0.00    -0.235 N 
ATOM     36  H40 FA4 d          37.701  10.718  12.325  0.00  0.00     0.174 HD
ATOM     37  H41 FA4 d          36.025  10.131  12.498  0.00  0.00     0.174 HD
ATOM     38  H42 FA4 d          37.037  13.902  13.723  0.00  0.00     0.174 HD
ATOM     39  H43 FA4 d          38.271  12.826  13.014  0.00  0.00     0.174 HD
ATOM     40  H39 FA4 d          34.307  11.734  13.063  0.00  0.00     0.178 HD
ENDBRANCH  29  32
ENDBRANCH  27  29
ENDBRANCH  16  19
ENDBRANCH  13  16
ENDBRANCH  10  13
ENDBRANCH   7  10
ENDBRANCH   4   7
ENDBRANCH   1   4
BRANCH   1  41
ATOM     41  C13 FA4 d          31.539   9.913  15.067  0.00  0.00    -0.065 C 
ATOM     42  H17 FA4 d          31.139  10.412  14.172  0.00  0.00     0.033 H 
ATOM     43  H18 FA4 d          31.407  10.568  15.941  0.00  0.00     0.033 H 
BRANCH  41  44
ATOM     44  C14 FA4 d          30.751   8.620  15.299  0.00  0.00    -0.057 C 
ATOM     45  H19 FA4 d          31.452   7.773  15.249  0.00  0.00     0.033 H 
ATOM     46  H20 FA4 d          30.000   8.522  14.501  0.00  0.00     0.033 H 
BRANCH  44  47
ATOM     47  C15 FA4 d          30.031   8.571  16.647  0.00  0.00     0.009 C 
ATOM     48  H21 FA4 d          29.283   9.378  16.686  0.00  0.00     0.047 H 
ATOM     49  H22 FA4 d          30.766   8.713  17.454  0.00  0.00     0.047 H 
BRANCH  47  50
ATOM     50  C16 FA4 d          29.325   7.222  16.842  0.00  0.00     0.218 C 
ATOM     51  N17 FA4 d          29.211   6.556  15.672  0.00  0.00    -0.348 N 
ATOM     52  H23 FA4 d          29.564   6.977  14.836  0.00  0.00     0.163 HD
ATOM     53  O19 FA4 d          28.937   6.844  17.951  0.00  0.00    -0.274 OA
BRANCH  51  54
ATOM     54  C18 FA4 d          28.590   5.247  15.595  0.00  0.00     0.091 C 
ATOM     55  H24 FA4 d          28.228   4.952  16.590  0.00  0.00     0.087 H 
BRANCH  54  56
ATOM     56  C20 FA4 d          29.658   4.255  15.129  0.00  0.00    -0.038 C 
ATOM     57  H25 FA4 d          29.943   4.511  14.098  0.00  0.00     0.036 H 
ATOM     58  H26 FA4 d          29.224   3.244  15.150  0.00  0.00     0.036 H 
BRANCH  56  59
ATOM     59  C23 FA4 d          30.916   4.256  15.991  0.00  0.00    -0.061 C 
ATOM     60  H28 FA4 d          30.987   3.293  16.518  0.00  0.00     0.033 H 
ATOM     61  H29 FA4 d          30.843   5.072  16.725  0.00  0.00     0.033 H 
BRANCH  59  62
ATOM     62  C24 FA4 d          32.178   4.456  15.153  0.00  0.00    -0.043 C 
ATOM     63  H30 FA4 d          31.956   4.188  14.110  0.00  0.00     0.035 H 
ATOM     64  H31 FA4 d          32.968   3.795  15.540  0.00  0.00     0.035 H 
BRANCH  62  65
ATOM     65  C25 FA4 d          32.683   5.900  15.192  0.00  0.00     0.080 C 
ATOM     66  H32 FA4 d          33.585   5.941  15.819  0.00  0.00     0.075 H 
ATOM     67  H33 FA4 d          31.900   6.535  15.633  0.00  0.00     0.075 H 
BRANCH  65  68
ATOM     68  N26 FA4 d          33.011   6.413  13.868  0.00  0.00    -0.079 N 
ATOM     69  H34 FA4 d          32.283   7.038  13.560  0.00  0.00     0.274 HD
ATOM     70  H35 FA4 d          33.090   5.645  13.220  0.00  0.00     0.274 HD
ATOM     71  H36 FA4 d          33.886   6.911  13.908  0.00  0.00     0.274 HD
ENDBRANCH  65  68
ENDBRANCH  62  65
ENDBRANCH  59  62
ENDBRANCH  56  59
ENDBRANCH  54  56
BRANCH  54  72
ATOM     72  C21 FA4 d          27.398   5.285  14.622  0.00  0.00     0.263 C 
ATOM     73  N22 FA4 d          26.452   4.373  14.887  0.00  0.00    -0.236 N 
ATOM     74  H27 FA4 d          26.558   3.745  15.658  0.00  0.00     0.197 HD
ATOM     75  O33 FA4 d          27.348   6.097  13.703  0.00  0.00    -0.269 OA
BRANCH  73  76
ATOM     76  O32 FA4 d          25.315   4.307  14.077  0.00  0.00    -0.287 OA
ATOM     77  H44 FA4 d          25.521   4.652  13.216  0.00  0.00     0.244 HD
ENDBRANCH  73  76
ENDBRANCH  54  72
ENDBRANCH  51  54
ENDBRANCH  47  50
ENDBRANCH  44  47
ENDBRANCH  41  44
ENDBRANCH   1  41
TORSDOF 20
ENDMDL
MODEL 10
REMARK VINA RESULT:      -6.0      2.939     10.803
REMARK  20 active torsions:
REMARK  status: ('A' for Active; 'I' for Inactive)
REMARK    1  A    between atoms: C3_3  and  C7_7 
REMARK    2  A    between atoms: C4_4  and  C27_27 
REMARK    3  A    between atoms: C7_7  and  C8_8 
REMARK    4  A    between atoms: C8_8  and  C9_9 
REMARK    5  A    between atoms: C9_9  and  C10_10 
REMARK    6  A    between atoms: C10_10  and  C11_11 
REMARK    7  A    between atoms: C11_11  and  C12_12 
REMARK    8  A    between atoms: C12_12  and  C13_13 
REMARK    9  A    between atoms: C13_13  and  C14_14 
REMARK   10  A    between atoms: C14_14  and  C15_15 
REMARK   11  A    between atoms: C15_15  and  C16_16 
REMARK       I    between atoms: C16_16  and  N17_17 
REMARK   12  A    between atoms: N17_17  and  C18_18 
REMARK   13  A    between atoms: C18_18  and  C20_20 
REMARK   14  A    between atoms: C18_18  and  C21_21 
REMARK   15  A    between atoms: C20_20  and  C23_23 
REMARK       I    between atoms: C21_21  and  N22_22 
REMARK   16  A    between atoms: N22_22  and  O32_32 
REMARK   17  A    between atoms: C23_23  and  C24_24 
REMARK   18  A    between atoms: C24_24  and  C25_25 
REMARK   19  A    between atoms: C25_25  and  N26_26 
REMARK   20  A    between atoms: C27_27  and  N28_28 
REMARK       I    between atoms: N28_28  and  C29_29 
REMARK       I    between atoms: C29_29  and  N30_30 
ROOT
ATOM      1  C12 FA4 d          31.042  12.183  16.956  0.00  0.00    -0.065 C 
ATOM      2  H15 FA4 d          31.198  11.886  15.908  0.00  0.00     0.033 H 
ATOM      3  H16 FA4 d          30.300  12.992  17.001  0.00  0.00     0.033 H 
ENDROOT
BRANCH   1   4
ATOM      4  C11 FA4 d          32.368  12.706  17.516  0.00  0.00    -0.065 C 
ATOM      5  H13 FA4 d          32.440  13.784  17.308  0.00  0.00     0.033 H 
ATOM      6  H14 FA4 d          32.382  12.541  18.604  0.00  0.00     0.033 H 
BRANCH   4   7
ATOM      7  C10 FA4 d          33.578  12.003  16.895  0.00  0.00    -0.065 C 
ATOM      8  H11 FA4 d          34.077  11.411  17.677  0.00  0.00     0.033 H 
ATOM      9  H12 FA4 d          33.222  11.333  16.099  0.00  0.00     0.033 H 
BRANCH   7  10
ATOM     10  C9  FA4 d          34.599  12.974  16.294  0.00  0.00    -0.065 C 
ATOM     11  H9  FA4 d          34.738  13.814  16.991  0.00  0.00     0.033 H 
ATOM     12  H10 FA4 d          35.553  12.444  16.162  0.00  0.00     0.033 H 
BRANCH  10  13
ATOM     13  C8  FA4 d          34.158  13.531  14.939  0.00  0.00    -0.061 C 
ATOM     14  H7  FA4 d          33.275  14.169  15.091  0.00  0.00     0.033 H 
ATOM     15  H8  FA4 d          34.979  14.132  14.521  0.00  0.00     0.033 H 
BRANCH  13  16
ATOM     16  C7  FA4 d          33.798  12.422  13.936  0.00  0.00    -0.040 C 
ATOM     17  H5  FA4 d          33.636  11.484  14.488  0.00  0.00     0.040 H 
ATOM     18  H6  FA4 d          32.873  12.704  13.413  0.00  0.00     0.040 H 
BRANCH  16  19
ATOM     19  C3  FA4 d          34.885  12.200  12.914  0.00  0.00    -0.050 A 
ATOM     20  C2  FA4 d          34.950  13.050  11.761  0.00  0.00    -0.076 A 
ATOM     21  C1  FA4 d          35.966  12.865  10.775  0.00  0.00    -0.082 A 
ATOM     22  H2  FA4 d          34.219  13.841  11.635  0.00  0.00     0.084 H 
ATOM     23  C6  FA4 d          36.938  11.823  10.917  0.00  0.00    -0.082 A 
ATOM     24  H1  FA4 d          36.002  13.519   9.912  0.00  0.00     0.083 H 
ATOM     25  C5  FA4 d          36.896  10.958  12.065  0.00  0.00    -0.075 A 
ATOM     26  H4  FA4 d          37.703  11.687  10.161  0.00  0.00     0.083 H 
ATOM     27  C4  FA4 d          35.879  11.131  13.068  0.00  0.00    -0.034 A 
ATOM     28  H3  FA4 d          37.635  10.171  12.175  0.00  0.00     0.084 H 
BRANCH  27  29
ATOM     29  C27 FA4 d          35.916  10.176  14.248  0.00  0.00     0.033 C 
ATOM     30  H37 FA4 d          35.116  10.444  14.953  0.00  0.00     0.072 H 
ATOM     31  H38 FA4 d          36.890  10.263  14.750  0.00  0.00     0.072 H 
BRANCH  29  32
ATOM     32  N28 FA4 d          35.725   8.786  13.812  0.00  0.00    -0.223 N 
ATOM     33  C29 FA4 d          34.513   8.370  13.304  0.00  0.00     0.665 C 
ATOM     34  N30 FA4 d          34.479   7.373  12.426  0.00  0.00    -0.235 N 
ATOM     35  N31 FA4 d          33.365   8.955  13.676  0.00  0.00    -0.235 N 
ATOM     36  H40 FA4 d          33.577   7.056  12.042  0.00  0.00     0.174 HD
ATOM     37  H41 FA4 d          35.354   6.918  12.130  0.00  0.00     0.174 HD
ATOM     38  H42 FA4 d          33.378   9.729  14.355  0.00  0.00     0.174 HD
ATOM     39  H43 FA4 d          32.470   8.631  13.282  0.00  0.00     0.174 HD
ATOM     40  H39 FA4 d          36.504   8.117  13.885  0.00  0.00     0.178 HD
ENDBRANCH  29  32
ENDBRANCH  27  29
ENDBRANCH  16  19
ENDBRANCH  13  16
ENDBRANCH  10  13
ENDBRANCH   7  10
ENDBRANCH   4   7
ENDBRANCH   1   4
BRANCH   1  41
ATOM     41  C13 FA4 d          30.498  10.983  17.724  0.00  0.00    -0.065 C 
ATOM     42  H17 FA4 d          29.559  11.276  18.215  0.00  0.00     0.033 H 
ATOM     43  H18 FA4 d          31.235  10.690  18.486  0.00  0.00     0.033 H 
BRANCH  41  44
ATOM     44  C14 FA4 d          30.222   9.777  16.819  0.00  0.00    -0.057 C 
ATOM     45  H19 FA4 d          31.186   9.375  16.473  0.00  0.00     0.033 H 
ATOM     46  H20 FA4 d          29.636  10.120  15.953  0.00  0.00     0.033 H 
BRANCH  44  47
ATOM     47  C15 FA4 d          29.449   8.653  17.510  0.00  0.00     0.009 C 
ATOM     48  H21 FA4 d          28.370   8.841  17.405  0.00  0.00     0.047 H 
ATOM     49  H22 FA4 d          29.717   8.635  18.577  0.00  0.00     0.047 H 
BRANCH  47  50
ATOM     50  C16 FA4 d          29.786   7.292  16.883  0.00  0.00     0.218 C 
ATOM     51  N17 FA4 d          29.399   7.241  15.590  0.00  0.00    -0.348 N 
ATOM     52  H23 FA4 d          28.950   8.037  15.184  0.00  0.00     0.163 HD
ATOM     53  O19 FA4 d          30.343   6.400  17.527  0.00  0.00    -0.274 OA
BRANCH  51  54
ATOM     54  C18 FA4 d          29.619   6.062  14.773  0.00  0.00     0.091 C 
ATOM     55  H24 FA4 d          29.105   6.180  13.809  0.00  0.00     0.087 H 
BRANCH  54  56
ATOM     56  C20 FA4 d          29.028   4.865  15.521  0.00  0.00    -0.038 C 
ATOM     57  H25 FA4 d          29.153   5.033  16.601  0.00  0.00     0.036 H 
ATOM     58  H26 FA4 d          29.582   3.962  15.224  0.00  0.00     0.036 H 
BRANCH  56  59
ATOM     59  C23 FA4 d          27.547   4.635  15.239  0.00  0.00    -0.061 C 
ATOM     60  H28 FA4 d          26.953   5.243  15.937  0.00  0.00     0.033 H 
ATOM     61  H29 FA4 d          27.316   3.570  15.393  0.00  0.00     0.033 H 
BRANCH  59  62
ATOM     62  C24 FA4 d          27.175   5.019  13.808  0.00  0.00    -0.043 C 
ATOM     63  H30 FA4 d          28.038   4.826  13.154  0.00  0.00     0.035 H 
ATOM     64  H31 FA4 d          26.929   6.091  13.783  0.00  0.00     0.035 H 
BRANCH  62  65
ATOM     65  C25 FA4 d          25.975   4.228  13.284  0.00  0.00     0.080 C 
ATOM     66  H32 FA4 d          25.802   3.369  13.948  0.00  0.00     0.075 H 
ATOM     67  H33 FA4 d          26.206   3.868  12.270  0.00  0.00     0.075 H 
BRANCH  65  68
ATOM     68  N26 FA4 d          24.758   5.028  13.230  0.00  0.00    -0.079 N 
ATOM     69  H34 FA4 d          24.984   5.965  12.938  0.00  0.00     0.274 HD
ATOM     70  H35 FA4 d          24.333   5.054  14.143  0.00  0.00     0.274 HD
ATOM     71  H36 FA4 d          24.115   4.618  12.571  0.00  0.00     0.274 HD
ENDBRANCH  65  68
ENDBRANCH  62  65
ENDBRANCH  59  62
ENDBRANCH  56  59
ENDBRANCH  54  56
BRANCH  54  72
ATOM     72  C21 FA4 d          31.125   5.873  14.515  0.00  0.00     0.263 C 
ATOM     73  N22 FA4 d          31.663   4.839  15.177  0.00  0.00    -0.236 N 
ATOM     74  H27 FA4 d          31.096   4.272  15.775  0.00  0.00     0.197 HD
ATOM     75  O33 FA4 d          31.742   6.616  13.759  0.00  0.00    -0.269 OA
BRANCH  73  76
ATOM     76  O32 FA4 d          33.024   4.559  15.025  0.00  0.00    -0.287 OA
ATOM     77  H44 FA4 d          33.415   5.200  14.442  0.00  0.00     0.244 HD
ENDBRANCH  73  76
ENDBRANCH  54  72
ENDBRANCH  51  54
ENDBRANCH  47  50
ENDBRANCH  44  47
ENDBRANCH  41  44
ENDBRANCH   1  41
TORSDOF 20
ENDMDL
