MODEL 1
REMARK VINA RESULT:      -8.5      0.000      0.000
REMARK  10 active torsions:
REMARK  status: ('A' for Active; 'I' for Inactive)
REMARK    1  A    between atoms: C10_2  and  C11_3 
REMARK    2  A    between atoms: C10_2  and  C9_13 
REMARK    3  A    between atoms: C14_6  and  C17_7 
REMARK    4  A    between atoms: C17_7  and  C18_8 
REMARK    5  A    between atoms: C17_7  and  C19_9 
REMARK    6  A    between atoms: C17_7  and  C20_10 
REMARK    7  A    between atoms: C9_13  and  C5_14 
REMARK    8  A    between atoms: C2_17  and  O2_18 
REMARK    9  A    between atoms: C1_19  and  O1_20 
REMARK   10  A    between atoms: C8_22  and  O8_23 
ROOT
ATOM      1  C9  HN4 d          28.151  66.491   8.476  0.00  0.00     0.022 C 
ATOM      2  H14 HN4 d          28.482  66.737   9.496  0.00  0.00     0.048 H 
ATOM      3  H15 HN4 d          28.165  67.400   7.856  0.00  0.00     0.048 H 
ENDROOT
BRANCH   1   4
ATOM      4  C10 HN4 d          26.717  65.970   8.543  0.00  0.00     0.161 C 
ATOM      5  O10 HN4 d          26.328  64.970   7.944  0.00  0.00    -0.292 OA
BRANCH   4   6
ATOM      6  C11 HN4 d          25.716  66.771   9.322  0.00  0.00     0.010 A 
ATOM      7  C12 HN4 d          26.126  67.773  10.200  0.00  0.00    -0.069 A 
ATOM      8  C13 HN4 d          25.182  68.527  10.904  0.00  0.00    -0.075 A 
ATOM      9  H1  HN4 d          27.183  67.970  10.339  0.00  0.00     0.085 H 
ATOM     10  C14 HN4 d          23.812  68.278  10.744  0.00  0.00    -0.051 A 
ATOM     11  H2  HN4 d          25.512  69.309  11.578  0.00  0.00     0.084 H 
ATOM     12  C15 HN4 d          23.413  67.274   9.860  0.00  0.00    -0.075 A 
ATOM     13  C16 HN4 d          24.350  66.515   9.156  0.00  0.00    -0.069 A 
ATOM     14  H12 HN4 d          22.356  67.079   9.719  0.00  0.00     0.084 H 
ATOM     15  H13 HN4 d          24.021  65.732   8.482  0.00  0.00     0.085 H 
BRANCH  10  16
ATOM     16  C17 HN4 d          22.808  69.111  11.524  0.00  0.00    -0.024 C 
BRANCH  16  17
ATOM     17  C18 HN4 d          23.115  70.594  11.311  0.00  0.00    -0.066 C 
ATOM     18  H3  HN4 d          23.189  70.802  10.233  0.00  0.00     0.028 H 
ATOM     19  H4  HN4 d          24.068  70.845  11.799  0.00  0.00     0.028 H 
ATOM     20  H5  HN4 d          22.308  71.202  11.746  0.00  0.00     0.028 H 
ENDBRANCH  16  17
BRANCH  16  21
ATOM     21  C19 HN4 d          21.377  68.902  11.016  0.00  0.00    -0.066 C 
ATOM     22  H6  HN4 d          21.131  67.831  11.043  0.00  0.00     0.028 H 
ATOM     23  H7  HN4 d          21.298  69.270   9.982  0.00  0.00     0.028 H 
ATOM     24  H8  HN4 d          20.676  69.456  11.657  0.00  0.00     0.028 H 
ENDBRANCH  16  21
BRANCH  16  25
ATOM     25  C20 HN4 d          22.915  68.740  13.004  0.00  0.00    -0.066 C 
ATOM     26  H9  HN4 d          23.773  68.066  13.152  0.00  0.00     0.028 H 
ATOM     27  H10 HN4 d          21.992  68.234  13.324  0.00  0.00     0.028 H 
ATOM     28  H11 HN4 d          23.059  69.652  13.601  0.00  0.00     0.028 H 
ENDBRANCH  16  25
ENDBRANCH  10  16
ENDBRANCH   4   6
ENDBRANCH   1   4
BRANCH   1  29
ATOM     29  C5  HN4 d          29.132  65.481   7.879  0.00  0.00     0.111 C 
ATOM     30  N4  HN4 d          30.540  65.743   8.286  0.00  0.00    -0.055 N 
ATOM     31  C3  HN4 d          30.808  65.850   9.747  0.00  0.00     0.110 C 
ATOM     32  C8A HN4 d          31.138  66.991   7.718  0.00  0.00     0.155 C 
ATOM     33  H17 HN4 d          31.070  64.960   7.937  0.00  0.00     0.281 HD
ATOM     34  C2  HN4 d          32.232  66.431   9.781  0.00  0.00     0.085 C 
ATOM     35  H18 HN4 d          30.769  64.864  10.232  0.00  0.00     0.080 H 
ATOM     36  H19 HN4 d          30.090  66.527  10.235  0.00  0.00     0.080 H 
ATOM     37  C1  HN4 d          32.502  67.055   8.405  0.00  0.00     0.092 C 
ATOM     38  H20 HN4 d          32.295  67.209  10.556  0.00  0.00     0.089 H 
ATOM     39  H22 HN4 d          32.832  68.100   8.505  0.00  0.00     0.090 H 
ATOM     40  C8  HN4 d          31.112  66.978   6.198  0.00  0.00     0.066 C 
ATOM     41  H24 HN4 d          30.548  67.863   8.038  0.00  0.00     0.093 H 
ATOM     42  C7  HN4 d          29.682  66.718   5.699  0.00  0.00    -0.037 C 
ATOM     43  H25 HN4 d          31.777  66.181   5.832  0.00  0.00     0.086 H 
ATOM     44  C6  HN4 d          29.105  65.446   6.336  0.00  0.00    -0.035 C 
ATOM     45  H27 HN4 d          29.697  66.598   4.605  0.00  0.00     0.036 H 
ATOM     46  H28 HN4 d          29.046  67.575   5.964  0.00  0.00     0.036 H 
ATOM     47  H29 HN4 d          28.061  65.329   6.005  0.00  0.00     0.036 H 
ATOM     48  H30 HN4 d          29.695  64.584   5.994  0.00  0.00     0.036 H 
ATOM     49  H16 HN4 d          28.842  64.487   8.251  0.00  0.00     0.085 H 
BRANCH  34  50
ATOM     50  O2  HN4 d          33.199  65.401  10.076  0.00  0.00    -0.391 OA
ATOM     51  H21 HN4 d          33.081  65.105  10.970  0.00  0.00     0.210 HD
ENDBRANCH  34  50
BRANCH  37  52
ATOM     52  O1  HN4 d          33.526  66.301   7.702  0.00  0.00    -0.391 OA
ATOM     53  H23 HN4 d          33.252  65.395   7.623  0.00  0.00     0.210 HD
ENDBRANCH  37  52
BRANCH  40  54
ATOM     54  O8  HN4 d          31.555  68.234   5.693  0.00  0.00    -0.393 OA
ATOM     55  H26 HN4 d          31.432  68.902   6.356  0.00  0.00     0.210 HD
ENDBRANCH  40  54
ENDBRANCH   1  29
TORSDOF 10
ENDMDL
MODEL 2
REMARK VINA RESULT:      -5.7      3.550      8.078
REMARK  10 active torsions:
REMARK  status: ('A' for Active; 'I' for Inactive)
REMARK    1  A    between atoms: C10_2  and  C11_3 
REMARK    2  A    between atoms: C10_2  and  C9_13 
REMARK    3  A    between atoms: C14_6  and  C17_7 
REMARK    4  A    between atoms: C17_7  and  C18_8 
REMARK    5  A    between atoms: C17_7  and  C19_9 
REMARK    6  A    between atoms: C17_7  and  C20_10 
REMARK    7  A    between atoms: C9_13  and  C5_14 
REMARK    8  A    between atoms: C2_17  and  O2_18 
REMARK    9  A    between atoms: C1_19  and  O1_20 
REMARK   10  A    between atoms: C8_22  and  O8_23 
ROOT
ATOM      1  C9  HN4 d          26.491  65.361  12.497  0.00  0.00     0.022 C 
ATOM      2  H14 HN4 d          26.350  64.406  13.024  0.00  0.00     0.048 H 
ATOM      3  H15 HN4 d          25.967  65.328  11.530  0.00  0.00     0.048 H 
ENDROOT
BRANCH   1   4
ATOM      4  C10 HN4 d          27.983  65.554  12.233  0.00  0.00     0.161 C 
ATOM      5  O10 HN4 d          28.832  65.599  13.122  0.00  0.00    -0.292 OA
BRANCH   4   6
ATOM      6  C11 HN4 d          28.422  65.778  10.816  0.00  0.00     0.010 A 
ATOM      7  C12 HN4 d          27.500  65.770   9.770  0.00  0.00    -0.069 A 
ATOM      8  C13 HN4 d          27.919  66.002   8.456  0.00  0.00    -0.075 A 
ATOM      9  H1  HN4 d          26.453  65.583   9.976  0.00  0.00     0.085 H 
ATOM     10  C14 HN4 d          29.271  66.235   8.173  0.00  0.00    -0.051 A 
ATOM     11  H2  HN4 d          27.192  66.001   7.651  0.00  0.00     0.084 H 
ATOM     12  C15 HN4 d          30.185  66.243   9.228  0.00  0.00    -0.075 A 
ATOM     13  C16 HN4 d          29.775  66.010  10.542  0.00  0.00    -0.069 A 
ATOM     14  H12 HN4 d          31.232  66.433   9.023  0.00  0.00     0.084 H 
ATOM     15  H13 HN4 d          30.501  66.009  11.347  0.00  0.00     0.085 H 
BRANCH  10  16
ATOM     16  C17 HN4 d          29.698  66.480   6.734  0.00  0.00    -0.024 C 
BRANCH  16  17
ATOM     17  C18 HN4 d          29.811  65.137   6.010  0.00  0.00    -0.066 C 
ATOM     18  H3  HN4 d          28.934  64.517   6.249  0.00  0.00     0.028 H 
ATOM     19  H4  HN4 d          30.726  64.620   6.336  0.00  0.00     0.028 H 
ATOM     20  H5  HN4 d          29.854  65.308   4.924  0.00  0.00     0.028 H 
ENDBRANCH  16  17
BRANCH  16  21
ATOM     21  C19 HN4 d          28.651  67.287   5.959  0.00  0.00    -0.066 C 
ATOM     22  H6  HN4 d          28.467  66.809   4.985  0.00  0.00     0.028 H 
ATOM     23  H7  HN4 d          29.021  68.311   5.800  0.00  0.00     0.028 H 
ATOM     24  H8  HN4 d          27.714  67.321   6.533  0.00  0.00     0.028 H 
ENDBRANCH  16  21
BRANCH  16  25
ATOM     25  C20 HN4 d          31.043  67.208   6.744  0.00  0.00    -0.066 C 
ATOM     26  H9  HN4 d          31.004  68.061   6.051  0.00  0.00     0.028 H 
ATOM     27  H10 HN4 d          31.838  66.515   6.427  0.00  0.00     0.028 H 
ATOM     28  H11 HN4 d          31.257  67.570   7.760  0.00  0.00     0.028 H 
ENDBRANCH  16  25
ENDBRANCH  10  16
ENDBRANCH   4   6
ENDBRANCH   1   4
BRANCH   1  29
ATOM     29  C5  HN4 d          25.880  66.477  13.343  0.00  0.00     0.111 C 
ATOM     30  N4  HN4 d          24.403  66.579  13.174  0.00  0.00    -0.055 N 
ATOM     31  C3  HN4 d          23.615  65.335  13.396  0.00  0.00     0.110 C 
ATOM     32  C8A HN4 d          23.956  67.054  11.828  0.00  0.00     0.155 C 
ATOM     33  H17 HN4 d          24.101  67.256  13.857  0.00  0.00     0.281 HD
ATOM     34  C2  HN4 d          22.234  65.714  12.832  0.00  0.00     0.085 C 
ATOM     35  H18 HN4 d          23.553  65.089  14.466  0.00  0.00     0.080 H 
ATOM     36  H19 HN4 d          24.049  64.486  12.848  0.00  0.00     0.080 H 
ATOM     37  C1  HN4 d          22.435  66.928  11.915  0.00  0.00     0.092 C 
ATOM     38  H20 HN4 d          21.832  64.874  12.247  0.00  0.00     0.089 H 
ATOM     39  H22 HN4 d          22.009  66.742  10.917  0.00  0.00     0.090 H 
ATOM     40  C8  HN4 d          24.534  68.422  11.501  0.00  0.00     0.066 C 
ATOM     41  H24 HN4 d          24.317  66.363  11.052  0.00  0.00     0.093 H 
ATOM     42  C7  HN4 d          26.064  68.395  11.648  0.00  0.00    -0.037 C 
ATOM     43  H25 HN4 d          24.114  69.167  12.193  0.00  0.00     0.086 H 
ATOM     44  C6  HN4 d          26.469  67.870  13.033  0.00  0.00    -0.035 C 
ATOM     45  H27 HN4 d          26.457  69.414  11.520  0.00  0.00     0.036 H 
ATOM     46  H28 HN4 d          26.489  67.738  10.875  0.00  0.00     0.036 H 
ATOM     47  H29 HN4 d          27.567  67.805  13.076  0.00  0.00     0.036 H 
ATOM     48  H30 HN4 d          26.115  68.579  13.794  0.00  0.00     0.036 H 
ATOM     49  H16 HN4 d          26.093  66.240  14.397  0.00  0.00     0.085 H 
BRANCH  34  50
ATOM     50  O2  HN4 d          21.312  66.023  13.898  0.00  0.00    -0.391 OA
ATOM     51  H21 HN4 d          21.692  66.687  14.460  0.00  0.00     0.210 HD
ENDBRANCH  34  50
BRANCH  37  52
ATOM     52  O1  HN4 d          21.800  68.103  12.489  0.00  0.00    -0.391 OA
ATOM     53  H23 HN4 d          21.528  67.911  13.378  0.00  0.00     0.210 HD
ENDBRANCH  37  52
BRANCH  40  54
ATOM     54  O8  HN4 d          24.206  68.781  10.162  0.00  0.00    -0.393 OA
ATOM     55  H26 HN4 d          23.446  68.286   9.879  0.00  0.00     0.210 HD
ENDBRANCH  40  54
ENDBRANCH   1  29
TORSDOF 10
ENDMDL
MODEL 3
REMARK VINA RESULT:      -5.5      3.533      8.095
REMARK  10 active torsions:
REMARK  status: ('A' for Active; 'I' for Inactive)
REMARK    1  A    between atoms: C10_2  and  C11_3 
REMARK    2  A    between atoms: C10_2  and  C9_13 
REMARK    3  A    between atoms: C14_6  and  C17_7 
REMARK    4  A    between atoms: C17_7  and  C18_8 
REMARK    5  A    between atoms: C17_7  and  C19_9 
REMARK    6  A    between atoms: C17_7  and  C20_10 
REMARK    7  A    between atoms: C9_13  and  C5_14 
REMARK    8  A    between atoms: C2_17  and  O2_18 
REMARK    9  A    between atoms: C1_19  and  O1_20 
REMARK   10  A    between atoms: C8_22  and  O8_23 
ROOT
ATOM      1  C9  HN4 d          26.730  65.749  12.960  0.00  0.00     0.022 C 
ATOM      2  H14 HN4 d          26.375  66.726  13.322  0.00  0.00     0.048 H 
ATOM      3  H15 HN4 d          26.621  65.000  13.759  0.00  0.00     0.048 H 
ENDROOT
BRANCH   1   4
ATOM      4  C10 HN4 d          28.211  65.871  12.608  0.00  0.00     0.161 C 
ATOM      5  O10 HN4 d          29.109  65.906  13.446  0.00  0.00    -0.292 OA
BRANCH   4   6
ATOM      6  C11 HN4 d          28.576  66.035  11.162  0.00  0.00     0.010 A 
ATOM      7  C12 HN4 d          28.501  67.280  10.539  0.00  0.00    -0.069 A 
ATOM      8  C13 HN4 d          28.866  67.423   9.197  0.00  0.00    -0.075 A 
ATOM      9  H1  HN4 d          28.158  68.142  11.099  0.00  0.00     0.085 H 
ATOM     10  C14 HN4 d          29.301  66.315   8.458  0.00  0.00    -0.051 A 
ATOM     11  H2  HN4 d          28.811  68.398   8.725  0.00  0.00     0.084 H 
ATOM     12  C15 HN4 d          29.374  65.073   9.091  0.00  0.00    -0.075 A 
ATOM     13  C16 HN4 d          29.010  64.922  10.431  0.00  0.00    -0.069 A 
ATOM     14  H12 HN4 d          29.720  64.211   8.533  0.00  0.00     0.084 H 
ATOM     15  H13 HN4 d          29.063  63.948  10.903  0.00  0.00     0.085 H 
BRANCH  10  16
ATOM     16  C17 HN4 d          29.687  66.499   6.999  0.00  0.00    -0.024 C 
BRANCH  16  17
ATOM     17  C18 HN4 d          29.752  65.128   6.322  0.00  0.00    -0.066 C 
ATOM     18  H3  HN4 d          28.983  64.470   6.753  0.00  0.00     0.028 H 
ATOM     19  H4  HN4 d          30.747  64.686   6.483  0.00  0.00     0.028 H 
ATOM     20  H5  HN4 d          29.573  65.244   5.242  0.00  0.00     0.028 H 
ENDBRANCH  16  17
BRANCH  16  21
ATOM     21  C19 HN4 d          28.631  67.297   6.226  0.00  0.00    -0.066 C 
ATOM     22  H6  HN4 d          27.648  66.820   6.349  0.00  0.00     0.028 H 
ATOM     23  H7  HN4 d          28.897  67.321   5.159  0.00  0.00     0.028 H 
ATOM     24  H8  HN4 d          28.590  68.325   6.616  0.00  0.00     0.028 H 
ENDBRANCH  16  21
BRANCH  16  25
ATOM     25  C20 HN4 d          31.045  67.200   6.940  0.00  0.00    -0.066 C 
ATOM     26  H9  HN4 d          31.044  68.059   7.628  0.00  0.00     0.028 H 
ATOM     27  H10 HN4 d          31.232  67.552   5.915  0.00  0.00     0.028 H 
ATOM     28  H11 HN4 d          31.835  66.494   7.236  0.00  0.00     0.028 H 
ENDBRANCH  16  25
ENDBRANCH  10  16
ENDBRANCH   4   6
ENDBRANCH   1   4
BRANCH   1  29
ATOM     29  C5  HN4 d          25.861  65.325  11.776  0.00  0.00     0.111 C 
ATOM     30  N4  HN4 d          24.733  66.266  11.529  0.00  0.00    -0.055 N 
ATOM     31  C3  HN4 d          25.082  67.705  11.365  0.00  0.00     0.110 C 
ATOM     32  C8A HN4 d          23.675  66.271  12.586  0.00  0.00     0.155 C 
ATOM     33  H17 HN4 d          24.310  65.957  10.668  0.00  0.00     0.281 HD
ATOM     34  C2  HN4 d          23.709  68.391  11.460  0.00  0.00     0.085 C 
ATOM     35  H18 HN4 d          25.553  67.891  10.389  0.00  0.00     0.080 H 
ATOM     36  H19 HN4 d          25.754  68.045  12.167  0.00  0.00     0.080 H 
ATOM     37  C1  HN4 d          22.750  67.399  12.132  0.00  0.00     0.092 C 
ATOM     38  H20 HN4 d          23.792  69.298  12.077  0.00  0.00     0.089 H 
ATOM     39  H22 HN4 d          22.253  67.859  13.000  0.00  0.00     0.090 H 
ATOM     40  C8  HN4 d          23.067  64.889  12.770  0.00  0.00     0.066 C 
ATOM     41  H24 HN4 d          24.118  66.553  13.553  0.00  0.00     0.093 H 
ATOM     42  C7  HN4 d          24.176  63.858  13.037  0.00  0.00    -0.037 C 
ATOM     43  H25 HN4 d          22.521  64.610  11.856  0.00  0.00     0.086 H 
ATOM     44  C6  HN4 d          25.250  63.917  11.942  0.00  0.00    -0.035 C 
ATOM     45  H27 HN4 d          23.735  62.850  13.054  0.00  0.00     0.036 H 
ATOM     46  H28 HN4 d          24.640  64.072  14.010  0.00  0.00     0.036 H 
ATOM     47  H29 HN4 d          26.055  63.213  12.201  0.00  0.00     0.036 H 
ATOM     48  H30 HN4 d          24.796  63.618  10.987  0.00  0.00     0.036 H 
ATOM     49  H16 HN4 d          26.508  65.318  10.885  0.00  0.00     0.085 H 
BRANCH  34  50
ATOM     50  O2  HN4 d          23.229  68.761  10.150  0.00  0.00    -0.391 OA
ATOM     51  H21 HN4 d          23.372  68.042   9.547  0.00  0.00     0.210 HD
ENDBRANCH  34  50
BRANCH  37  52
ATOM     52  O1  HN4 d          21.738  66.958  11.187  0.00  0.00    -0.391 OA
ATOM     53  H23 HN4 d          21.469  67.691  10.647  0.00  0.00     0.210 HD
ENDBRANCH  37  52
BRANCH  40  54
ATOM     54  O8  HN4 d          22.168  64.896  13.875  0.00  0.00    -0.393 OA
ATOM     55  H26 HN4 d          21.295  64.678  13.573  0.00  0.00     0.210 HD
ENDBRANCH  40  54
ENDBRANCH   1  29
TORSDOF 10
ENDMDL
