MODEL 1
REMARK VINA RESULT:      -8.7      0.000      0.000
REMARK  5 active torsions:
REMARK  status: ('A' for Active; 'I' for Inactive)
REMARK    1  A    between atoms: C1_1  and  C7_7 
REMARK    2  A    between atoms: C7_7  and  N1_8 
REMARK    3  A    between atoms: C8_12  and  C1'_13 
REMARK    4  A    between atoms: C5'_17  and  C1''_20 
REMARK    5  A    between atoms: C6'_18  and  O6'_19 
ROOT
ATOM      1  C1' MOL d          43.210  -2.141  32.188  0.00  0.00     0.025 A 
ATOM      2  C2' MOL d          42.290  -2.995  32.785  0.00  0.00    -0.068 A 
ATOM      3  C3' MOL d          42.003  -2.926  34.129  0.00  0.00    -0.081 A 
ATOM      4  C4' MOL d          42.632  -1.990  34.915  0.00  0.00    -0.070 A 
ATOM      5  C5' MOL d          43.578  -1.085  34.385  0.00  0.00     0.008 A 
ATOM      6  C6' MOL d          43.842  -1.192  33.018  0.00  0.00     0.089 A 
ATOM      7  H10 MOL d          41.785  -3.736  32.176  0.00  0.00     0.085 H 
ATOM      8  H11 MOL d          41.282  -3.608  34.567  0.00  0.00     0.083 H 
ATOM      9  H12 MOL d          42.395  -1.946  35.973  0.00  0.00     0.085 H 
ENDROOT
BRANCH   1  10
ATOM     10  C8  MOL d          43.488  -2.217  30.821  0.00  0.00     0.046 A 
ATOM     11  N3  MOL d          43.654  -1.166  30.079  0.00  0.00    -0.355 N 
ATOM     12  C4  MOL d          43.832  -1.620  28.892  0.00  0.00     0.043 A 
ATOM     13  H8  MOL d          43.645  -0.180  30.379  0.00  0.00     0.166 HD
ATOM     14  C3  MOL d          44.067  -0.929  27.750  0.00  0.00    -0.055 A 
ATOM     15  C5  MOL d          43.770  -2.953  28.961  0.00  0.00    -0.006 A 
ATOM     16  C2  MOL d          44.247  -1.683  26.591  0.00  0.00    -0.067 A 
ATOM     17  H2  MOL d          44.112   0.155  27.738  0.00  0.00     0.087 H 
ATOM     18  C1  MOL d          44.190  -3.118  26.585  0.00  0.00     0.008 A 
ATOM     19  H1  MOL d          44.438  -1.165  25.658  0.00  0.00     0.085 H 
ATOM     20  C6  MOL d          43.940  -3.760  27.831  0.00  0.00    -0.057 A 
ATOM     21  H3  MOL d          43.884  -4.840  27.902  0.00  0.00     0.086 H 
ATOM     22  CN4 MOL d          43.545  -3.379  30.198  0.00  0.00    -0.044 A 
ATOM     23  H9  MOL d          43.439  -4.391  30.585  0.00  0.00     0.088 H 
BRANCH  18  24
ATOM     24  C7  MOL d          44.393  -3.820  25.381  0.00  0.00     0.102 C 
ATOM     25  N2  MOL d          44.363  -5.138  25.379  0.00  0.00    -0.385 N 
ATOM     26  H6  MOL d          44.190  -5.650  26.256  0.00  0.00     0.157 HD
ATOM     27  H7  MOL d          44.513  -5.656  24.501  0.00  0.00     0.157 HD
BRANCH  24  28
ATOM     28  N1  MOL d          44.613  -3.171  24.260  0.00  0.00    -0.385 N 
ATOM     29  H4  MOL d          45.255  -3.564  23.556  0.00  0.00     0.157 HD
ATOM     30  H5  MOL d          44.145  -2.270  24.086  0.00  0.00     0.157 HD
ENDBRANCH  24  28
ENDBRANCH  18  24
ENDBRANCH   1  10
BRANCH   6  31
ATOM     31  O6' MOL d          44.776  -0.346  32.460  0.00  0.00    -0.359 OA
ATOM     32  H13 MOL d          45.650  -0.660  32.664  0.00  0.00     0.217 HD
ENDBRANCH   6  31
BRANCH   5  33
ATOM     33  C1' MOL d          44.187  -0.116  35.218  0.00  0.00    -0.023 A 
ATOM     34  C2' MOL d          45.148  -0.437  36.166  0.00  0.00    -0.072 A 
ATOM     35  C3' MOL d          45.713   0.511  36.993  0.00  0.00    -0.082 A 
ATOM     36  H14 MOL d          45.467  -1.468  36.259  0.00  0.00     0.084 H 
ATOM     37  C4' MOL d          45.341   1.828  36.902  0.00  0.00    -0.083 A 
ATOM     38  H15 MOL d          46.459   0.212  37.721  0.00  0.00     0.083 H 
ATOM     39  C5' MOL d          44.385   2.211  35.969  0.00  0.00    -0.082 A 
ATOM     40  H16 MOL d          45.790   2.567  37.555  0.00  0.00     0.083 H 
ATOM     41  C6' MOL d          43.822   1.243  35.141  0.00  0.00    -0.072 A 
ATOM     42  H17 MOL d          44.081   3.249  35.887  0.00  0.00     0.083 H 
ATOM     43  H18 MOL d          43.078   1.545  34.412  0.00  0.00     0.084 H 
ENDBRANCH   5  33
TORSDOF 5
ENDMDL
MODEL 2
REMARK VINA RESULT:      -6.9      2.865      8.351
REMARK  5 active torsions:
REMARK  status: ('A' for Active; 'I' for Inactive)
REMARK    1  A    between atoms: C1_1  and  C7_7 
REMARK    2  A    between atoms: C7_7  and  N1_8 
REMARK    3  A    between atoms: C8_12  and  C1'_13 
REMARK    4  A    between atoms: C5'_17  and  C1''_20 
REMARK    5  A    between atoms: C6'_18  and  O6'_19 
ROOT
ATOM      1  C1' MOL d          43.424  -2.453  31.367  0.00  0.00     0.025 A 
ATOM      2  C2' MOL d          43.099  -3.734  31.801  0.00  0.00    -0.068 A 
ATOM      3  C3' MOL d          43.018  -4.796  30.930  0.00  0.00    -0.081 A 
ATOM      4  C4' MOL d          43.264  -4.602  29.591  0.00  0.00    -0.070 A 
ATOM      5  C5' MOL d          43.602  -3.332  29.071  0.00  0.00     0.008 A 
ATOM      6  C6' MOL d          43.669  -2.283  29.989  0.00  0.00     0.089 A 
ATOM      7  H10 MOL d          42.905  -3.900  32.854  0.00  0.00     0.085 H 
ATOM      8  H11 MOL d          42.759  -5.782  31.298  0.00  0.00     0.083 H 
ATOM      9  H12 MOL d          43.198  -5.448  28.916  0.00  0.00     0.085 H 
ENDROOT
BRANCH   1  10
ATOM     10  C8  MOL d          43.509  -1.385  32.263  0.00  0.00     0.046 A 
ATOM     11  N3  MOL d          44.571  -0.649  32.377  0.00  0.00    -0.355 N 
ATOM     12  C4  MOL d          44.304   0.180  33.320  0.00  0.00     0.043 A 
ATOM     13  H8  MOL d          45.441  -0.715  31.830  0.00  0.00     0.166 HD
ATOM     14  C3  MOL d          45.079   1.174  33.817  0.00  0.00    -0.055 A 
ATOM     15  C5  MOL d          43.066  -0.087  33.747  0.00  0.00    -0.006 A 
ATOM     16  C2  MOL d          44.525   1.946  34.837  0.00  0.00    -0.067 A 
ATOM     17  H2  MOL d          46.079   1.360  33.440  0.00  0.00     0.087 H 
ATOM     18  C1  MOL d          43.204   1.717  35.351  0.00  0.00     0.008 A 
ATOM     19  H1  MOL d          45.115   2.752  35.258  0.00  0.00     0.085 H 
ATOM     20  C6  MOL d          42.461   0.652  34.769  0.00  0.00    -0.057 A 
ATOM     21  H3  MOL d          41.457   0.420  35.107  0.00  0.00     0.086 H 
ATOM     22  CN4 MOL d          42.518  -1.100  33.086  0.00  0.00    -0.044 A 
ATOM     23  H9  MOL d          41.537  -1.561  33.191  0.00  0.00     0.088 H 
BRANCH  18  24
ATOM     24  C7  MOL d          42.700   2.542  36.375  0.00  0.00     0.102 C 
ATOM     25  N2  MOL d          42.162   1.997  37.449  0.00  0.00    -0.385 N 
ATOM     26  H6  MOL d          42.113   0.972  37.536  0.00  0.00     0.157 HD
ATOM     27  H7  MOL d          41.790   2.596  38.199  0.00  0.00     0.157 HD
BRANCH  24  28
ATOM     28  N1  MOL d          42.760   3.849  36.269  0.00  0.00    -0.385 N 
ATOM     29  H4  MOL d          43.072   4.418  37.069  0.00  0.00     0.157 HD
ATOM     30  H5  MOL d          42.494   4.306  35.384  0.00  0.00     0.157 HD
ENDBRANCH  24  28
ENDBRANCH  18  24
ENDBRANCH   1  10
BRANCH   6  31
ATOM     31  O6' MOL d          43.972  -1.020  29.524  0.00  0.00    -0.359 OA
ATOM     32  H13 MOL d          44.914  -0.893  29.546  0.00  0.00     0.217 HD
ENDBRANCH   6  31
BRANCH   5  33
ATOM     33  C1' MOL d          43.876  -3.175  27.692  0.00  0.00    -0.023 A 
ATOM     34  C2' MOL d          44.208  -1.952  27.126  0.00  0.00    -0.072 A 
ATOM     35  C3' MOL d          44.444  -1.804  25.775  0.00  0.00    -0.082 A 
ATOM     36  H14 MOL d          44.286  -1.083  27.768  0.00  0.00     0.084 H 
ATOM     37  C4' MOL d          44.361  -2.882  24.930  0.00  0.00    -0.083 A 
ATOM     38  H15 MOL d          44.697  -0.827  25.378  0.00  0.00     0.083 H 
ATOM     39  C5' MOL d          44.036  -4.133  25.439  0.00  0.00    -0.082 A 
ATOM     40  H16 MOL d          44.549  -2.758  23.870  0.00  0.00     0.083 H 
ATOM     41  C6' MOL d          43.800  -4.268  26.805  0.00  0.00    -0.072 A 
ATOM     42  H17 MOL d          43.967  -4.992  24.781  0.00  0.00     0.083 H 
ATOM     43  H18 MOL d          43.548  -5.245  27.199  0.00  0.00     0.084 H 
ENDBRANCH   5  33
TORSDOF 5
ENDMDL
MODEL 3
REMARK VINA RESULT:      -6.8      1.047      1.859
REMARK  5 active torsions:
REMARK  status: ('A' for Active; 'I' for Inactive)
REMARK    1  A    between atoms: C1_1  and  C7_7 
REMARK    2  A    between atoms: C7_7  and  N1_8 
REMARK    3  A    between atoms: C8_12  and  C1'_13 
REMARK    4  A    between atoms: C5'_17  and  C1''_20 
REMARK    5  A    between atoms: C6'_18  and  O6'_19 
ROOT
ATOM      1  C1' MOL d          42.771  -2.034  32.831  0.00  0.00     0.025 A 
ATOM      2  C2' MOL d          41.867  -2.774  33.587  0.00  0.00    -0.068 A 
ATOM      3  C3' MOL d          41.603  -2.470  34.903  0.00  0.00    -0.081 A 
ATOM      4  C4' MOL d          42.239  -1.408  35.500  0.00  0.00    -0.070 A 
ATOM      5  C5' MOL d          43.169  -0.606  34.801  0.00  0.00     0.008 A 
ATOM      6  C6' MOL d          43.411  -0.952  33.470  0.00  0.00     0.089 A 
ATOM      7  H10 MOL d          41.357  -3.612  33.127  0.00  0.00     0.085 H 
ATOM      8  H11 MOL d          40.895  -3.068  35.466  0.00  0.00     0.083 H 
ATOM      9  H12 MOL d          42.021  -1.180  36.537  0.00  0.00     0.085 H 
ENDROOT
BRANCH   1  10
ATOM     10  C8  MOL d          43.026  -2.349  31.495  0.00  0.00     0.046 A 
ATOM     11  N3  MOL d          43.091  -3.570  31.062  0.00  0.00    -0.355 N 
ATOM     12  C4  MOL d          43.393  -3.468  29.819  0.00  0.00     0.043 A 
ATOM     13  H8  MOL d          42.935  -4.434  31.600  0.00  0.00     0.166 HD
ATOM     14  C3  MOL d          43.564  -4.456  28.907  0.00  0.00    -0.055 A 
ATOM     15  C5  MOL d          43.497  -2.166  29.538  0.00  0.00    -0.006 A 
ATOM     16  C2  MOL d          43.869  -4.058  27.606  0.00  0.00    -0.067 A 
ATOM     17  H2  MOL d          43.468  -5.502  29.175  0.00  0.00     0.087 H 
ATOM     18  C1  MOL d          44.002  -2.678  27.229  0.00  0.00     0.008 A 
ATOM     19  H1  MOL d          44.012  -4.820  26.849  0.00  0.00     0.085 H 
ATOM     20  C6  MOL d          43.804  -1.708  28.252  0.00  0.00    -0.057 A 
ATOM     21  H3  MOL d          43.889  -0.648  28.042  0.00  0.00     0.086 H 
ATOM     22  CN4 MOL d          43.268  -1.406  30.603  0.00  0.00    -0.044 A 
ATOM     23  H9  MOL d          43.277  -0.323  30.710  0.00  0.00     0.088 H 
BRANCH  18  24
ATOM     24  C7  MOL d          44.301  -2.344  25.894  0.00  0.00     0.102 C 
ATOM     25  N2  MOL d          44.677  -3.287  25.053  0.00  0.00    -0.385 N 
ATOM     26  H6  MOL d          44.749  -4.263  25.372  0.00  0.00     0.157 HD
ATOM     27  H7  MOL d          44.899  -3.046  24.076  0.00  0.00     0.157 HD
BRANCH  24  28
ATOM     28  N1  MOL d          44.210  -1.100  25.482  0.00  0.00    -0.385 N 
ATOM     29  H4  MOL d          43.996  -0.349  26.154  0.00  0.00     0.157 HD
ATOM     30  H5  MOL d          44.354  -0.876  24.487  0.00  0.00     0.157 HD
ENDBRANCH  24  28
ENDBRANCH  18  24
ENDBRANCH   1  10
BRANCH   6  31
ATOM     31  O6' MOL d          44.329  -0.213  32.754  0.00  0.00    -0.359 OA
ATOM     32  H13 MOL d          43.875   0.308  32.102  0.00  0.00     0.217 HD
ENDBRANCH   6  31
BRANCH   5  33
ATOM     33  C1' MOL d          43.786   0.496  35.439  0.00  0.00    -0.023 A 
ATOM     34  C2' MOL d          43.350   1.803  35.271  0.00  0.00    -0.072 A 
ATOM     35  C3' MOL d          43.977   2.872  35.874  0.00  0.00    -0.082 A 
ATOM     36  H14 MOL d          42.487   1.989  34.643  0.00  0.00     0.084 H 
ATOM     37  C4' MOL d          45.070   2.677  36.681  0.00  0.00    -0.083 A 
ATOM     38  H15 MOL d          43.603   3.877  35.710  0.00  0.00     0.083 H 
ATOM     39  C5' MOL d          45.550   1.390  36.891  0.00  0.00    -0.082 A 
ATOM     40  H16 MOL d          45.556   3.523  37.152  0.00  0.00     0.083 H 
ATOM     41  C6' MOL d          44.907   0.319  36.274  0.00  0.00    -0.072 A 
ATOM     42  H17 MOL d          46.413   1.223  37.526  0.00  0.00     0.083 H 
ATOM     43  H18 MOL d          45.283  -0.684  36.442  0.00  0.00     0.084 H 
ENDBRANCH   5  33
TORSDOF 5
ENDMDL
MODEL 4
REMARK VINA RESULT:      -6.4      3.031      8.244
REMARK  5 active torsions:
REMARK  status: ('A' for Active; 'I' for Inactive)
REMARK    1  A    between atoms: C1_1  and  C7_7 
REMARK    2  A    between atoms: C7_7  and  N1_8 
REMARK    3  A    between atoms: C8_12  and  C1'_13 
REMARK    4  A    between atoms: C5'_17  and  C1''_20 
REMARK    5  A    between atoms: C6'_18  and  O6'_19 
ROOT
ATOM      1  C1' MOL d          43.253  -2.612  31.665  0.00  0.00     0.025 A 
ATOM      2  C2' MOL d          43.083  -3.943  32.031  0.00  0.00    -0.068 A 
ATOM      3  C3' MOL d          43.148  -4.963  31.109  0.00  0.00    -0.081 A 
ATOM      4  C4' MOL d          43.388  -4.675  29.787  0.00  0.00    -0.070 A 
ATOM      5  C5' MOL d          43.573  -3.349  29.334  0.00  0.00     0.008 A 
ATOM      6  C6' MOL d          43.495  -2.345  30.301  0.00  0.00     0.089 A 
ATOM      7  H10 MOL d          42.896  -4.184  33.071  0.00  0.00     0.085 H 
ATOM      8  H11 MOL d          43.009  -5.990  31.425  0.00  0.00     0.083 H 
ATOM      9  H12 MOL d          43.438  -5.488  29.071  0.00  0.00     0.085 H 
ENDROOT
BRANCH   1  10
ATOM     10  C8  MOL d          43.191  -1.587  32.611  0.00  0.00     0.046 A 
ATOM     11  N3  MOL d          42.080  -1.208  33.163  0.00  0.00    -0.355 N 
ATOM     12  C4  MOL d          42.402  -0.224  33.921  0.00  0.00     0.043 A 
ATOM     13  H8  MOL d          41.142  -1.610  33.023  0.00  0.00     0.166 HD
ATOM     14  C3  MOL d          41.605   0.514  34.732  0.00  0.00    -0.055 A 
ATOM     15  C5  MOL d          43.720  -0.042  33.801  0.00  0.00    -0.006 A 
ATOM     16  C2  MOL d          42.228   1.520  35.469  0.00  0.00    -0.067 A 
ATOM     17  H2  MOL d          40.538   0.332  34.802  0.00  0.00     0.087 H 
ATOM     18  C1  MOL d          43.638   1.779  35.390  0.00  0.00     0.008 A 
ATOM     19  H1  MOL d          41.623   2.131  36.130  0.00  0.00     0.085 H 
ATOM     20  C6  MOL d          44.397   0.953  34.514  0.00  0.00    -0.057 A 
ATOM     21  H3  MOL d          45.467   1.090  34.403  0.00  0.00     0.086 H 
ATOM     22  CN4 MOL d          44.268  -0.907  32.955  0.00  0.00    -0.044 A 
ATOM     23  H9  MOL d          45.304  -1.022  32.639  0.00  0.00     0.088 H 
BRANCH  18  24
ATOM     24  C7  MOL d          44.206   2.803  36.172  0.00  0.00     0.102 C 
ATOM     25  N2  MOL d          45.463   2.710  36.560  0.00  0.00    -0.385 N 
ATOM     26  H6  MOL d          46.025   1.891  36.290  0.00  0.00     0.157 HD
ATOM     27  H7  MOL d          45.881   3.456  37.134  0.00  0.00     0.157 HD
BRANCH  24  28
ATOM     28  N1  MOL d          43.492   3.849  36.520  0.00  0.00    -0.385 N 
ATOM     29  H4  MOL d          42.659   3.730  37.115  0.00  0.00     0.157 HD
ATOM     30  H5  MOL d          43.766   4.789  36.198  0.00  0.00     0.157 HD
ENDBRANCH  24  28
ENDBRANCH  18  24
ENDBRANCH   1  10
BRANCH   6  31
ATOM     31  O6' MOL d          43.645  -1.034  29.902  0.00  0.00    -0.359 OA
ATOM     32  H13 MOL d          44.149  -1.004  29.097  0.00  0.00     0.217 HD
ENDBRANCH   6  31
BRANCH   5  33
ATOM     33  C1' MOL d          43.846  -3.091  27.969  0.00  0.00    -0.023 A 
ATOM     34  C2' MOL d          43.976  -4.098  27.024  0.00  0.00    -0.072 A 
ATOM     35  C3' MOL d          44.271  -3.837  25.703  0.00  0.00    -0.082 A 
ATOM     36  H14 MOL d          43.840  -5.127  27.336  0.00  0.00     0.084 H 
ATOM     37  C4' MOL d          44.445  -2.547  25.269  0.00  0.00    -0.083 A 
ATOM     38  H15 MOL d          44.367  -4.658  25.001  0.00  0.00     0.083 H 
ATOM     39  C5' MOL d          44.323  -1.495  26.168  0.00  0.00    -0.082 A 
ATOM     40  H16 MOL d          44.676  -2.349  24.229  0.00  0.00     0.083 H 
ATOM     41  C6' MOL d          44.025  -1.774  27.500  0.00  0.00    -0.072 A 
ATOM     42  H17 MOL d          44.458  -0.471  25.838  0.00  0.00     0.083 H 
ATOM     43  H18 MOL d          43.929  -0.951  28.198  0.00  0.00     0.084 H 
ENDBRANCH   5  33
TORSDOF 5
ENDMDL
