MODEL 1
REMARK VINA RESULT:      -8.7      0.000      0.000
REMARK  5 active torsions:
REMARK  status: ('A' for Active; 'I' for Inactive)
REMARK    1  A    between atoms: C1_1  and  C7_7 
REMARK    2  A    between atoms: C7_7  and  N1_8 
REMARK    3  A    between atoms: C8_12  and  C1'_13 
REMARK    4  A    between atoms: C5'_17  and  C1''_20 
REMARK    5  A    between atoms: C6'_18  and  O6'_19 
ROOT
ATOM      1  C1' MOL d          43.235  -2.188  32.182  0.00  0.00     0.025 A 
ATOM      2  C2' MOL d          42.335  -3.058  32.788  0.00  0.00    -0.068 A 
ATOM      3  C3' MOL d          42.055  -2.991  34.134  0.00  0.00    -0.081 A 
ATOM      4  C4' MOL d          42.671  -2.041  34.913  0.00  0.00    -0.070 A 
ATOM      5  C5' MOL d          43.597  -1.120  34.374  0.00  0.00     0.008 A 
ATOM      6  C6' MOL d          43.855  -1.226  33.007  0.00  0.00     0.089 A 
ATOM      7  H10 MOL d          41.839  -3.810  32.184  0.00  0.00     0.085 H 
ATOM      8  H11 MOL d          41.350  -3.685  34.577  0.00  0.00     0.083 H 
ATOM      9  H12 MOL d          42.441  -1.998  35.972  0.00  0.00     0.085 H 
ENDROOT
BRANCH   1  10
ATOM     10  C8  MOL d          43.506  -2.263  30.815  0.00  0.00     0.046 A 
ATOM     11  N3  MOL d          43.651  -1.212  30.069  0.00  0.00    -0.355 N 
ATOM     12  C4  MOL d          43.829  -1.665  28.882  0.00  0.00     0.043 A 
ATOM     13  H8  MOL d          43.629  -0.225  30.367  0.00  0.00     0.166 HD
ATOM     14  C3  MOL d          44.046  -0.972  27.737  0.00  0.00    -0.055 A 
ATOM     15  C5  MOL d          43.788  -2.999  28.954  0.00  0.00    -0.006 A 
ATOM     16  C2  MOL d          44.231  -1.726  26.579  0.00  0.00    -0.067 A 
ATOM     17  H2  MOL d          44.074   0.111  27.723  0.00  0.00     0.087 H 
ATOM     18  C1  MOL d          44.196  -3.162  26.575  0.00  0.00     0.008 A 
ATOM     19  H1  MOL d          44.408  -1.208  25.644  0.00  0.00     0.085 H 
ATOM     20  C6  MOL d          43.964  -3.805  27.824  0.00  0.00    -0.057 A 
ATOM     21  H3  MOL d          43.924  -4.886  27.898  0.00  0.00     0.086 H 
ATOM     22  CN4 MOL d          43.577  -3.426  30.193  0.00  0.00    -0.044 A 
ATOM     23  H9  MOL d          43.489  -4.438  30.583  0.00  0.00     0.088 H 
BRANCH  18  24
ATOM     24  C7  MOL d          44.402  -3.863  25.372  0.00  0.00     0.102 C 
ATOM     25  N2  MOL d          44.644  -3.197  24.260  0.00  0.00    -0.385 N 
ATOM     26  H6  MOL d          44.683  -2.168  24.275  0.00  0.00     0.157 HD
ATOM     27  H7  MOL d          44.793  -3.705  23.376  0.00  0.00     0.157 HD
BRANCH  24  28
ATOM     28  N1  MOL d          44.352  -5.175  25.347  0.00  0.00    -0.385 N 
ATOM     29  H4  MOL d          43.616  -5.653  24.808  0.00  0.00     0.157 HD
ATOM     30  H5  MOL d          45.050  -5.727  25.868  0.00  0.00     0.157 HD
ENDBRANCH  24  28
ENDBRANCH  18  24
ENDBRANCH   1  10
BRANCH   6  31
ATOM     31  O6' MOL d          44.770  -0.364  32.440  0.00  0.00    -0.359 OA
ATOM     32  H13 MOL d          44.542  -0.215  31.529  0.00  0.00     0.217 HD
ENDBRANCH   6  31
BRANCH   5  33
ATOM     33  C1' MOL d          44.193  -0.138  35.201  0.00  0.00    -0.023 A 
ATOM     34  C2' MOL d          45.174  -0.436  36.137  0.00  0.00    -0.072 A 
ATOM     35  C3' MOL d          45.726   0.523  36.958  0.00  0.00    -0.082 A 
ATOM     36  H14 MOL d          45.517  -1.461  36.225  0.00  0.00     0.084 H 
ATOM     37  C4' MOL d          45.322   1.832  36.873  0.00  0.00    -0.083 A 
ATOM     38  H15 MOL d          46.487   0.241  37.678  0.00  0.00     0.083 H 
ATOM     39  C5' MOL d          44.346   2.192  35.952  0.00  0.00    -0.082 A 
ATOM     40  H16 MOL d          45.762   2.581  37.521  0.00  0.00     0.083 H 
ATOM     41  C6' MOL d          43.796   1.213  35.129  0.00  0.00    -0.072 A 
ATOM     42  H17 MOL d          44.018   3.223  35.875  0.00  0.00     0.083 H 
ATOM     43  H18 MOL d          43.037   1.498  34.410  0.00  0.00     0.084 H 
ENDBRANCH   5  33
TORSDOF 5
ENDMDL
MODEL 2
REMARK VINA RESULT:      -6.9      2.879      8.350
REMARK  5 active torsions:
REMARK  status: ('A' for Active; 'I' for Inactive)
REMARK    1  A    between atoms: C1_1  and  C7_7 
REMARK    2  A    between atoms: C7_7  and  N1_8 
REMARK    3  A    between atoms: C8_12  and  C1'_13 
REMARK    4  A    between atoms: C5'_17  and  C1''_20 
REMARK    5  A    between atoms: C6'_18  and  O6'_19 
ROOT
ATOM      1  C1' MOL d          43.415  -2.461  31.312  0.00  0.00     0.025 A 
ATOM      2  C2' MOL d          43.109  -3.745  31.750  0.00  0.00    -0.068 A 
ATOM      3  C3' MOL d          43.047  -4.811  30.882  0.00  0.00    -0.081 A 
ATOM      4  C4' MOL d          43.295  -4.619  29.544  0.00  0.00    -0.070 A 
ATOM      5  C5' MOL d          43.614  -3.346  29.020  0.00  0.00     0.008 A 
ATOM      6  C6' MOL d          43.662  -2.292  29.933  0.00  0.00     0.089 A 
ATOM      7  H10 MOL d          42.915  -3.911  32.803  0.00  0.00     0.085 H 
ATOM      8  H11 MOL d          42.804  -5.800  31.254  0.00  0.00     0.083 H 
ATOM      9  H12 MOL d          43.244  -5.468  28.872  0.00  0.00     0.085 H 
ENDROOT
BRANCH   1  10
ATOM     10  C8  MOL d          43.481  -1.388  32.204  0.00  0.00     0.046 A 
ATOM     11  N3  MOL d          44.538  -0.649  32.335  0.00  0.00    -0.355 N 
ATOM     12  C4  MOL d          44.251   0.183  33.269  0.00  0.00     0.043 A 
ATOM     13  H8  MOL d          45.419  -0.716  31.805  0.00  0.00     0.166 HD
ATOM     14  C3  MOL d          45.015   1.182  33.775  0.00  0.00    -0.055 A 
ATOM     15  C5  MOL d          43.005  -0.085  33.673  0.00  0.00    -0.006 A 
ATOM     16  C2  MOL d          44.439   1.957  34.781  0.00  0.00    -0.067 A 
ATOM     17  H2  MOL d          46.021   1.368  33.418  0.00  0.00     0.087 H 
ATOM     18  C1  MOL d          43.108   1.728  35.270  0.00  0.00     0.008 A 
ATOM     19  H1  MOL d          45.019   2.766  35.210  0.00  0.00     0.085 H 
ATOM     20  C6  MOL d          42.379   0.658  34.679  0.00  0.00    -0.057 A 
ATOM     21  H3  MOL d          41.369   0.426  34.998  0.00  0.00     0.086 H 
ATOM     22  CN4 MOL d          42.472  -1.102  33.006  0.00  0.00    -0.044 A 
ATOM     23  H9  MOL d          41.491  -1.564  33.094  0.00  0.00     0.088 H 
BRANCH  18  24
ATOM     24  C7  MOL d          42.583   2.557  36.280  0.00  0.00     0.102 C 
ATOM     25  N2  MOL d          42.842   3.849  36.267  0.00  0.00    -0.385 N 
ATOM     26  H6  MOL d          43.426   4.249  35.518  0.00  0.00     0.157 HD
ATOM     27  H7  MOL d          42.462   4.459  37.005  0.00  0.00     0.157 HD
BRANCH  24  28
ATOM     28  N1  MOL d          41.838   2.051  37.237  0.00  0.00    -0.385 N 
ATOM     29  H4  MOL d          41.582   2.629  38.050  0.00  0.00     0.157 HD
ATOM     30  H5  MOL d          41.511   1.077  37.174  0.00  0.00     0.157 HD
ENDBRANCH  24  28
ENDBRANCH  18  24
ENDBRANCH   1  10
BRANCH   6  31
ATOM     31  O6' MOL d          43.945  -1.026  29.465  0.00  0.00    -0.359 OA
ATOM     32  H13 MOL d          43.427  -0.854  28.687  0.00  0.00     0.217 HD
ENDBRANCH   6  31
BRANCH   5  33
ATOM     33  C1' MOL d          43.889  -3.189  27.640  0.00  0.00    -0.023 A 
ATOM     34  C2' MOL d          44.305  -1.985  27.088  0.00  0.00    -0.072 A 
ATOM     35  C3' MOL d          44.541  -1.836  25.739  0.00  0.00    -0.082 A 
ATOM     36  H14 MOL d          44.448  -1.133  27.742  0.00  0.00     0.084 H 
ATOM     37  C4' MOL d          44.376  -2.893  24.879  0.00  0.00    -0.083 A 
ATOM     38  H15 MOL d          44.861  -0.874  25.352  0.00  0.00     0.083 H 
ATOM     39  C5' MOL d          43.965  -4.124  25.374  0.00  0.00    -0.082 A 
ATOM     40  H16 MOL d          44.565  -2.768  23.820  0.00  0.00     0.083 H 
ATOM     41  C6' MOL d          43.729  -4.261  26.739  0.00  0.00    -0.072 A 
ATOM     42  H17 MOL d          43.830  -4.968  24.705  0.00  0.00     0.083 H 
ATOM     43  H18 MOL d          43.410  -5.224  27.122  0.00  0.00     0.084 H 
ENDBRANCH   5  33
TORSDOF 5
ENDMDL
MODEL 3
REMARK VINA RESULT:      -6.9      1.038      1.830
REMARK  5 active torsions:
REMARK  status: ('A' for Active; 'I' for Inactive)
REMARK    1  A    between atoms: C1_1  and  C7_7 
REMARK    2  A    between atoms: C7_7  and  N1_8 
REMARK    3  A    between atoms: C8_12  and  C1'_13 
REMARK    4  A    between atoms: C5'_17  and  C1''_20 
REMARK    5  A    between atoms: C6'_18  and  O6'_19 
ROOT
ATOM      1  C1' MOL d          43.191  -2.296  32.724  0.00  0.00     0.025 A 
ATOM      2  C2' MOL d          42.580  -3.232  33.552  0.00  0.00    -0.068 A 
ATOM      3  C3' MOL d          42.396  -3.001  34.896  0.00  0.00    -0.081 A 
ATOM      4  C4' MOL d          42.820  -1.816  35.450  0.00  0.00    -0.070 A 
ATOM      5  C5' MOL d          43.448  -0.813  34.677  0.00  0.00     0.008 A 
ATOM      6  C6' MOL d          43.619  -1.091  33.320  0.00  0.00     0.089 A 
ATOM      7  H10 MOL d          42.239  -4.169  33.127  0.00  0.00     0.085 H 
ATOM      8  H11 MOL d          41.919  -3.751  35.516  0.00  0.00     0.083 H 
ATOM      9  H12 MOL d          42.667  -1.646  36.510  0.00  0.00     0.085 H 
ENDROOT
BRANCH   1  10
ATOM     10  C8  MOL d          43.367  -2.541  31.360  0.00  0.00     0.046 A 
ATOM     11  N3  MOL d          43.386  -3.737  30.859  0.00  0.00    -0.355 N 
ATOM     12  C4  MOL d          43.621  -3.571  29.608  0.00  0.00     0.043 A 
ATOM     13  H8  MOL d          43.242  -4.627  31.357  0.00  0.00     0.166 HD
ATOM     14  C3  MOL d          43.723  -4.510  28.636  0.00  0.00    -0.055 A 
ATOM     15  C5  MOL d          43.735  -2.257  29.394  0.00  0.00    -0.006 A 
ATOM     16  C2  MOL d          43.964  -4.046  27.344  0.00  0.00    -0.067 A 
ATOM     17  H2  MOL d          43.622  -5.568  28.852  0.00  0.00     0.087 H 
ATOM     18  C1  MOL d          44.103  -2.650  27.036  0.00  0.00     0.008 A 
ATOM     19  H1  MOL d          44.051  -4.767  26.540  0.00  0.00     0.085 H 
ATOM     20  C6  MOL d          43.980  -1.735  28.120  0.00  0.00    -0.057 A 
ATOM     21  H3  MOL d          44.073  -0.666  27.962  0.00  0.00     0.086 H 
ATOM     22  CN4 MOL d          43.579  -1.554  30.510  0.00  0.00    -0.044 A 
ATOM     23  H9  MOL d          43.615  -0.479  30.674  0.00  0.00     0.088 H 
BRANCH  18  24
ATOM     24  C7  MOL d          44.335  -2.247  25.707  0.00  0.00     0.102 C 
ATOM     25  N2  MOL d          44.175  -0.982  25.369  0.00  0.00    -0.385 N 
ATOM     26  H6  MOL d          43.883  -0.294  26.077  0.00  0.00     0.157 HD
ATOM     27  H7  MOL d          44.341  -0.684  24.397  0.00  0.00     0.157 HD
BRANCH  24  28
ATOM     28  N1  MOL d          44.707  -3.122  24.800  0.00  0.00    -0.385 N 
ATOM     29  H4  MOL d          45.705  -3.346  24.681  0.00  0.00     0.157 HD
ATOM     30  H5  MOL d          44.001  -3.582  24.209  0.00  0.00     0.157 HD
ENDBRANCH  24  28
ENDBRANCH  18  24
ENDBRANCH   1  10
BRANCH   6  31
ATOM     31  O6' MOL d          44.248  -0.152  32.529  0.00  0.00    -0.359 OA
ATOM     32  H13 MOL d          44.537  -0.562  31.722  0.00  0.00     0.217 HD
ENDBRANCH   6  31
BRANCH   5  33
ATOM     33  C1' MOL d          43.847   0.406  35.274  0.00  0.00    -0.023 A 
ATOM     34  C2' MOL d          43.029   1.525  35.319  0.00  0.00    -0.072 A 
ATOM     35  C3' MOL d          43.439   2.717  35.877  0.00  0.00    -0.082 A 
ATOM     36  H14 MOL d          42.031   1.460  34.900  0.00  0.00     0.084 H 
ATOM     37  C4' MOL d          44.692   2.838  36.423  0.00  0.00    -0.083 A 
ATOM     38  H15 MOL d          42.765   3.567  35.885  0.00  0.00     0.083 H 
ATOM     39  C5' MOL d          45.556   1.750  36.411  0.00  0.00    -0.082 A 
ATOM     40  H16 MOL d          45.007   3.778  36.861  0.00  0.00     0.083 H 
ATOM     41  C6' MOL d          45.128   0.552  35.843  0.00  0.00    -0.072 A 
ATOM     42  H17 MOL d          46.549   1.832  36.839  0.00  0.00     0.083 H 
ATOM     43  H18 MOL d          45.804  -0.296  35.838  0.00  0.00     0.084 H 
ENDBRANCH   5  33
TORSDOF 5
ENDMDL
MODEL 4
REMARK VINA RESULT:      -6.8      2.892      8.389
REMARK  5 active torsions:
REMARK  status: ('A' for Active; 'I' for Inactive)
REMARK    1  A    between atoms: C1_1  and  C7_7 
REMARK    2  A    between atoms: C7_7  and  N1_8 
REMARK    3  A    between atoms: C8_12  and  C1'_13 
REMARK    4  A    between atoms: C5'_17  and  C1''_20 
REMARK    5  A    between atoms: C6'_18  and  O6'_19 
ROOT
ATOM      1  C1' MOL d          43.008  -2.062  31.771  0.00  0.00     0.025 A 
ATOM      2  C2' MOL d          42.062  -3.034  32.077  0.00  0.00    -0.068 A 
ATOM      3  C3' MOL d          41.603  -3.923  31.133  0.00  0.00    -0.081 A 
ATOM      4  C4' MOL d          42.085  -3.863  29.847  0.00  0.00    -0.070 A 
ATOM      5  C5' MOL d          43.049  -2.907  29.455  0.00  0.00     0.008 A 
ATOM      6  C6' MOL d          43.484  -2.022  30.443  0.00  0.00     0.089 A 
ATOM      7  H10 MOL d          41.676  -3.094  33.088  0.00  0.00     0.085 H 
ATOM      8  H11 MOL d          40.863  -4.668  31.402  0.00  0.00     0.083 H 
ATOM      9  H12 MOL d          41.716  -4.570  29.113  0.00  0.00     0.085 H 
ENDROOT
BRANCH   1  10
ATOM     10  C8  MOL d          43.471  -1.170  32.740  0.00  0.00     0.046 A 
ATOM     11  N3  MOL d          44.616  -1.309  33.334  0.00  0.00    -0.355 N 
ATOM     12  C4  MOL d          44.670  -0.351  34.185  0.00  0.00     0.043 A 
ATOM     13  H8  MOL d          45.327  -2.034  33.159  0.00  0.00     0.166 HD
ATOM     14  C3  MOL d          45.670  -0.042  35.046  0.00  0.00    -0.055 A 
ATOM     15  C5  MOL d          43.538   0.349  34.072  0.00  0.00    -0.006 A 
ATOM     16  C2  MOL d          45.474   1.079  35.852  0.00  0.00    -0.067 A 
ATOM     17  H2  MOL d          46.576  -0.635  35.106  0.00  0.00     0.087 H 
ATOM     18  C1  MOL d          44.282   1.878  35.791  0.00  0.00     0.008 A 
ATOM     19  H1  MOL d          46.252   1.358  36.553  0.00  0.00     0.085 H 
ATOM     20  C6  MOL d          43.286   1.480  34.856  0.00  0.00    -0.057 A 
ATOM     21  H3  MOL d          42.360   2.035  34.755  0.00  0.00     0.086 H 
ATOM     22  CN4 MOL d          42.731  -0.154  33.145  0.00  0.00    -0.044 A 
ATOM     23  H9  MOL d          41.747   0.175  32.814  0.00  0.00     0.088 H 
BRANCH  18  24
ATOM     24  C7  MOL d          44.153   3.005  36.626  0.00  0.00     0.102 C 
ATOM     25  N2  MOL d          43.159   3.849  36.435  0.00  0.00    -0.385 N 
ATOM     26  H6  MOL d          42.480   3.683  35.678  0.00  0.00     0.157 HD
ATOM     27  H7  MOL d          43.061   4.676  37.041  0.00  0.00     0.157 HD
BRANCH  24  28
ATOM     28  N1  MOL d          45.016   3.222  37.591  0.00  0.00    -0.385 N 
ATOM     29  H4  MOL d          46.018   3.036  37.438  0.00  0.00     0.157 HD
ATOM     30  H5  MOL d          44.691   3.578  38.502  0.00  0.00     0.157 HD
ENDBRANCH  24  28
ENDBRANCH  18  24
ENDBRANCH   1  10
BRANCH   6  31
ATOM     31  O6' MOL d          44.406  -1.055  30.102  0.00  0.00    -0.359 OA
ATOM     32  H13 MOL d          44.013  -0.447  29.488  0.00  0.00     0.217 HD
ENDBRANCH   6  31
BRANCH   5  33
ATOM     33  C1' MOL d          43.543  -2.891  28.129  0.00  0.00    -0.023 A 
ATOM     34  C2' MOL d          43.875  -1.719  27.463  0.00  0.00    -0.072 A 
ATOM     35  C3' MOL d          44.327  -1.714  26.161  0.00  0.00    -0.082 A 
ATOM     36  H14 MOL d          43.774  -0.775  27.986  0.00  0.00     0.084 H 
ATOM     37  C4' MOL d          44.473  -2.889  25.468  0.00  0.00    -0.083 A 
ATOM     38  H15 MOL d          44.570  -0.772  25.681  0.00  0.00     0.083 H 
ATOM     39  C5' MOL d          44.161  -4.095  26.083  0.00  0.00    -0.082 A 
ATOM     40  H16 MOL d          44.831  -2.876  24.445  0.00  0.00     0.083 H 
ATOM     41  C6' MOL d          43.704  -4.085  27.398  0.00  0.00    -0.072 A 
ATOM     42  H17 MOL d          44.271  -5.030  25.546  0.00  0.00     0.083 H 
ATOM     43  H18 MOL d          43.463  -5.028  27.876  0.00  0.00     0.084 H 
ENDBRANCH   5  33
TORSDOF 5
ENDMDL
MODEL 5
REMARK VINA RESULT:      -6.4      2.364      3.495
REMARK  5 active torsions:
REMARK  status: ('A' for Active; 'I' for Inactive)
REMARK    1  A    between atoms: C1_1  and  C7_7 
REMARK    2  A    between atoms: C7_7  and  N1_8 
REMARK    3  A    between atoms: C8_12  and  C1'_13 
REMARK    4  A    between atoms: C5'_17  and  C1''_20 
REMARK    5  A    between atoms: C6'_18  and  O6'_19 
ROOT
ATOM      1  C1' MOL d          42.692  -2.014  32.024  0.00  0.00     0.025 A 
ATOM      2  C2' MOL d          42.076  -0.838  32.439  0.00  0.00    -0.068 A 
ATOM      3  C3' MOL d          41.603  -0.680  33.721  0.00  0.00    -0.081 A 
ATOM      4  C4' MOL d          41.737  -1.703  34.630  0.00  0.00    -0.070 A 
ATOM      5  C5' MOL d          42.353  -2.928  34.288  0.00  0.00     0.008 A 
ATOM      6  C6' MOL d          42.815  -3.047  32.977  0.00  0.00     0.089 A 
ATOM      7  H10 MOL d          41.966  -0.023  31.733  0.00  0.00     0.085 H 
ATOM      8  H11 MOL d          41.124   0.248  34.013  0.00  0.00     0.083 H 
ATOM      9  H12 MOL d          41.361  -1.565  35.637  0.00  0.00     0.085 H 
ENDROOT
BRANCH   1  10
ATOM     10  C8  MOL d          43.174  -2.159  30.722  0.00  0.00     0.046 A 
ATOM     11  N3  MOL d          43.930  -1.274  30.150  0.00  0.00    -0.355 N 
ATOM     12  C4  MOL d          44.123  -1.715  28.961  0.00  0.00     0.043 A 
ATOM     13  H8  MOL d          44.298  -0.404  30.563  0.00  0.00     0.166 HD
ATOM     14  C3  MOL d          44.860  -1.166  27.965  0.00  0.00    -0.055 A 
ATOM     15  C5  MOL d          43.466  -2.874  28.854  0.00  0.00    -0.006 A 
ATOM     16  C2  MOL d          44.915  -1.877  26.767  0.00  0.00    -0.067 A 
ATOM     17  H2  MOL d          45.379  -0.223  28.093  0.00  0.00     0.087 H 
ATOM     18  C1  MOL d          44.234  -3.127  26.575  0.00  0.00     0.008 A 
ATOM     19  H1  MOL d          45.496  -1.470  25.947  0.00  0.00     0.085 H 
ATOM     20  C6  MOL d          43.484  -3.628  27.676  0.00  0.00    -0.057 A 
ATOM     21  H3  MOL d          42.944  -4.565  27.604  0.00  0.00     0.086 H 
ATOM     22  CN4 MOL d          42.835  -3.195  29.978  0.00  0.00    -0.044 A 
ATOM     23  H9  MOL d          42.219  -4.061  30.216  0.00  0.00     0.088 H 
BRANCH  18  24
ATOM     24  C7  MOL d          44.341  -3.799  25.342  0.00  0.00     0.102 C 
ATOM     25  N2  MOL d          44.072  -5.088  25.275  0.00  0.00    -0.385 N 
ATOM     26  H6  MOL d          43.784  -5.599  26.122  0.00  0.00     0.157 HD
ATOM     27  H7  MOL d          44.152  -5.585  24.376  0.00  0.00     0.157 HD
BRANCH  24  28
ATOM     28  N1  MOL d          44.709  -3.153  24.260  0.00  0.00    -0.385 N 
ATOM     29  H4  MOL d          44.008  -2.646  23.699  0.00  0.00     0.157 HD
ATOM     30  H5  MOL d          45.698  -3.153  23.972  0.00  0.00     0.157 HD
ENDBRANCH  24  28
ENDBRANCH  18  24
ENDBRANCH   1  10
BRANCH   6  31
ATOM     31  O6' MOL d          43.401  -4.234  32.590  0.00  0.00    -0.359 OA
ATOM     32  H13 MOL d          42.727  -4.843  32.313  0.00  0.00     0.217 HD
ENDBRANCH   6  31
BRANCH   5  33
ATOM     33  C1' MOL d          42.499  -3.950  35.257  0.00  0.00    -0.023 A 
ATOM     34  C2' MOL d          42.275  -5.290  34.976  0.00  0.00    -0.072 A 
ATOM     35  C3' MOL d          42.391  -6.274  35.935  0.00  0.00    -0.082 A 
ATOM     36  H14 MOL d          42.000  -5.574  33.967  0.00  0.00     0.084 H 
ATOM     37  C4' MOL d          42.743  -5.955  37.223  0.00  0.00    -0.083 A 
ATOM     38  H15 MOL d          42.203  -7.308  35.670  0.00  0.00     0.083 H 
ATOM     39  C5' MOL d          42.983  -4.630  37.563  0.00  0.00    -0.082 A 
ATOM     40  H16 MOL d          42.834  -6.734  37.971  0.00  0.00     0.083 H 
ATOM     41  C6' MOL d          42.862  -3.647  36.585  0.00  0.00    -0.072 A 
ATOM     42  H17 MOL d          43.262  -4.365  38.578  0.00  0.00     0.083 H 
ATOM     43  H18 MOL d          43.052  -2.614  36.853  0.00  0.00     0.084 H 
ENDBRANCH   5  33
TORSDOF 5
ENDMDL
