MODEL 1
REMARK VINA RESULT:      -9.7      0.000      0.000
REMARK  8 active torsions:
REMARK  status: ('A' for Active; 'I' for Inactive)
REMARK    1  A    between atoms: CA_4  and  C_1 
REMARK    2  A    between atoms: N_2  and  CA_4 
REMARK    3  A    between atoms: OAR_19  and  CAA_5 
REMARK    4  A    between atoms: NAQ_18  and  CAO_17 
REMARK    5  A    between atoms: CAO_17  and  CAV_22 
REMARK    6  A    between atoms: SBC_28  and  NAQ_18 
REMARK    7  A    between atoms: CAU_21  and  OAR_19 
REMARK    8  A    between atoms: CAW_23  and  SBC_28 
ROOT
ATOM      1  N   FG5 d           0.721 -11.310  38.299  0.00  0.00    -0.338 N 
ATOM      2  CAH FG5 d          -0.354  -9.802  41.443  0.00  0.00    -0.049 A 
ATOM      3  CAK FG5 d           0.211 -10.722  40.579  0.00  0.00    -0.054 A 
ATOM      4  CAL FG5 d          -0.880  -8.514  39.455  0.00  0.00    -0.039 A 
ATOM      5  CAM FG5 d          -0.161  -9.535  37.332  0.00  0.00    -0.047 A 
ATOM      6  CAU FG5 d          -0.907  -8.675  40.855  0.00  0.00     0.069 A 
ATOM      7  CAV FG5 d           0.494 -10.688  37.139  0.00  0.00     0.032 A 
ATOM      8  CAY FG5 d          -0.320  -9.444  38.659  0.00  0.00    -0.005 A 
ATOM      9  CBA FG5 d           0.225 -10.534  39.246  0.00  0.00     0.045 A 
ATOM     10  H8  FG5 d          -0.364  -9.954  42.517  0.00  0.00     0.087 H 
ATOM     11  H11 FG5 d           0.655 -11.622  40.988  0.00  0.00     0.087 H 
ATOM     12  H12 FG5 d          -1.318  -7.628  39.012  0.00  0.00     0.089 H 
ATOM     13  H13 FG5 d          -0.491  -8.826  36.574  0.00  0.00     0.088 H 
ENDROOT
BRANCH   7  14
ATOM     14  CAO FG5 d           0.957 -11.320  35.802  0.00  0.00     0.041 C 
ATOM     15  H15 FG5 d           2.042 -11.166  35.708  0.00  0.00     0.074 H 
ATOM     16  H16 FG5 d           0.742 -12.398  35.841  0.00  0.00     0.074 H 
BRANCH  14  17
ATOM     17  NAQ FG5 d           0.312 -10.768  34.601  0.00  0.00    -0.308 N 
ATOM     18  H17 FG5 d          -0.533 -11.120  34.196  0.00  0.00     0.172 HD
BRANCH  17  19
ATOM     19  SBC FG5 d           1.252  -9.366  33.958  0.00  0.00     0.281 S 
ATOM     20  OAC FG5 d           2.665  -9.447  34.557  0.00  0.00    -0.199 OA
ATOM     21  OAD FG5 d           0.618  -7.986  34.211  0.00  0.00    -0.199 OA
BRANCH  19  22
ATOM     22  CAW FG5 d           1.376  -9.568  32.210  0.00  0.00     0.191 A 
ATOM     23  CAN FG5 d           1.789  -8.602  31.410  0.00  0.00    -0.025 A 
ATOM     24  CAX FG5 d           1.781  -9.031  30.156  0.00  0.00     0.001 A 
ATOM     25  H14 FG5 d           2.090  -7.606  31.731  0.00  0.00     0.090 H 
ATOM     26  CAI FG5 d           2.117  -8.390  29.032  0.00  0.00    -0.070 A 
ATOM     27  CAZ FG5 d           1.345 -10.297  30.166  0.00  0.00     0.087 A 
ATOM     28  CAF FG5 d           2.020  -9.039  27.815  0.00  0.00    -0.082 A 
ATOM     29  H9  FG5 d           2.464  -7.364  29.075  0.00  0.00     0.084 H 
ATOM     30  CAG FG5 d           1.569 -10.357  27.831  0.00  0.00    -0.080 A 
ATOM     31  H6  FG5 d           2.283  -8.544  26.887  0.00  0.00     0.083 H 
ATOM     32  CAJ FG5 d           1.237 -10.981  29.030  0.00  0.00    -0.049 A 
ATOM     33  H7  FG5 d           1.474 -10.902  26.899  0.00  0.00     0.083 H 
ATOM     34  H10 FG5 d           0.896 -12.010  29.039  0.00  0.00     0.087 H 
ATOM     35  OAS FG5 d           1.078 -10.651  31.505  0.00  0.00    -0.296 OA
ENDBRANCH  19  22
ENDBRANCH  17  19
ENDBRANCH  14  17
ENDBRANCH   7  14
BRANCH   1  36
ATOM     36  CA  FG5 d           1.421 -12.576  38.740  0.00  0.00     0.080 C 
ATOM     37  H1  FG5 d           1.184 -12.719  39.805  0.00  0.00     0.081 H 
ATOM     38  H2  FG5 d           0.988 -13.401  38.154  0.00  0.00     0.081 H 
BRANCH  36  39
ATOM     39  C   FG5 d           2.927 -12.684  38.606  0.00  0.00     0.191 C 
ATOM     40  O   FG5 d           3.578 -12.522  39.678  0.00  0.00    -0.647 OA
ATOM     41  OXT FG5 d           3.396 -12.964  37.482  0.00  0.00    -0.647 OA
ENDBRANCH  36  39
ENDBRANCH   1  36
BRANCH   6  42
ATOM     42  OAR FG5 d          -1.467  -7.773  41.685  0.00  0.00    -0.356 OA
BRANCH  42  43
ATOM     43  CAA FG5 d          -2.352  -6.843  41.060  0.00  0.00     0.010 C 
ATOM     44  H3  FG5 d          -3.392  -7.116  41.291  0.00  0.00     0.066 H 
ATOM     45  H4  FG5 d          -2.200  -6.868  39.971  0.00  0.00     0.066 H 
ATOM     46  H5  FG5 d          -2.147  -5.831  41.436  0.00  0.00     0.066 H 
ENDBRANCH  42  43
ENDBRANCH   6  42
TORSDOF 8
ENDMDL
MODEL 2
REMARK VINA RESULT:      -8.7      1.995      8.858
REMARK  8 active torsions:
REMARK  status: ('A' for Active; 'I' for Inactive)
REMARK    1  A    between atoms: CA_4  and  C_1 
REMARK    2  A    between atoms: N_2  and  CA_4 
REMARK    3  A    between atoms: OAR_19  and  CAA_5 
REMARK    4  A    between atoms: NAQ_18  and  CAO_17 
REMARK    5  A    between atoms: CAO_17  and  CAV_22 
REMARK    6  A    between atoms: SBC_28  and  NAQ_18 
REMARK    7  A    between atoms: CAU_21  and  OAR_19 
REMARK    8  A    between atoms: CAW_23  and  SBC_28 
ROOT
ATOM      1  N   FG5 d           1.760  -9.763  33.709  0.00  0.00    -0.338 N 
ATOM      2  CAH FG5 d           2.615  -8.873  30.276  0.00  0.00    -0.049 A 
ATOM      3  CAK FG5 d           2.545  -8.782  31.653  0.00  0.00    -0.054 A 
ATOM      4  CAL FG5 d           1.333 -10.918  30.516  0.00  0.00    -0.039 A 
ATOM      5  CAM FG5 d           0.749 -11.515  32.833  0.00  0.00    -0.047 A 
ATOM      6  CAU FG5 d           1.992  -9.972  29.706  0.00  0.00     0.069 A 
ATOM      7  CAV FG5 d           1.063 -10.872  33.967  0.00  0.00     0.032 A 
ATOM      8  CAY FG5 d           1.291 -10.779  31.854  0.00  0.00    -0.005 A 
ATOM      9  CBA FG5 d           1.911  -9.708  32.398  0.00  0.00     0.045 A 
ATOM     10  H8  FG5 d           3.127  -8.128  29.677  0.00  0.00     0.087 H 
ATOM     11  H11 FG5 d           3.015  -7.941  32.149  0.00  0.00     0.087 H 
ATOM     12  H12 FG5 d           0.851 -11.772  30.054  0.00  0.00     0.089 H 
ATOM     13  H13 FG5 d           0.177 -12.437  32.731  0.00  0.00     0.088 H 
ENDROOT
BRANCH   7  14
ATOM     14  CAO FG5 d           0.705 -11.259  35.423  0.00  0.00     0.041 C 
ATOM     15  H15 FG5 d           1.230 -10.569  36.100  0.00  0.00     0.074 H 
ATOM     16  H16 FG5 d          -0.382 -11.141  35.551  0.00  0.00     0.074 H 
BRANCH  14  17
ATOM     17  NAQ FG5 d           1.063 -12.634  35.804  0.00  0.00    -0.308 N 
ATOM     18  H17 FG5 d           0.993 -13.428  35.200  0.00  0.00     0.172 HD
BRANCH  17  19
ATOM     19  SBC FG5 d           1.646 -12.692  37.513  0.00  0.00     0.281 S 
ATOM     20  OAC FG5 d           3.147 -12.366  37.498  0.00  0.00    -0.199 OA
ATOM     21  OAD FG5 d           1.371 -14.017  38.249  0.00  0.00    -0.199 OA
BRANCH  19  22
ATOM     22  CAW FG5 d           0.808 -11.421  38.402  0.00  0.00     0.191 A 
ATOM     23  CAN FG5 d           0.795 -11.366  39.722  0.00  0.00    -0.025 A 
ATOM     24  CAX FG5 d           0.093 -10.312  40.115  0.00  0.00     0.001 A 
ATOM     25  H14 FG5 d           1.285 -12.078  40.385  0.00  0.00     0.090 H 
ATOM     26  CAI FG5 d          -0.178  -9.880  41.350  0.00  0.00    -0.070 A 
ATOM     27  CAZ FG5 d          -0.352  -9.691  39.015  0.00  0.00     0.087 A 
ATOM     28  CAF FG5 d          -0.949  -8.746  41.528  0.00  0.00    -0.082 A 
ATOM     29  H9  FG5 d           0.205 -10.418  42.211  0.00  0.00     0.084 H 
ATOM     30  CAG FG5 d          -1.408  -8.102  40.381  0.00  0.00    -0.080 A 
ATOM     31  H6  FG5 d          -1.188  -8.374  42.518  0.00  0.00     0.083 H 
ATOM     32  CAJ FG5 d          -1.091  -8.591  39.116  0.00  0.00    -0.049 A 
ATOM     33  H7  FG5 d          -2.018  -7.211  40.474  0.00  0.00     0.083 H 
ATOM     34  H10 FG5 d          -1.441  -8.081  38.226  0.00  0.00     0.087 H 
ATOM     35  OAS FG5 d           0.111 -10.413  37.896  0.00  0.00    -0.296 OA
ENDBRANCH  19  22
ENDBRANCH  17  19
ENDBRANCH  14  17
ENDBRANCH   7  14
BRANCH   1  36
ATOM     36  CA  FG5 d           2.416  -8.672  34.527  0.00  0.00     0.080 C 
ATOM     37  H1  FG5 d           2.882  -9.161  35.396  0.00  0.00     0.081 H 
ATOM     38  H2  FG5 d           3.199  -8.226  33.895  0.00  0.00     0.081 H 
BRANCH  36  39
ATOM     39  C   FG5 d           1.576  -7.529  35.062  0.00  0.00     0.191 C 
ATOM     40  O   FG5 d           2.215  -6.473  35.339  0.00  0.00    -0.647 OA
ATOM     41  OXT FG5 d           0.341  -7.700  35.143  0.00  0.00    -0.647 OA
ENDBRANCH  36  39
ENDBRANCH   1  36
BRANCH   6  42
ATOM     42  OAR FG5 d           2.048 -10.071  28.363  0.00  0.00    -0.356 OA
BRANCH  42  43
ATOM     43  CAA FG5 d           1.420 -11.230  27.815  0.00  0.00     0.010 C 
ATOM     44  H3  FG5 d           2.138 -11.770  27.180  0.00  0.00     0.066 H 
ATOM     45  H4  FG5 d           0.553 -10.925  27.210  0.00  0.00     0.066 H 
ATOM     46  H5  FG5 d           1.085 -11.886  28.631  0.00  0.00     0.066 H 
ENDBRANCH  42  43
ENDBRANCH   6  42
TORSDOF 8
ENDMDL
MODEL 3
REMARK VINA RESULT:      -7.9      2.166      8.749
REMARK  8 active torsions:
REMARK  status: ('A' for Active; 'I' for Inactive)
REMARK    1  A    between atoms: CA_4  and  C_1 
REMARK    2  A    between atoms: N_2  and  CA_4 
REMARK    3  A    between atoms: OAR_19  and  CAA_5 
REMARK    4  A    between atoms: NAQ_18  and  CAO_17 
REMARK    5  A    between atoms: CAO_17  and  CAV_22 
REMARK    6  A    between atoms: SBC_28  and  NAQ_18 
REMARK    7  A    between atoms: CAU_21  and  OAR_19 
REMARK    8  A    between atoms: CAW_23  and  SBC_28 
ROOT
ATOM      1  N   FG5 d           0.989 -10.820  33.495  0.00  0.00    -0.338 N 
ATOM      2  CAH FG5 d           1.680 -10.606  29.919  0.00  0.00    -0.049 A 
ATOM      3  CAK FG5 d           1.399 -11.174  31.147  0.00  0.00    -0.054 A 
ATOM      4  CAL FG5 d           1.660  -8.480  31.089  0.00  0.00    -0.039 A 
ATOM      5  CAM FG5 d           1.200  -8.625  33.504  0.00  0.00    -0.047 A 
ATOM      6  CAU FG5 d           1.809  -9.225  29.902  0.00  0.00     0.069 A 
ATOM      7  CAV FG5 d           0.943  -9.715  34.243  0.00  0.00     0.032 A 
ATOM      8  CAY FG5 d           1.390  -9.085  32.261  0.00  0.00    -0.005 A 
ATOM      9  CBA FG5 d           1.257 -10.431  32.261  0.00  0.00     0.045 A 
ATOM     10  H8  FG5 d           1.794 -11.204  29.022  0.00  0.00     0.087 H 
ATOM     11  H11 FG5 d           1.290 -12.250  31.215  0.00  0.00     0.087 H 
ATOM     12  H12 FG5 d           1.764  -7.402  31.058  0.00  0.00     0.089 H 
ATOM     13  H13 FG5 d           1.245  -7.591  33.843  0.00  0.00     0.088 H 
ENDROOT
BRANCH   7  14
ATOM     14  CAO FG5 d           0.641  -9.800  35.760  0.00  0.00     0.041 C 
ATOM     15  H15 FG5 d           0.310  -8.807  36.098  0.00  0.00     0.074 H 
ATOM     16  H16 FG5 d          -0.172 -10.526  35.906  0.00  0.00     0.074 H 
BRANCH  14  17
ATOM     17  NAQ FG5 d           1.779 -10.212  36.595  0.00  0.00    -0.308 N 
ATOM     18  H17 FG5 d           2.737 -10.006  36.393  0.00  0.00     0.172 HD
BRANCH  17  19
ATOM     19  SBC FG5 d           1.211 -11.142  38.035  0.00  0.00     0.281 S 
ATOM     20  OAC FG5 d           2.454 -11.547  38.842  0.00  0.00    -0.199 OA
ATOM     21  OAD FG5 d           0.332 -12.366  37.713  0.00  0.00    -0.199 OA
BRANCH  19  22
ATOM     22  CAW FG5 d           0.238 -10.051  39.021  0.00  0.00     0.191 A 
ATOM     23  CAN FG5 d          -0.473  -9.067  38.502  0.00  0.00    -0.025 A 
ATOM     24  CAX FG5 d          -1.099  -8.413  39.471  0.00  0.00     0.001 A 
ATOM     25  H14 FG5 d          -0.537  -8.829  37.442  0.00  0.00     0.090 H 
ATOM     26  CAI FG5 d          -1.916  -7.357  39.400  0.00  0.00    -0.070 A 
ATOM     27  CAZ FG5 d          -0.768  -8.996  40.630  0.00  0.00     0.087 A 
ATOM     28  CAF FG5 d          -2.455  -6.826  40.557  0.00  0.00    -0.082 A 
ATOM     29  H9  FG5 d          -2.155  -6.919  38.437  0.00  0.00     0.084 H 
ATOM     30  CAG FG5 d          -2.109  -7.438  41.759  0.00  0.00    -0.080 A 
ATOM     31  H6  FG5 d          -3.118  -5.969  40.529  0.00  0.00     0.083 H 
ATOM     32  CAJ FG5 d          -1.259  -8.539  41.778  0.00  0.00    -0.049 A 
ATOM     33  H7  FG5 d          -2.507  -7.051  42.691  0.00  0.00     0.083 H 
ATOM     34  H10 FG5 d          -1.000  -9.019  42.716  0.00  0.00     0.087 H 
ATOM     35  OAS FG5 d           0.106 -10.065  40.341  0.00  0.00    -0.296 OA
ENDBRANCH  19  22
ENDBRANCH  17  19
ENDBRANCH  14  17
ENDBRANCH   7  14
BRANCH   1  36
ATOM     36  CA  FG5 d           0.759 -12.299  33.719  0.00  0.00     0.080 C 
ATOM     37  H1  FG5 d          -0.284 -12.414  34.050  0.00  0.00     0.081 H 
ATOM     38  H2  FG5 d           0.891 -12.794  32.745  0.00  0.00     0.081 H 
BRANCH  36  39
ATOM     39  C   FG5 d           1.622 -13.048  34.715  0.00  0.00     0.191 C 
ATOM     40  O   FG5 d           2.753 -12.531  34.947  0.00  0.00    -0.647 OA
ATOM     41  OXT FG5 d           1.142 -14.069  35.251  0.00  0.00    -0.647 OA
ENDBRANCH  36  39
ENDBRANCH   1  36
BRANCH   6  42
ATOM     42  OAR FG5 d           2.089  -8.658  28.712  0.00  0.00    -0.356 OA
BRANCH  42  43
ATOM     43  CAA FG5 d           3.305  -9.096  28.105  0.00  0.00     0.010 C 
ATOM     44  H3  FG5 d           3.714  -9.944  28.673  0.00  0.00     0.066 H 
ATOM     45  H4  FG5 d           4.032  -8.270  28.103  0.00  0.00     0.066 H 
ATOM     46  H5  FG5 d           3.106  -9.411  27.070  0.00  0.00     0.066 H 
ENDBRANCH  42  43
ENDBRANCH   6  42
TORSDOF 8
ENDMDL
MODEL 4
REMARK VINA RESULT:      -7.4      1.388      3.975
REMARK  8 active torsions:
REMARK  status: ('A' for Active; 'I' for Inactive)
REMARK    1  A    between atoms: CA_4  and  C_1 
REMARK    2  A    between atoms: N_2  and  CA_4 
REMARK    3  A    between atoms: OAR_19  and  CAA_5 
REMARK    4  A    between atoms: NAQ_18  and  CAO_17 
REMARK    5  A    between atoms: CAO_17  and  CAV_22 
REMARK    6  A    between atoms: SBC_28  and  NAQ_18 
REMARK    7  A    between atoms: CAU_21  and  OAR_19 
REMARK    8  A    between atoms: CAW_23  and  SBC_28 
ROOT
ATOM      1  N   FG5 d          -0.072 -10.489  37.778  0.00  0.00    -0.338 N 
ATOM      2  CAH FG5 d           2.011 -12.399  40.085  0.00  0.00    -0.049 A 
ATOM      3  CAK FG5 d           0.967 -11.610  39.640  0.00  0.00    -0.054 A 
ATOM      4  CAL FG5 d           2.796 -12.356  37.789  0.00  0.00    -0.039 A 
ATOM      5  CAM FG5 d           1.394 -11.061  36.233  0.00  0.00    -0.047 A 
ATOM      6  CAU FG5 d           2.940 -12.777  39.127  0.00  0.00     0.069 A 
ATOM      7  CAV FG5 d           0.255 -10.401  36.485  0.00  0.00     0.032 A 
ATOM      8  CAY FG5 d           1.761 -11.584  37.410  0.00  0.00    -0.005 A 
ATOM      9  CBA FG5 d           0.857 -11.232  38.352  0.00  0.00     0.045 A 
ATOM     10  H8  FG5 d           2.099 -12.705  41.121  0.00  0.00     0.087 H 
ATOM     11  H11 FG5 d           0.214 -11.287  40.349  0.00  0.00     0.087 H 
ATOM     12  H12 FG5 d           3.532 -12.660  37.053  0.00  0.00     0.089 H 
ATOM     13  H13 FG5 d           1.909 -11.152  35.277  0.00  0.00     0.088 H 
ENDROOT
BRANCH   7  14
ATOM     14  CAO FG5 d          -0.631  -9.598  35.500  0.00  0.00     0.041 C 
ATOM     15  H15 FG5 d          -1.669  -9.943  35.615  0.00  0.00     0.074 H 
ATOM     16  H16 FG5 d          -0.567  -8.534  35.771  0.00  0.00     0.074 H 
BRANCH  14  17
ATOM     17  NAQ FG5 d          -0.258  -9.732  34.083  0.00  0.00    -0.308 N 
ATOM     18  H17 FG5 d          -0.631 -10.420  33.460  0.00  0.00     0.172 HD
BRANCH  17  19
ATOM     19  SBC FG5 d           0.964  -8.485  33.624  0.00  0.00     0.281 S 
ATOM     20  OAC FG5 d           2.174  -8.660  34.556  0.00  0.00    -0.199 OA
ATOM     21  OAD FG5 d           0.451  -7.033  33.645  0.00  0.00    -0.199 OA
BRANCH  19  22
ATOM     22  CAW FG5 d           1.479  -8.830  31.973  0.00  0.00     0.191 A 
ATOM     23  CAN FG5 d           0.863  -9.710  31.205  0.00  0.00    -0.025 A 
ATOM     24  CAX FG5 d           1.462  -9.764  30.023  0.00  0.00     0.001 A 
ATOM     25  H14 FG5 d          -0.003 -10.301  31.497  0.00  0.00     0.090 H 
ATOM     26  CAI FG5 d           1.176 -10.513  28.954  0.00  0.00    -0.070 A 
ATOM     27  CAZ FG5 d           2.485  -8.900  30.050  0.00  0.00     0.087 A 
ATOM     28  CAF FG5 d           1.953 -10.411  27.815  0.00  0.00    -0.082 A 
ATOM     29  H9  FG5 d           0.336 -11.199  28.981  0.00  0.00     0.084 H 
ATOM     30  CAG FG5 d           3.013  -9.509  27.847  0.00  0.00    -0.080 A 
ATOM     31  H6  FG5 d           1.745 -11.007  26.934  0.00  0.00     0.083 H 
ATOM     32  CAJ FG5 d           3.265  -8.747  28.985  0.00  0.00    -0.049 A 
ATOM     33  H7  FG5 d           3.650  -9.399  26.976  0.00  0.00     0.083 H 
ATOM     34  H10 FG5 d           4.086  -8.039  29.002  0.00  0.00     0.087 H 
ATOM     35  OAS FG5 d           2.500  -8.289  31.321  0.00  0.00    -0.296 OA
ENDBRANCH  19  22
ENDBRANCH  17  19
ENDBRANCH  14  17
ENDBRANCH   7  14
BRANCH   1  36
ATOM     36  CA  FG5 d          -1.215 -10.015  38.648  0.00  0.00     0.080 C 
ATOM     37  H1  FG5 d          -2.119 -10.023  38.022  0.00  0.00     0.081 H 
ATOM     38  H2  FG5 d          -1.325 -10.750  39.459  0.00  0.00     0.081 H 
BRANCH  36  39
ATOM     39  C   FG5 d          -1.143  -8.648  39.299  0.00  0.00     0.191 C 
ATOM     40  O   FG5 d          -0.320  -8.547  40.255  0.00  0.00    -0.647 OA
ATOM     41  OXT FG5 d          -1.851  -7.735  38.822  0.00  0.00    -0.647 OA
ENDBRANCH  36  39
ENDBRANCH   1  36
BRANCH   6  42
ATOM     42  OAR FG5 d           3.967 -13.541  39.548  0.00  0.00    -0.356 OA
BRANCH  42  43
ATOM     43  CAA FG5 d           4.793 -14.069  38.510  0.00  0.00     0.010 C 
ATOM     44  H3  FG5 d           4.638 -15.155  38.434  0.00  0.00     0.066 H 
ATOM     45  H4  FG5 d           5.849 -13.864  38.742  0.00  0.00     0.066 H 
ATOM     46  H5  FG5 d           4.530 -13.593  37.554  0.00  0.00     0.066 H 
ENDBRANCH  42  43
ENDBRANCH   6  42
TORSDOF 8
ENDMDL
