MODEL 1
REMARK VINA RESULT:      -7.9      0.000      0.000
REMARK  12 active torsions:
REMARK  status: ('A' for Active; 'I' for Inactive)
REMARK    1  A    between atoms: O4_1  and  C4_2 
REMARK    2  A    between atoms: C3_6  and  O3_7 
REMARK    3  A    between atoms: C2_8  and  O2_9 
REMARK    4  A    between atoms: C1_10  and  O1_11 
REMARK    5  A    between atoms: N2_14  and  C8_15 
REMARK    6  A    between atoms: C8_15  and  C9_16 
REMARK    7  A    between atoms: C9_16  and  C10_17 
REMARK    8  A    between atoms: C10_17  and  C11_18 
REMARK    9  A    between atoms: C11_18  and  C12_19 
REMARK   10  A    between atoms: C12_19  and  C13_20 
REMARK   11  A    between atoms: C13_20  and  C14_21 
REMARK   12  A    between atoms: C14_21  and  C15_22 
ROOT
ATOM      1  C4  LGS d           1.641   6.670  13.376  0.00  0.00     0.084 C 
ATOM      2  C5  LGS d           1.035   6.254  12.030  0.00  0.00     0.066 C 
ATOM      3  C6  LGS d           0.613   7.376  11.083  0.00  0.00     0.050 C 
ATOM      4  O6  LGS d           1.102   6.959   9.783  0.00  0.00    -0.319 OA
ATOM      5  C3  LGS d           1.903   5.368  14.142  0.00  0.00     0.091 C 
ATOM      6  C2  LGS d           3.036   4.561  13.487  0.00  0.00     0.104 C 
ATOM      7  C1  LGS d           2.914   4.493  11.945  0.00  0.00     0.133 C 
ATOM      8  N1  LGS d           2.065   5.514  11.286  0.00  0.00    -0.307 N 
ATOM      9  C7  LGS d           2.023   5.950   9.977  0.00  0.00     0.241 C 
ATOM     10  N2  LGS d           2.730   5.441   8.964  0.00  0.00    -0.251 NA
ATOM     11  H2  LGS d           2.579   7.225  13.223  0.00  0.00     0.090 H 
ATOM     12  H3  LGS d           0.163   5.613  12.231  0.00  0.00     0.080 H 
ATOM     13  H4  LGS d           1.072   8.330  11.383  0.00  0.00     0.078 H 
ATOM     14  H5  LGS d          -0.482   7.483  11.070  0.00  0.00     0.078 H 
ATOM     15  H6  LGS d           0.982   4.768  14.162  0.00  0.00     0.091 H 
ATOM     16  H8  LGS d           3.981   5.068  13.732  0.00  0.00     0.093 H 
ATOM     17  H10 LGS d           2.522   3.497  11.690  0.00  0.00     0.122 H 
ENDROOT
BRANCH  10  18
ATOM     18  C8  LGS d           2.578   5.703   7.527  0.00  0.00     0.019 C 
ATOM     19  H12 LGS d           3.231   6.541   7.243  0.00  0.00     0.067 H 
ATOM     20  H13 LGS d           1.530   5.967   7.319  0.00  0.00     0.067 H 
BRANCH  18  21
ATOM     21  C9  LGS d           2.955   4.477   6.704  0.00  0.00    -0.048 C 
ATOM     22  H14 LGS d           3.387   4.809   5.748  0.00  0.00     0.035 H 
ATOM     23  H15 LGS d           2.049   3.884   6.512  0.00  0.00     0.035 H 
BRANCH  21  24
ATOM     24  C10 LGS d           3.981   3.596   7.432  0.00  0.00    -0.064 C 
ATOM     25  H16 LGS d           3.544   2.596   7.578  0.00  0.00     0.033 H 
ATOM     26  H17 LGS d           4.200   4.047   8.411  0.00  0.00     0.033 H 
BRANCH  24  27
ATOM     27  C11 LGS d           5.307   3.445   6.650  0.00  0.00    -0.065 C 
ATOM     28  H18 LGS d           5.346   4.170   5.823  0.00  0.00     0.033 H 
ATOM     29  H19 LGS d           5.397   2.425   6.246  0.00  0.00     0.033 H 
BRANCH  27  30
ATOM     30  C12 LGS d           6.443   3.721   7.653  0.00  0.00    -0.065 C 
ATOM     31  H20 LGS d           6.875   2.759   7.965  0.00  0.00     0.033 H 
ATOM     32  H21 LGS d           6.019   4.235   8.528  0.00  0.00     0.033 H 
BRANCH  30  33
ATOM     33  C13 LGS d           7.569   4.598   7.065  0.00  0.00    -0.065 C 
ATOM     34  H22 LGS d           7.225   5.043   6.119  0.00  0.00     0.033 H 
ATOM     35  H23 LGS d           8.453   3.973   6.876  0.00  0.00     0.033 H 
BRANCH  33  36
ATOM     36  C14 LGS d           7.944   5.723   8.047  0.00  0.00    -0.069 C 
ATOM     37  H24 LGS d           8.107   6.654   7.484  0.00  0.00     0.032 H 
ATOM     38  H25 LGS d           8.869   5.447   8.575  0.00  0.00     0.032 H 
BRANCH  36  39
ATOM     39  C15 LGS d           6.829   5.945   9.072  0.00  0.00    -0.077 C 
ATOM     40  H26 LGS d           6.120   6.692   8.687  0.00  0.00     0.027 H 
ATOM     41  H27 LGS d           7.265   6.304  10.016  0.00  0.00     0.027 H 
ATOM     42  H28 LGS d           6.300   4.996   9.250  0.00  0.00     0.027 H 
ENDBRANCH  36  39
ENDBRANCH  33  36
ENDBRANCH  30  33
ENDBRANCH  27  30
ENDBRANCH  24  27
ENDBRANCH  21  24
ENDBRANCH  18  21
ENDBRANCH  10  18
BRANCH   7  43
ATOM     43  O1  LGS d           4.212   4.679  11.349  0.00  0.00    -0.374 OA
ATOM     44  H11 LGS d           4.585   3.833  11.133  0.00  0.00     0.212 HD
ENDBRANCH   7  43
BRANCH   1  45
ATOM     45  O4  LGS d           0.720   7.473  14.094  0.00  0.00    -0.391 OA
ATOM     46  H1  LGS d           0.678   8.336  13.697  0.00  0.00     0.210 HD
ENDBRANCH   1  45
BRANCH   6  47
ATOM     47  O2  LGS d           3.104   3.221  13.988  0.00  0.00    -0.389 OA
ATOM     48  H9  LGS d           2.339   3.046  14.524  0.00  0.00     0.210 HD
ENDBRANCH   6  47
BRANCH   5  49
ATOM     49  O3  LGS d           2.327   5.662  15.475  0.00  0.00    -0.390 OA
ATOM     50  H7  LGS d           2.442   4.850  15.956  0.00  0.00     0.210 HD
ENDBRANCH   5  49
TORSDOF 12
ENDMDL
MODEL 2
REMARK VINA RESULT:      -7.7      1.135      1.712
REMARK  12 active torsions:
REMARK  status: ('A' for Active; 'I' for Inactive)
REMARK    1  A    between atoms: O4_1  and  C4_2 
REMARK    2  A    between atoms: C3_6  and  O3_7 
REMARK    3  A    between atoms: C2_8  and  O2_9 
REMARK    4  A    between atoms: C1_10  and  O1_11 
REMARK    5  A    between atoms: N2_14  and  C8_15 
REMARK    6  A    between atoms: C8_15  and  C9_16 
REMARK    7  A    between atoms: C9_16  and  C10_17 
REMARK    8  A    between atoms: C10_17  and  C11_18 
REMARK    9  A    between atoms: C11_18  and  C12_19 
REMARK   10  A    between atoms: C12_19  and  C13_20 
REMARK   11  A    between atoms: C13_20  and  C14_21 
REMARK   12  A    between atoms: C14_21  and  C15_22 
ROOT
ATOM      1  C4  LGS d           1.654   6.675  13.350  0.00  0.00     0.084 C 
ATOM      2  C5  LGS d           1.022   6.257  12.017  0.00  0.00     0.066 C 
ATOM      3  C6  LGS d           0.601   7.377  11.068  0.00  0.00     0.050 C 
ATOM      4  O6  LGS d           1.063   6.943   9.764  0.00  0.00    -0.319 OA
ATOM      5  C3  LGS d           1.911   5.376  14.123  0.00  0.00     0.091 C 
ATOM      6  C2  LGS d           3.023   4.549  13.457  0.00  0.00     0.104 C 
ATOM      7  C1  LGS d           2.875   4.470  11.918  0.00  0.00     0.133 C 
ATOM      8  N1  LGS d           2.030   5.497  11.264  0.00  0.00    -0.307 N 
ATOM      9  C7  LGS d           1.973   5.923   9.951  0.00  0.00     0.241 C 
ATOM     10  N2  LGS d           2.658   5.396   8.932  0.00  0.00    -0.251 NA
ATOM     11  H2  LGS d           2.597   7.216  13.178  0.00  0.00     0.090 H 
ATOM     12  H3  LGS d           0.145   5.629  12.237  0.00  0.00     0.080 H 
ATOM     13  H4  LGS d           1.077   8.327  11.353  0.00  0.00     0.078 H 
ATOM     14  H5  LGS d          -0.493   7.499  11.071  0.00  0.00     0.078 H 
ATOM     15  H6  LGS d           0.982   4.789  14.162  0.00  0.00     0.091 H 
ATOM     16  H8  LGS d           3.978   5.045  13.683  0.00  0.00     0.093 H 
ATOM     17  H10 LGS d           2.466   3.477  11.677  0.00  0.00     0.122 H 
ENDROOT
BRANCH  10  18
ATOM     18  C8  LGS d           2.487   5.649   7.495  0.00  0.00     0.019 C 
ATOM     19  H12 LGS d           2.622   6.723   7.301  0.00  0.00     0.067 H 
ATOM     20  H13 LGS d           1.472   5.347   7.195  0.00  0.00     0.067 H 
BRANCH  18  21
ATOM     21  C9  LGS d           3.503   4.862   6.676  0.00  0.00    -0.048 C 
ATOM     22  H14 LGS d           3.203   3.804   6.659  0.00  0.00     0.035 H 
ATOM     23  H15 LGS d           4.491   4.957   7.149  0.00  0.00     0.035 H 
BRANCH  21  24
ATOM     24  C10 LGS d           3.592   5.377   5.232  0.00  0.00    -0.064 C 
ATOM     25  H16 LGS d           4.396   6.126   5.174  0.00  0.00     0.033 H 
ATOM     26  H17 LGS d           2.633   5.847   4.967  0.00  0.00     0.033 H 
BRANCH  24  27
ATOM     27  C11 LGS d           3.889   4.254   4.210  0.00  0.00    -0.065 C 
ATOM     28  H18 LGS d           3.398   4.474   3.250  0.00  0.00     0.033 H 
ATOM     29  H19 LGS d           3.531   3.287   4.592  0.00  0.00     0.033 H 
BRANCH  27  30
ATOM     30  C12 LGS d           5.418   4.219   4.028  0.00  0.00    -0.065 C 
ATOM     31  H20 LGS d           5.845   5.127   4.480  0.00  0.00     0.033 H 
ATOM     32  H21 LGS d           5.642   4.205   2.951  0.00  0.00     0.033 H 
BRANCH  30  33
ATOM     33  C13 LGS d           6.077   2.987   4.684  0.00  0.00    -0.065 C 
ATOM     34  H22 LGS d           6.316   2.248   3.905  0.00  0.00     0.033 H 
ATOM     35  H23 LGS d           5.377   2.544   5.407  0.00  0.00     0.033 H 
BRANCH  33  36
ATOM     36  C14 LGS d           7.370   3.391   5.414  0.00  0.00    -0.069 C 
ATOM     37  H24 LGS d           7.833   4.239   4.887  0.00  0.00     0.032 H 
ATOM     38  H25 LGS d           8.065   2.538   5.417  0.00  0.00     0.032 H 
BRANCH  36  39
ATOM     39  C15 LGS d           7.073   3.801   6.859  0.00  0.00    -0.077 C 
ATOM     40  H26 LGS d           8.012   4.072   7.364  0.00  0.00     0.027 H 
ATOM     41  H27 LGS d           6.602   2.960   7.389  0.00  0.00     0.027 H 
ATOM     42  H28 LGS d           6.392   4.664   6.863  0.00  0.00     0.027 H 
ENDBRANCH  36  39
ENDBRANCH  33  36
ENDBRANCH  30  33
ENDBRANCH  27  30
ENDBRANCH  24  27
ENDBRANCH  21  24
ENDBRANCH  18  21
ENDBRANCH  10  18
BRANCH   7  43
ATOM     43  O1  LGS d           4.166   4.634  11.300  0.00  0.00    -0.374 OA
ATOM     44  H11 LGS d           4.835   4.263  11.863  0.00  0.00     0.212 HD
ENDBRANCH   7  43
BRANCH   1  45
ATOM     45  O4  LGS d           0.756   7.497  14.076  0.00  0.00    -0.391 OA
ATOM     46  H1  LGS d           1.192   8.306  14.316  0.00  0.00     0.210 HD
ENDBRANCH   1  45
BRANCH   6  47
ATOM     47  O2  LGS d           3.080   3.212  13.967  0.00  0.00    -0.389 OA
ATOM     48  H9  LGS d           3.119   2.599  13.242  0.00  0.00     0.210 HD
ENDBRANCH   6  47
BRANCH   5  49
ATOM     49  O3  LGS d           2.359   5.675  15.446  0.00  0.00    -0.390 OA
ATOM     50  H7  LGS d           3.296   5.835  15.434  0.00  0.00     0.210 HD
ENDBRANCH   5  49
TORSDOF 12
ENDMDL
MODEL 3
REMARK VINA RESULT:      -7.1      3.526      7.974
REMARK  12 active torsions:
REMARK  status: ('A' for Active; 'I' for Inactive)
REMARK    1  A    between atoms: O4_1  and  C4_2 
REMARK    2  A    between atoms: C3_6  and  O3_7 
REMARK    3  A    between atoms: C2_8  and  O2_9 
REMARK    4  A    between atoms: C1_10  and  O1_11 
REMARK    5  A    between atoms: N2_14  and  C8_15 
REMARK    6  A    between atoms: C8_15  and  C9_16 
REMARK    7  A    between atoms: C9_16  and  C10_17 
REMARK    8  A    between atoms: C10_17  and  C11_18 
REMARK    9  A    between atoms: C11_18  and  C12_19 
REMARK   10  A    between atoms: C12_19  and  C13_20 
REMARK   11  A    between atoms: C13_20  and  C14_21 
REMARK   12  A    between atoms: C14_21  and  C15_22 
ROOT
ATOM      1  C4  LGS d           6.612   4.384   5.061  0.00  0.00     0.084 C 
ATOM      2  C5  LGS d           6.012   4.118   6.446  0.00  0.00     0.066 C 
ATOM      3  C6  LGS d           6.780   4.661   7.650  0.00  0.00     0.050 C 
ATOM      4  O6  LGS d           5.761   5.252   8.496  0.00  0.00    -0.319 OA
ATOM      5  C3  LGS d           5.690   3.680   4.058  0.00  0.00     0.091 C 
ATOM      6  C2  LGS d           4.322   4.378   3.982  0.00  0.00     0.104 C 
ATOM      7  C1  LGS d           3.752   4.739   5.376  0.00  0.00     0.133 C 
ATOM      8  N1  LGS d           4.709   4.797   6.507  0.00  0.00    -0.307 N 
ATOM      9  C7  LGS d           4.616   5.406   7.742  0.00  0.00     0.241 C 
ATOM     10  N2  LGS d           3.538   6.032   8.222  0.00  0.00    -0.251 NA
ATOM     11  H2  LGS d           6.652   5.465   4.857  0.00  0.00     0.090 H 
ATOM     12  H3  LGS d           5.890   3.031   6.564  0.00  0.00     0.080 H 
ATOM     13  H4  LGS d           7.511   5.420   7.334  0.00  0.00     0.078 H 
ATOM     14  H5  LGS d           7.300   3.848   8.179  0.00  0.00     0.078 H 
ATOM     15  H6  LGS d           5.557   2.632   4.363  0.00  0.00     0.091 H 
ATOM     16  H8  LGS d           4.464   5.313   3.420  0.00  0.00     0.093 H 
ATOM     17  H10 LGS d           2.975   3.997   5.615  0.00  0.00     0.122 H 
ENDROOT
BRANCH  10  18
ATOM     18  C8  LGS d           3.296   6.505   9.592  0.00  0.00     0.019 C 
ATOM     19  H12 LGS d           3.292   7.605   9.597  0.00  0.00     0.067 H 
ATOM     20  H13 LGS d           4.101   6.138  10.246  0.00  0.00     0.067 H 
BRANCH  18  21
ATOM     21  C9  LGS d           1.957   5.999  10.117  0.00  0.00    -0.048 C 
ATOM     22  H14 LGS d           2.111   5.552  11.110  0.00  0.00     0.035 H 
ATOM     23  H15 LGS d           1.569   5.237   9.426  0.00  0.00     0.035 H 
BRANCH  21  24
ATOM     24  C10 LGS d           0.928   7.133  10.236  0.00  0.00    -0.064 C 
ATOM     25  H16 LGS d           0.115   6.946   9.518  0.00  0.00     0.033 H 
ATOM     26  H17 LGS d           1.422   8.084   9.991  0.00  0.00     0.033 H 
BRANCH  24  27
ATOM     27  C11 LGS d           0.318   7.245  11.653  0.00  0.00    -0.065 C 
ATOM     28  H18 LGS d          -0.777   7.146  11.605  0.00  0.00     0.033 H 
ATOM     29  H19 LGS d           0.578   8.214  12.104  0.00  0.00     0.033 H 
BRANCH  27  30
ATOM     30  C12 LGS d           0.919   6.096  12.483  0.00  0.00    -0.065 C 
ATOM     31  H20 LGS d           1.739   5.640  11.908  0.00  0.00     0.033 H 
ATOM     32  H21 LGS d           0.135   5.345  12.662  0.00  0.00     0.033 H 
BRANCH  30  33
ATOM     33  C13 LGS d           1.474   6.560  13.846  0.00  0.00    -0.065 C 
ATOM     34  H22 LGS d           0.644   6.919  14.472  0.00  0.00     0.033 H 
ATOM     35  H23 LGS d           2.191   7.378  13.685  0.00  0.00     0.033 H 
BRANCH  33  36
ATOM     36  C14 LGS d           2.185   5.398  14.564  0.00  0.00    -0.069 C 
ATOM     37  H24 LGS d           1.439   4.797  15.104  0.00  0.00     0.032 H 
ATOM     38  H25 LGS d           2.913   5.807  15.280  0.00  0.00     0.032 H 
BRANCH  36  39
ATOM     39  C15 LGS d           2.917   4.505  13.559  0.00  0.00    -0.077 C 
ATOM     40  H26 LGS d           2.274   4.335  12.683  0.00  0.00     0.027 H 
ATOM     41  H27 LGS d           3.156   3.541  14.031  0.00  0.00     0.027 H 
ATOM     42  H28 LGS d           3.848   4.998  13.240  0.00  0.00     0.027 H 
ENDBRANCH  36  39
ENDBRANCH  33  36
ENDBRANCH  30  33
ENDBRANCH  27  30
ENDBRANCH  24  27
ENDBRANCH  21  24
ENDBRANCH  18  21
ENDBRANCH  10  18
BRANCH   7  43
ATOM     43  O1  LGS d           3.177   6.059   5.336  0.00  0.00    -0.374 OA
ATOM     44  H11 LGS d           3.439   6.493   4.532  0.00  0.00     0.212 HD
ENDBRANCH   7  43
BRANCH   1  45
ATOM     45  O4  LGS d           7.916   3.833   4.984  0.00  0.00    -0.391 OA
ATOM     46  H1  LGS d           8.545   4.530   4.843  0.00  0.00     0.210 HD
ENDBRANCH   1  45
BRANCH   6  47
ATOM     47  O2  LGS d           3.348   3.585   3.295  0.00  0.00    -0.389 OA
ATOM     48  H9  LGS d           2.645   4.146   2.988  0.00  0.00     0.210 HD
ENDBRANCH   6  47
BRANCH   5  49
ATOM     49  O3  LGS d           6.255   3.742   2.747  0.00  0.00    -0.390 OA
ATOM     50  H7  LGS d           6.179   2.891   2.330  0.00  0.00     0.210 HD
ENDBRANCH   5  49
TORSDOF 12
ENDMDL
MODEL 4
REMARK VINA RESULT:      -7.0      1.639      2.190
REMARK  12 active torsions:
REMARK  status: ('A' for Active; 'I' for Inactive)
REMARK    1  A    between atoms: O4_1  and  C4_2 
REMARK    2  A    between atoms: C3_6  and  O3_7 
REMARK    3  A    between atoms: C2_8  and  O2_9 
REMARK    4  A    between atoms: C1_10  and  O1_11 
REMARK    5  A    between atoms: N2_14  and  C8_15 
REMARK    6  A    between atoms: C8_15  and  C9_16 
REMARK    7  A    between atoms: C9_16  and  C10_17 
REMARK    8  A    between atoms: C10_17  and  C11_18 
REMARK    9  A    between atoms: C11_18  and  C12_19 
REMARK   10  A    between atoms: C12_19  and  C13_20 
REMARK   11  A    between atoms: C13_20  and  C14_21 
REMARK   12  A    between atoms: C14_21  and  C15_22 
ROOT
ATOM      1  C4  LGS d           1.565   6.626  13.143  0.00  0.00     0.084 C 
ATOM      2  C5  LGS d           1.068   6.089  11.795  0.00  0.00     0.066 C 
ATOM      3  C6  LGS d           0.594   7.119  10.771  0.00  0.00     0.050 C 
ATOM      4  O6  LGS d           1.183   6.686   9.519  0.00  0.00    -0.319 OA
ATOM      5  C3  LGS d           1.906   5.393  13.989  0.00  0.00     0.091 C 
ATOM      6  C2  LGS d           3.139   4.664  13.430  0.00  0.00     0.104 C 
ATOM      7  C1  LGS d           3.101   4.509  11.890  0.00  0.00     0.133 C 
ATOM      8  N1  LGS d           2.196   5.413  11.139  0.00  0.00    -0.307 N 
ATOM      9  C7  LGS d           2.181   5.778   9.808  0.00  0.00     0.241 C 
ATOM     10  N2  LGS d           2.982   5.288   8.857  0.00  0.00    -0.251 NA
ATOM     11  H2  LGS d           2.455   7.257  13.003  0.00  0.00     0.090 H 
ATOM     12  H3  LGS d           0.249   5.380  11.990  0.00  0.00     0.080 H 
ATOM     13  H4  LGS d           0.948   8.125  11.040  0.00  0.00     0.078 H 
ATOM     14  H5  LGS d          -0.505   7.123  10.703  0.00  0.00     0.078 H 
ATOM     15  H6  LGS d           1.043   4.711  13.999  0.00  0.00     0.091 H 
ATOM     16  H8  LGS d           4.021   5.269  13.690  0.00  0.00     0.093 H 
ATOM     17  H10 LGS d           2.815   3.470  11.671  0.00  0.00     0.122 H 
ENDROOT
BRANCH  10  18
ATOM     18  C8  LGS d           2.878   5.464   7.402  0.00  0.00     0.019 C 
ATOM     19  H12 LGS d           3.196   6.484   7.141  0.00  0.00     0.067 H 
ATOM     20  H13 LGS d           1.832   5.315   7.095  0.00  0.00     0.067 H 
BRANCH  18  21
ATOM     21  C9  LGS d           3.761   4.464   6.666  0.00  0.00    -0.048 C 
ATOM     22  H14 LGS d           3.192   4.036   5.828  0.00  0.00     0.035 H 
ATOM     23  H15 LGS d           4.049   3.662   7.362  0.00  0.00     0.035 H 
BRANCH  21  24
ATOM     24  C10 LGS d           5.034   5.124   6.116  0.00  0.00    -0.064 C 
ATOM     25  H16 LGS d           5.008   6.197   6.361  0.00  0.00     0.033 H 
ATOM     26  H17 LGS d           5.052   4.997   5.023  0.00  0.00     0.033 H 
BRANCH  24  27
ATOM     27  C11 LGS d           6.330   4.516   6.704  0.00  0.00    -0.065 C 
ATOM     28  H18 LGS d           6.084   3.778   7.483  0.00  0.00     0.033 H 
ATOM     29  H19 LGS d           6.960   5.308   7.136  0.00  0.00     0.033 H 
BRANCH  27  30
ATOM     30  C12 LGS d           7.064   3.831   5.536  0.00  0.00    -0.065 C 
ATOM     31  H20 LGS d           7.153   2.758   5.760  0.00  0.00     0.033 H 
ATOM     32  H21 LGS d           8.067   4.273   5.447  0.00  0.00     0.033 H 
BRANCH  30  33
ATOM     33  C13 LGS d           6.334   3.992   4.186  0.00  0.00    -0.065 C 
ATOM     34  H22 LGS d           5.444   4.623   4.328  0.00  0.00     0.033 H 
ATOM     35  H23 LGS d           6.026   3.002   3.821  0.00  0.00     0.033 H 
BRANCH  33  36
ATOM     36  C14 LGS d           7.260   4.649   3.146  0.00  0.00    -0.069 C 
ATOM     37  H24 LGS d           8.196   4.953   3.638  0.00  0.00     0.032 H 
ATOM     38  H25 LGS d           6.761   5.536   2.728  0.00  0.00     0.032 H 
BRANCH  36  39
ATOM     39  C15 LGS d           7.582   3.673   2.012  0.00  0.00    -0.077 C 
ATOM     40  H26 LGS d           7.301   2.654   2.314  0.00  0.00     0.027 H 
ATOM     41  H27 LGS d           8.660   3.707   1.795  0.00  0.00     0.027 H 
ATOM     42  H28 LGS d           7.018   3.958   1.111  0.00  0.00     0.027 H 
ENDBRANCH  36  39
ENDBRANCH  33  36
ENDBRANCH  30  33
ENDBRANCH  27  30
ENDBRANCH  24  27
ENDBRANCH  21  24
ENDBRANCH  18  21
ENDBRANCH  10  18
BRANCH   7  43
ATOM     43  O1  LGS d           4.405   4.787  11.344  0.00  0.00    -0.374 OA
ATOM     44  H11 LGS d           5.038   4.184  11.717  0.00  0.00     0.212 HD
ENDBRANCH   7  43
BRANCH   1  45
ATOM     45  O4  LGS d           0.540   7.374  13.774  0.00  0.00    -0.391 OA
ATOM     46  H1  LGS d           0.028   6.799  14.332  0.00  0.00     0.210 HD
ENDBRANCH   1  45
BRANCH   6  47
ATOM     47  O2  LGS d           3.303   3.363  14.004  0.00  0.00    -0.389 OA
ATOM     48  H9  LGS d           3.659   2.772  13.350  0.00  0.00     0.210 HD
ENDBRANCH   6  47
BRANCH   5  49
ATOM     49  O3  LGS d           2.233   5.791  15.322  0.00  0.00    -0.390 OA
ATOM     50  H7  LGS d           1.877   5.159  15.936  0.00  0.00     0.210 HD
ENDBRANCH   5  49
TORSDOF 12
ENDMDL
MODEL 5
REMARK VINA RESULT:      -6.6      1.547      2.780
REMARK  12 active torsions:
REMARK  status: ('A' for Active; 'I' for Inactive)
REMARK    1  A    between atoms: O4_1  and  C4_2 
REMARK    2  A    between atoms: C3_6  and  O3_7 
REMARK    3  A    between atoms: C2_8  and  O2_9 
REMARK    4  A    between atoms: C1_10  and  O1_11 
REMARK    5  A    between atoms: N2_14  and  C8_15 
REMARK    6  A    between atoms: C8_15  and  C9_16 
REMARK    7  A    between atoms: C9_16  and  C10_17 
REMARK    8  A    between atoms: C10_17  and  C11_18 
REMARK    9  A    between atoms: C11_18  and  C12_19 
REMARK   10  A    between atoms: C12_19  and  C13_20 
REMARK   11  A    between atoms: C13_20  and  C14_21 
REMARK   12  A    between atoms: C14_21  and  C15_22 
ROOT
ATOM      1  C4  LGS d           1.497   7.102  11.885  0.00  0.00     0.084 C 
ATOM      2  C5  LGS d           1.511   5.957  10.866  0.00  0.00     0.066 C 
ATOM      3  C6  LGS d           1.405   6.341   9.391  0.00  0.00     0.050 C 
ATOM      4  O6  LGS d           2.402   5.521   8.729  0.00  0.00    -0.319 OA
ATOM      5  C3  LGS d           1.544   6.439  13.267  0.00  0.00     0.091 C 
ATOM      6  C2  LGS d           2.908   5.773  13.513  0.00  0.00     0.104 C 
ATOM      7  C1  LGS d           3.411   4.963  12.293  0.00  0.00     0.133 C 
ATOM      8  N1  LGS d           2.809   5.277  10.975  0.00  0.00    -0.307 N 
ATOM      9  C7  LGS d           3.253   5.021   9.692  0.00  0.00     0.241 C 
ATOM     10  N2  LGS d           4.343   4.320   9.371  0.00  0.00    -0.251 NA
ATOM     11  H2  LGS d           2.368   7.759  11.741  0.00  0.00     0.090 H 
ATOM     12  H3  LGS d           0.688   5.268  11.113  0.00  0.00     0.080 H 
ATOM     13  H4  LGS d           1.625   7.409   9.251  0.00  0.00     0.078 H 
ATOM     14  H5  LGS d           0.399   6.119   9.002  0.00  0.00     0.078 H 
ATOM     15  H6  LGS d           0.744   5.687  13.334  0.00  0.00     0.091 H 
ATOM     16  H8  LGS d           3.632   6.576  13.712  0.00  0.00     0.093 H 
ATOM     17  H10 LGS d           3.239   3.899  12.510  0.00  0.00     0.122 H 
ENDROOT
BRANCH  10  18
ATOM     18  C8  LGS d           4.750   3.828   8.048  0.00  0.00     0.019 C 
ATOM     19  H12 LGS d           3.889   3.877   7.366  0.00  0.00     0.067 H 
ATOM     20  H13 LGS d           5.087   2.785   8.140  0.00  0.00     0.067 H 
BRANCH  18  21
ATOM     21  C9  LGS d           5.886   4.670   7.477  0.00  0.00    -0.048 C 
ATOM     22  H14 LGS d           6.579   4.931   8.290  0.00  0.00     0.035 H 
ATOM     23  H15 LGS d           5.465   5.589   7.044  0.00  0.00     0.035 H 
BRANCH  21  24
ATOM     24  C10 LGS d           6.661   3.916   6.387  0.00  0.00    -0.064 C 
ATOM     25  H16 LGS d           7.429   3.292   6.869  0.00  0.00     0.033 H 
ATOM     26  H17 LGS d           7.147   4.652   5.728  0.00  0.00     0.033 H 
BRANCH  24  27
ATOM     27  C11 LGS d           5.755   3.005   5.525  0.00  0.00    -0.065 C 
ATOM     28  H18 LGS d           4.929   2.606   6.133  0.00  0.00     0.033 H 
ATOM     29  H19 LGS d           6.340   2.171   5.109  0.00  0.00     0.033 H 
BRANCH  27  30
ATOM     30  C12 LGS d           5.202   3.884   4.388  0.00  0.00    -0.065 C 
ATOM     31  H20 LGS d           5.755   3.653   3.466  0.00  0.00     0.033 H 
ATOM     32  H21 LGS d           5.357   4.940   4.655  0.00  0.00     0.033 H 
BRANCH  30  33
ATOM     33  C13 LGS d           3.697   3.660   4.127  0.00  0.00    -0.065 C 
ATOM     34  H22 LGS d           3.449   2.606   4.324  0.00  0.00     0.033 H 
ATOM     35  H23 LGS d           3.473   3.898   3.077  0.00  0.00     0.033 H 
BRANCH  33  36
ATOM     36  C14 LGS d           2.850   4.561   5.043  0.00  0.00    -0.069 C 
ATOM     37  H24 LGS d           2.916   4.189   6.077  0.00  0.00     0.032 H 
ATOM     38  H25 LGS d           1.802   4.531   4.710  0.00  0.00     0.032 H 
BRANCH  36  39
ATOM     39  C15 LGS d           3.351   6.007   4.997  0.00  0.00    -0.077 C 
ATOM     40  H26 LGS d           3.908   6.173   4.064  0.00  0.00     0.027 H 
ATOM     41  H27 LGS d           4.012   6.194   5.857  0.00  0.00     0.027 H 
ATOM     42  H28 LGS d           2.492   6.694   5.039  0.00  0.00     0.027 H 
ENDBRANCH  36  39
ENDBRANCH  33  36
ENDBRANCH  30  33
ENDBRANCH  27  30
ENDBRANCH  24  27
ENDBRANCH  21  24
ENDBRANCH  18  21
ENDBRANCH  10  18
BRANCH   7  43
ATOM     43  O1  LGS d           4.819   5.205  12.101  0.00  0.00    -0.374 OA
ATOM     44  H11 LGS d           5.287   4.991  12.900  0.00  0.00     0.212 HD
ENDBRANCH   7  43
BRANCH   1  45
ATOM     45  O4  LGS d           0.303   7.854  11.753  0.00  0.00    -0.391 OA
ATOM     46  H1  LGS d           0.221   8.449  12.489  0.00  0.00     0.210 HD
ENDBRANCH   1  45
BRANCH   6  47
ATOM     47  O2  LGS d           2.885   4.899  14.648  0.00  0.00    -0.389 OA
ATOM     48  H9  LGS d           3.773   4.765  14.960  0.00  0.00     0.210 HD
ENDBRANCH   6  47
BRANCH   5  49
ATOM     49  O3  LGS d           1.379   7.425  14.288  0.00  0.00    -0.390 OA
ATOM     50  H7  LGS d           2.206   7.556  14.737  0.00  0.00     0.210 HD
ENDBRANCH   5  49
TORSDOF 12
ENDMDL
MODEL 6
REMARK VINA RESULT:      -6.5      2.399      3.975
REMARK  12 active torsions:
REMARK  status: ('A' for Active; 'I' for Inactive)
REMARK    1  A    between atoms: O4_1  and  C4_2 
REMARK    2  A    between atoms: C3_6  and  O3_7 
REMARK    3  A    between atoms: C2_8  and  O2_9 
REMARK    4  A    between atoms: C1_10  and  O1_11 
REMARK    5  A    between atoms: N2_14  and  C8_15 
REMARK    6  A    between atoms: C8_15  and  C9_16 
REMARK    7  A    between atoms: C9_16  and  C10_17 
REMARK    8  A    between atoms: C10_17  and  C11_18 
REMARK    9  A    between atoms: C11_18  and  C12_19 
REMARK   10  A    between atoms: C12_19  and  C13_20 
REMARK   11  A    between atoms: C13_20  and  C14_21 
REMARK   12  A    between atoms: C14_21  and  C15_22 
ROOT
ATOM      1  C4  LGS d           4.643   6.836  11.525  0.00  0.00     0.084 C 
ATOM      2  C5  LGS d           4.934   6.777  10.020  0.00  0.00     0.066 C 
ATOM      3  C6  LGS d           6.402   6.723   9.600  0.00  0.00     0.050 C 
ATOM      4  O6  LGS d           6.447   5.705   8.567  0.00  0.00    -0.319 OA
ATOM      5  C3  LGS d           3.120   6.953  11.656  0.00  0.00     0.091 C 
ATOM      6  C2  LGS d           2.427   5.652  11.221  0.00  0.00     0.104 C 
ATOM      7  C1  LGS d           3.007   5.070   9.909  0.00  0.00     0.133 C 
ATOM      8  N1  LGS d           4.358   5.528   9.503  0.00  0.00    -0.307 N 
ATOM      9  C7  LGS d           5.279   4.975   8.635  0.00  0.00     0.241 C 
ATOM     10  N2  LGS d           5.083   3.892   7.878  0.00  0.00    -0.251 NA
ATOM     11  H2  LGS d           5.006   5.927  12.025  0.00  0.00     0.090 H 
ATOM     12  H3  LGS d           4.461   7.650   9.545  0.00  0.00     0.080 H 
ATOM     13  H4  LGS d           7.040   6.442  10.451  0.00  0.00     0.078 H 
ATOM     14  H5  LGS d           6.729   7.695   9.201  0.00  0.00     0.078 H 
ATOM     15  H6  LGS d           2.766   7.790  11.035  0.00  0.00     0.091 H 
ATOM     16  H8  LGS d           2.587   4.914  12.021  0.00  0.00     0.093 H 
ATOM     17  H10 LGS d           2.300   5.312   9.101  0.00  0.00     0.122 H 
ENDROOT
BRANCH  10  18
ATOM     18  C8  LGS d           5.923   3.382   6.786  0.00  0.00     0.019 C 
ATOM     19  H12 LGS d           6.387   2.437   7.102  0.00  0.00     0.067 H 
ATOM     20  H13 LGS d           6.707   4.120   6.561  0.00  0.00     0.067 H 
BRANCH  18  21
ATOM     21  C9  LGS d           5.096   3.135   5.529  0.00  0.00    -0.048 C 
ATOM     22  H14 LGS d           5.449   2.212   5.047  0.00  0.00     0.035 H 
ATOM     23  H15 LGS d           5.230   3.984   4.843  0.00  0.00     0.035 H 
BRANCH  21  24
ATOM     24  C10 LGS d           3.601   2.988   5.850  0.00  0.00    -0.064 C 
ATOM     25  H16 LGS d           3.420   3.375   6.864  0.00  0.00     0.033 H 
ATOM     26  H17 LGS d           3.338   1.920   5.813  0.00  0.00     0.033 H 
BRANCH  24  27
ATOM     27  C11 LGS d           2.694   3.755   4.859  0.00  0.00    -0.065 C 
ATOM     28  H18 LGS d           1.645   3.454   4.994  0.00  0.00     0.033 H 
ATOM     29  H19 LGS d           3.004   3.550   3.823  0.00  0.00     0.033 H 
BRANCH  27  30
ATOM     30  C12 LGS d           2.864   5.252   5.177  0.00  0.00    -0.065 C 
ATOM     31  H20 LGS d           3.719   5.370   5.859  0.00  0.00     0.033 H 
ATOM     32  H21 LGS d           1.948   5.611   5.669  0.00  0.00     0.033 H 
BRANCH  30  33
ATOM     33  C13 LGS d           3.115   6.112   3.920  0.00  0.00    -0.065 C 
ATOM     34  H22 LGS d           2.371   6.922   3.881  0.00  0.00     0.033 H 
ATOM     35  H23 LGS d           3.017   5.482   3.024  0.00  0.00     0.033 H 
BRANCH  33  36
ATOM     36  C14 LGS d           4.527   6.723   3.957  0.00  0.00    -0.069 C 
ATOM     37  H24 LGS d           4.507   7.710   3.471  0.00  0.00     0.032 H 
ATOM     38  H25 LGS d           5.220   6.062   3.416  0.00  0.00     0.032 H 
BRANCH  36  39
ATOM     39  C15 LGS d           5.012   6.885   5.401  0.00  0.00    -0.077 C 
ATOM     40  H26 LGS d           5.116   5.894   5.865  0.00  0.00     0.027 H 
ATOM     41  H27 LGS d           4.282   7.481   5.968  0.00  0.00     0.027 H 
ATOM     42  H28 LGS d           5.986   7.396   5.405  0.00  0.00     0.027 H 
ENDBRANCH  36  39
ENDBRANCH  33  36
ENDBRANCH  30  33
ENDBRANCH  27  30
ENDBRANCH  24  27
ENDBRANCH  21  24
ENDBRANCH  18  21
ENDBRANCH  10  18
BRANCH   7  43
ATOM     43  O1  LGS d           3.144   3.641  10.033  0.00  0.00    -0.374 OA
ATOM     44  H11 LGS d           4.003   3.378   9.722  0.00  0.00     0.212 HD
ENDBRANCH   7  43
BRANCH   1  45
ATOM     45  O4  LGS d           5.264   7.977  12.093  0.00  0.00    -0.391 OA
ATOM     46  H1  LGS d           4.648   8.420  12.664  0.00  0.00     0.210 HD
ENDBRANCH   1  45
BRANCH   6  47
ATOM     47  O2  LGS d           1.016   5.823  11.046  0.00  0.00    -0.389 OA
ATOM     48  H9  LGS d           0.581   5.734  11.886  0.00  0.00     0.210 HD
ENDBRANCH   6  47
BRANCH   5  49
ATOM     49  O3  LGS d           2.763   7.171  13.023  0.00  0.00    -0.390 OA
ATOM     50  H7  LGS d           2.402   8.045  13.119  0.00  0.00     0.210 HD
ENDBRANCH   5  49
TORSDOF 12
ENDMDL
MODEL 7
REMARK VINA RESULT:      -6.2      2.818      4.829
REMARK  12 active torsions:
REMARK  status: ('A' for Active; 'I' for Inactive)
REMARK    1  A    between atoms: O4_1  and  C4_2 
REMARK    2  A    between atoms: C3_6  and  O3_7 
REMARK    3  A    between atoms: C2_8  and  O2_9 
REMARK    4  A    between atoms: C1_10  and  O1_11 
REMARK    5  A    between atoms: N2_14  and  C8_15 
REMARK    6  A    between atoms: C8_15  and  C9_16 
REMARK    7  A    between atoms: C9_16  and  C10_17 
REMARK    8  A    between atoms: C10_17  and  C11_18 
REMARK    9  A    between atoms: C11_18  and  C12_19 
REMARK   10  A    between atoms: C12_19  and  C13_20 
REMARK   11  A    between atoms: C13_20  and  C14_21 
REMARK   12  A    between atoms: C14_21  and  C15_22 
ROOT
ATOM      1  C4  LGS d           3.866   5.520  10.501  0.00  0.00     0.084 C 
ATOM      2  C5  LGS d           5.136   4.986   9.829  0.00  0.00     0.066 C 
ATOM      3  C6  LGS d           4.974   3.792   8.889  0.00  0.00     0.050 C 
ATOM      4  O6  LGS d           5.783   4.126   7.733  0.00  0.00    -0.319 OA
ATOM      5  C3  LGS d           4.322   6.653  11.428  0.00  0.00     0.091 C 
ATOM      6  C2  LGS d           4.819   7.862  10.618  0.00  0.00     0.104 C 
ATOM      7  C1  LGS d           5.741   7.460   9.441  0.00  0.00     0.133 C 
ATOM      8  N1  LGS d           5.672   6.055   8.973  0.00  0.00    -0.307 N 
ATOM      9  C7  LGS d           6.062   5.476   7.782  0.00  0.00     0.241 C 
ATOM     10  N2  LGS d           6.698   6.099   6.786  0.00  0.00    -0.251 NA
ATOM     11  H2  LGS d           3.158   5.897   9.747  0.00  0.00     0.090 H 
ATOM     12  H3  LGS d           5.856   4.721  10.618  0.00  0.00     0.080 H 
ATOM     13  H4  LGS d           3.919   3.664   8.603  0.00  0.00     0.078 H 
ATOM     14  H5  LGS d           5.340   2.870   9.366  0.00  0.00     0.078 H 
ATOM     15  H6  LGS d           5.127   6.285  12.080  0.00  0.00     0.091 H 
ATOM     16  H8  LGS d           3.932   8.362  10.201  0.00  0.00     0.093 H 
ATOM     17  H10 LGS d           6.776   7.675   9.746  0.00  0.00     0.122 H 
ENDROOT
BRANCH  10  18
ATOM     18  C8  LGS d           7.331   5.505   5.600  0.00  0.00     0.019 C 
ATOM     19  H12 LGS d           7.666   4.486   5.844  0.00  0.00     0.067 H 
ATOM     20  H13 LGS d           8.198   6.117   5.310  0.00  0.00     0.067 H 
BRANCH  18  21
ATOM     21  C9  LGS d           6.353   5.441   4.433  0.00  0.00    -0.048 C 
ATOM     22  H14 LGS d           6.619   6.220   3.703  0.00  0.00     0.035 H 
ATOM     23  H15 LGS d           5.336   5.623   4.810  0.00  0.00     0.035 H 
BRANCH  21  24
ATOM     24  C10 LGS d           6.387   4.073   3.735  0.00  0.00    -0.064 C 
ATOM     25  H16 LGS d           7.434   3.740   3.665  0.00  0.00     0.033 H 
ATOM     26  H17 LGS d           5.969   4.184   2.723  0.00  0.00     0.033 H 
BRANCH  24  27
ATOM     27  C11 LGS d           5.575   2.993   4.489  0.00  0.00    -0.065 C 
ATOM     28  H18 LGS d           5.747   3.076   5.572  0.00  0.00     0.033 H 
ATOM     29  H19 LGS d           5.869   1.989   4.147  0.00  0.00     0.033 H 
BRANCH  27  30
ATOM     30  C12 LGS d           4.093   3.252   4.164  0.00  0.00    -0.065 C 
ATOM     31  H20 LGS d           3.728   2.438   3.520  0.00  0.00     0.033 H 
ATOM     32  H21 LGS d           4.013   4.209   3.628  0.00  0.00     0.033 H 
BRANCH  30  33
ATOM     33  C13 LGS d           3.201   3.318   5.422  0.00  0.00    -0.065 C 
ATOM     34  H22 LGS d           3.711   2.812   6.255  0.00  0.00     0.033 H 
ATOM     35  H23 LGS d           2.246   2.813   5.216  0.00  0.00     0.033 H 
BRANCH  33  36
ATOM     36  C14 LGS d           2.925   4.782   5.811  0.00  0.00    -0.069 C 
ATOM     37  H24 LGS d           3.820   5.203   6.292  0.00  0.00     0.032 H 
ATOM     38  H25 LGS d           2.080   4.815   6.515  0.00  0.00     0.032 H 
BRANCH  36  39
ATOM     39  C15 LGS d           2.580   5.617   4.575  0.00  0.00    -0.077 C 
ATOM     40  H26 LGS d           1.782   5.119   4.006  0.00  0.00     0.027 H 
ATOM     41  H27 LGS d           3.473   5.720   3.941  0.00  0.00     0.027 H 
ATOM     42  H28 LGS d           2.238   6.614   4.890  0.00  0.00     0.027 H 
ENDBRANCH  36  39
ENDBRANCH  33  36
ENDBRANCH  30  33
ENDBRANCH  27  30
ENDBRANCH  24  27
ENDBRANCH  21  24
ENDBRANCH  18  21
ENDBRANCH  10  18
BRANCH   7  43
ATOM     43  O1  LGS d           5.400   8.234   8.274  0.00  0.00    -0.374 OA
ATOM     44  H11 LGS d           5.012   7.665   7.620  0.00  0.00     0.212 HD
ENDBRANCH   7  43
BRANCH   1  45
ATOM     45  O4  LGS d           3.253   4.493  11.262  0.00  0.00    -0.391 OA
ATOM     46  H1  LGS d           2.638   4.879  11.876  0.00  0.00     0.210 HD
ENDBRANCH   1  45
BRANCH   6  47
ATOM     47  O2  LGS d           5.523   8.805  11.433  0.00  0.00    -0.389 OA
ATOM     48  H9  LGS d           5.829   9.524  10.891  0.00  0.00     0.210 HD
ENDBRANCH   6  47
BRANCH   5  49
ATOM     49  O3  LGS d           3.222   7.112  12.217  0.00  0.00    -0.390 OA
ATOM     50  H7  LGS d           2.719   7.745  11.718  0.00  0.00     0.210 HD
ENDBRANCH   5  49
TORSDOF 12
ENDMDL
MODEL 8
REMARK VINA RESULT:      -6.1      2.785      4.619
REMARK  12 active torsions:
REMARK  status: ('A' for Active; 'I' for Inactive)
REMARK    1  A    between atoms: O4_1  and  C4_2 
REMARK    2  A    between atoms: C3_6  and  O3_7 
REMARK    3  A    between atoms: C2_8  and  O2_9 
REMARK    4  A    between atoms: C1_10  and  O1_11 
REMARK    5  A    between atoms: N2_14  and  C8_15 
REMARK    6  A    between atoms: C8_15  and  C9_16 
REMARK    7  A    between atoms: C9_16  and  C10_17 
REMARK    8  A    between atoms: C10_17  and  C11_18 
REMARK    9  A    between atoms: C11_18  and  C12_19 
REMARK   10  A    between atoms: C12_19  and  C13_20 
REMARK   11  A    between atoms: C13_20  and  C14_21 
REMARK   12  A    between atoms: C14_21  and  C15_22 
ROOT
ATOM      1  C4  LGS d           5.049   7.180  11.027  0.00  0.00     0.084 C 
ATOM      2  C5  LGS d           5.165   7.307   9.504  0.00  0.00     0.066 C 
ATOM      3  C6  LGS d           6.469   7.880   8.952  0.00  0.00     0.050 C 
ATOM      4  O6  LGS d           6.804   7.015   7.838  0.00  0.00    -0.319 OA
ATOM      5  C3  LGS d           3.636   6.653  11.302  0.00  0.00     0.091 C 
ATOM      6  C2  LGS d           3.486   5.200  10.822  0.00  0.00     0.104 C 
ATOM      7  C1  LGS d           4.097   4.964   9.419  0.00  0.00     0.133 C 
ATOM      8  N1  LGS d           5.090   5.953   8.936  0.00  0.00    -0.307 N 
ATOM      9  C7  LGS d           6.049   5.866   7.947  0.00  0.00     0.241 C 
ATOM     10  N2  LGS d           6.224   4.829   7.122  0.00  0.00    -0.251 NA
ATOM     11  H2  LGS d           5.805   6.482  11.416  0.00  0.00     0.090 H 
ATOM     12  H3  LGS d           4.327   7.926   9.147  0.00  0.00     0.080 H 
ATOM     13  H4  LGS d           7.259   7.853   9.717  0.00  0.00     0.078 H 
ATOM     14  H5  LGS d           6.325   8.916   8.610  0.00  0.00     0.078 H 
ATOM     15  H6  LGS d           2.905   7.293  10.788  0.00  0.00     0.091 H 
ATOM     16  H8  LGS d           4.023   4.562  11.540  0.00  0.00     0.093 H 
ATOM     17  H10 LGS d           3.266   4.925   8.700  0.00  0.00     0.122 H 
ENDROOT
BRANCH  10  18
ATOM     18  C8  LGS d           7.067   4.756   5.921  0.00  0.00     0.019 C 
ATOM     19  H12 LGS d           7.594   3.791   5.910  0.00  0.00     0.067 H 
ATOM     20  H13 LGS d           7.801   5.575   5.946  0.00  0.00     0.067 H 
BRANCH  18  21
ATOM     21  C9  LGS d           6.227   4.879   4.655  0.00  0.00    -0.048 C 
ATOM     22  H14 LGS d           5.220   4.485   4.856  0.00  0.00     0.035 H 
ATOM     23  H15 LGS d           6.700   4.289   3.856  0.00  0.00     0.035 H 
BRANCH  21  24
ATOM     24  C10 LGS d           6.107   6.338   4.190  0.00  0.00    -0.064 C 
ATOM     25  H16 LGS d           6.220   6.368   3.095  0.00  0.00     0.033 H 
ATOM     26  H17 LGS d           6.912   6.923   4.658  0.00  0.00     0.033 H 
BRANCH  24  27
ATOM     27  C11 LGS d           4.749   6.978   4.563  0.00  0.00    -0.065 C 
ATOM     28  H18 LGS d           4.737   8.039   4.271  0.00  0.00     0.033 H 
ATOM     29  H19 LGS d           4.575   6.895   5.647  0.00  0.00     0.033 H 
BRANCH  27  30
ATOM     30  C12 LGS d           3.669   6.201   3.790  0.00  0.00    -0.065 C 
ATOM     31  H20 LGS d           4.160   5.421   3.190  0.00  0.00     0.033 H 
ATOM     32  H21 LGS d           3.144   6.901   3.123  0.00  0.00     0.033 H 
BRANCH  30  33
ATOM     33  C13 LGS d           2.630   5.529   4.713  0.00  0.00    -0.065 C 
ATOM     34  H22 LGS d           1.641   5.975   4.529  0.00  0.00     0.033 H 
ATOM     35  H23 LGS d           2.917   5.695   5.762  0.00  0.00     0.033 H 
BRANCH  33  36
ATOM     36  C14 LGS d           2.563   4.016   4.439  0.00  0.00    -0.069 C 
ATOM     37  H24 LGS d           3.259   3.765   3.626  0.00  0.00     0.032 H 
ATOM     38  H25 LGS d           1.538   3.748   4.140  0.00  0.00     0.032 H 
BRANCH  36  39
ATOM     39  C15 LGS d           2.945   3.220   5.690  0.00  0.00    -0.077 C 
ATOM     40  H26 LGS d           2.246   2.381   5.819  0.00  0.00     0.027 H 
ATOM     41  H27 LGS d           2.896   3.876   6.572  0.00  0.00     0.027 H 
ATOM     42  H28 LGS d           3.968   2.831   5.579  0.00  0.00     0.027 H 
ENDBRANCH  36  39
ENDBRANCH  33  36
ENDBRANCH  30  33
ENDBRANCH  27  30
ENDBRANCH  24  27
ENDBRANCH  21  24
ENDBRANCH  18  21
ENDBRANCH  10  18
BRANCH   7  43
ATOM     43  O1  LGS d           4.816   3.715   9.410  0.00  0.00    -0.374 OA
ATOM     44  H11 LGS d           4.230   3.016   9.143  0.00  0.00     0.212 HD
ENDBRANCH   7  43
BRANCH   1  45
ATOM     45  O4  LGS d           5.215   8.451  11.633  0.00  0.00    -0.391 OA
ATOM     46  H1  LGS d           5.631   8.345  12.480  0.00  0.00     0.210 HD
ENDBRANCH   1  45
BRANCH   6  47
ATOM     47  O2  LGS d           2.117   4.782  10.787  0.00  0.00    -0.389 OA
ATOM     48  H9  LGS d           2.006   4.021  11.345  0.00  0.00     0.210 HD
ENDBRANCH   6  47
BRANCH   5  49
ATOM     49  O3  LGS d           3.381   6.648  12.709  0.00  0.00    -0.390 OA
ATOM     50  H7  LGS d           2.464   6.843  12.863  0.00  0.00     0.210 HD
ENDBRANCH   5  49
TORSDOF 12
ENDMDL
MODEL 9
REMARK VINA RESULT:      -6.0      3.425      7.537
REMARK  12 active torsions:
REMARK  status: ('A' for Active; 'I' for Inactive)
REMARK    1  A    between atoms: O4_1  and  C4_2 
REMARK    2  A    between atoms: C3_6  and  O3_7 
REMARK    3  A    between atoms: C2_8  and  O2_9 
REMARK    4  A    between atoms: C1_10  and  O1_11 
REMARK    5  A    between atoms: N2_14  and  C8_15 
REMARK    6  A    between atoms: C8_15  and  C9_16 
REMARK    7  A    between atoms: C9_16  and  C10_17 
REMARK    8  A    between atoms: C10_17  and  C11_18 
REMARK    9  A    between atoms: C11_18  and  C12_19 
REMARK   10  A    between atoms: C12_19  and  C13_20 
REMARK   11  A    between atoms: C13_20  and  C14_21 
REMARK   12  A    between atoms: C14_21  and  C15_22 
ROOT
ATOM      1  C4  LGS d           5.074   5.660   4.627  0.00  0.00     0.084 C 
ATOM      2  C5  LGS d           5.956   5.148   5.772  0.00  0.00     0.066 C 
ATOM      3  C6  LGS d           7.036   6.094   6.293  0.00  0.00     0.050 C 
ATOM      4  O6  LGS d           6.946   5.991   7.737  0.00  0.00    -0.319 OA
ATOM      5  C3  LGS d           4.140   4.501   4.262  0.00  0.00     0.091 C 
ATOM      6  C2  LGS d           3.126   4.234   5.386  0.00  0.00     0.104 C 
ATOM      7  C1  LGS d           3.771   4.240   6.793  0.00  0.00     0.133 C 
ATOM      8  N1  LGS d           5.086   4.911   6.934  0.00  0.00    -0.307 N 
ATOM      9  C7  LGS d           5.742   5.395   8.048  0.00  0.00     0.241 C 
ATOM     10  N2  LGS d           5.326   5.269   9.312  0.00  0.00    -0.251 NA
ATOM     11  H2  LGS d           4.495   6.538   4.948  0.00  0.00     0.090 H 
ATOM     12  H3  LGS d           6.432   4.211   5.445  0.00  0.00     0.080 H 
ATOM     13  H4  LGS d           6.840   7.126   5.963  0.00  0.00     0.078 H 
ATOM     14  H5  LGS d           8.031   5.780   5.943  0.00  0.00     0.078 H 
ATOM     15  H6  LGS d           4.739   3.597   4.078  0.00  0.00     0.091 H 
ATOM     16  H8  LGS d           2.379   5.042   5.349  0.00  0.00     0.093 H 
ATOM     17  H10 LGS d           3.878   3.193   7.110  0.00  0.00     0.122 H 
ENDROOT
BRANCH  10  18
ATOM     18  C8  LGS d           6.068   5.561  10.545  0.00  0.00     0.019 C 
ATOM     19  H12 LGS d           7.139   5.644  10.309  0.00  0.00     0.067 H 
ATOM     20  H13 LGS d           5.912   4.740  11.261  0.00  0.00     0.067 H 
BRANCH  18  21
ATOM     21  C9  LGS d           5.593   6.866  11.174  0.00  0.00    -0.048 C 
ATOM     22  H14 LGS d           5.844   7.698  10.499  0.00  0.00     0.035 H 
ATOM     23  H15 LGS d           6.108   7.006  12.136  0.00  0.00     0.035 H 
BRANCH  21  24
ATOM     24  C10 LGS d           4.077   6.863  11.417  0.00  0.00    -0.064 C 
ATOM     25  H16 LGS d           3.566   6.727  10.452  0.00  0.00     0.033 H 
ATOM     26  H17 LGS d           3.789   7.832  11.851  0.00  0.00     0.033 H 
BRANCH  24  27
ATOM     27  C11 LGS d           3.624   5.738  12.378  0.00  0.00    -0.065 C 
ATOM     28  H18 LGS d           3.780   6.046  13.423  0.00  0.00     0.033 H 
ATOM     29  H19 LGS d           4.191   4.817  12.179  0.00  0.00     0.033 H 
BRANCH  27  30
ATOM     30  C12 LGS d           2.126   5.508  12.110  0.00  0.00    -0.065 C 
ATOM     31  H20 LGS d           1.835   4.543  12.551  0.00  0.00     0.033 H 
ATOM     32  H21 LGS d           1.965   5.478  11.022  0.00  0.00     0.033 H 
BRANCH  30  33
ATOM     33  C13 LGS d           1.228   6.612  12.708  0.00  0.00    -0.065 C 
ATOM     34  H22 LGS d           1.857   7.453  13.034  0.00  0.00     0.033 H 
ATOM     35  H23 LGS d           0.682   6.206  13.572  0.00  0.00     0.033 H 
BRANCH  33  36
ATOM     36  C14 LGS d           0.216   7.112  11.661  0.00  0.00    -0.069 C 
ATOM     37  H24 LGS d          -0.088   8.138  11.914  0.00  0.00     0.032 H 
ATOM     38  H25 LGS d          -0.666   6.455  11.668  0.00  0.00     0.032 H 
BRANCH  36  39
ATOM     39  C15 LGS d           0.835   7.104  10.260  0.00  0.00    -0.077 C 
ATOM     40  H26 LGS d           0.338   6.341   9.644  0.00  0.00     0.027 H 
ATOM     41  H27 LGS d           1.908   6.872  10.335  0.00  0.00     0.027 H 
ATOM     42  H28 LGS d           0.705   8.093   9.796  0.00  0.00     0.027 H 
ENDBRANCH  36  39
ENDBRANCH  33  36
ENDBRANCH  30  33
ENDBRANCH  27  30
ENDBRANCH  24  27
ENDBRANCH  21  24
ENDBRANCH  18  21
ENDBRANCH  10  18
BRANCH   7  43
ATOM     43  O1  LGS d           2.917   4.949   7.712  0.00  0.00    -0.374 OA
ATOM     44  H11 LGS d           2.931   5.876   7.506  0.00  0.00     0.212 HD
ENDBRANCH   7  43
BRANCH   1  45
ATOM     45  O4  LGS d           5.880   5.999   3.511  0.00  0.00    -0.391 OA
ATOM     46  H1  LGS d           6.379   6.783   3.708  0.00  0.00     0.210 HD
ENDBRANCH   1  45
BRANCH   6  47
ATOM     47  O2  LGS d           2.444   2.987   5.214  0.00  0.00    -0.389 OA
ATOM     48  H9  LGS d           2.239   2.864   4.294  0.00  0.00     0.210 HD
ENDBRANCH   6  47
BRANCH   5  49
ATOM     49  O3  LGS d           3.382   4.833   3.096  0.00  0.00    -0.390 OA
ATOM     50  H7  LGS d           3.067   4.035   2.687  0.00  0.00     0.210 HD
ENDBRANCH   5  49
TORSDOF 12
ENDMDL
MODEL 10
REMARK VINA RESULT:      -5.9      1.760      2.511
REMARK  12 active torsions:
REMARK  status: ('A' for Active; 'I' for Inactive)
REMARK    1  A    between atoms: O4_1  and  C4_2 
REMARK    2  A    between atoms: C3_6  and  O3_7 
REMARK    3  A    between atoms: C2_8  and  O2_9 
REMARK    4  A    between atoms: C1_10  and  O1_11 
REMARK    5  A    between atoms: N2_14  and  C8_15 
REMARK    6  A    between atoms: C8_15  and  C9_16 
REMARK    7  A    between atoms: C9_16  and  C10_17 
REMARK    8  A    between atoms: C10_17  and  C11_18 
REMARK    9  A    between atoms: C11_18  and  C12_19 
REMARK   10  A    between atoms: C12_19  and  C13_20 
REMARK   11  A    between atoms: C13_20  and  C14_21 
REMARK   12  A    between atoms: C14_21  and  C15_22 
ROOT
ATOM      1  C4  LGS d           1.489   7.111  11.884  0.00  0.00     0.084 C 
ATOM      2  C5  LGS d           1.520   5.971  10.859  0.00  0.00     0.066 C 
ATOM      3  C6  LGS d           1.434   6.362   9.385  0.00  0.00     0.050 C 
ATOM      4  O6  LGS d           2.442   5.547   8.734  0.00  0.00    -0.319 OA
ATOM      5  C3  LGS d           1.517   6.442  13.263  0.00  0.00     0.091 C 
ATOM      6  C2  LGS d           2.878   5.777  13.526  0.00  0.00     0.104 C 
ATOM      7  C1  LGS d           3.401   4.974  12.310  0.00  0.00     0.133 C 
ATOM      8  N1  LGS d           2.818   5.293  10.985  0.00  0.00    -0.307 N 
ATOM      9  C7  LGS d           3.280   5.044   9.707  0.00  0.00     0.241 C 
ATOM     10  N2  LGS d           4.377   4.346   9.399  0.00  0.00    -0.251 NA
ATOM     11  H2  LGS d           2.361   7.770  11.756  0.00  0.00     0.090 H 
ATOM     12  H3  LGS d           0.695   5.280  11.091  0.00  0.00     0.080 H 
ATOM     13  H4  LGS d           1.655   7.431   9.253  0.00  0.00     0.078 H 
ATOM     14  H5  LGS d           0.435   6.140   8.981  0.00  0.00     0.078 H 
ATOM     15  H6  LGS d           0.718   5.688  13.316  0.00  0.00     0.091 H 
ATOM     16  H8  LGS d           3.598   6.581  13.739  0.00  0.00     0.093 H 
ATOM     17  H10 LGS d           3.227   3.908  12.520  0.00  0.00     0.122 H 
ENDROOT
BRANCH  10  18
ATOM     18  C8  LGS d           4.804   3.861   8.080  0.00  0.00     0.019 C 
ATOM     19  H12 LGS d           4.072   4.183   7.325  0.00  0.00     0.067 H 
ATOM     20  H13 LGS d           4.853   2.762   8.099  0.00  0.00     0.067 H 
BRANCH  18  21
ATOM     21  C9  LGS d           6.176   4.415   7.711  0.00  0.00    -0.048 C 
ATOM     22  H14 LGS d           6.880   3.577   7.600  0.00  0.00     0.035 H 
ATOM     23  H15 LGS d           6.519   5.080   8.517  0.00  0.00     0.035 H 
BRANCH  21  24
ATOM     24  C10 LGS d           6.135   5.207   6.396  0.00  0.00    -0.064 C 
ATOM     25  H16 LGS d           5.093   5.257   6.047  0.00  0.00     0.033 H 
ATOM     26  H17 LGS d           6.747   4.679   5.649  0.00  0.00     0.033 H 
BRANCH  24  27
ATOM     27  C11 LGS d           6.675   6.649   6.545  0.00  0.00    -0.065 C 
ATOM     28  H18 LGS d           6.912   7.071   5.557  0.00  0.00     0.033 H 
ATOM     29  H19 LGS d           7.580   6.654   7.171  0.00  0.00     0.033 H 
BRANCH  27  30
ATOM     30  C12 LGS d           5.560   7.469   7.219  0.00  0.00    -0.065 C 
ATOM     31  H20 LGS d           5.003   6.808   7.900  0.00  0.00     0.033 H 
ATOM     32  H21 LGS d           4.883   7.847   6.439  0.00  0.00     0.033 H 
BRANCH  30  33
ATOM     33  C13 LGS d           6.095   8.669   8.029  0.00  0.00    -0.065 C 
ATOM     34  H22 LGS d           5.411   9.522   7.908  0.00  0.00     0.033 H 
ATOM     35  H23 LGS d           7.092   8.943   7.653  0.00  0.00     0.033 H 
BRANCH  33  36
ATOM     36  C14 LGS d           6.199   8.310   9.522  0.00  0.00    -0.069 C 
ATOM     37  H24 LGS d           6.793   9.079  10.038  0.00  0.00     0.032 H 
ATOM     38  H25 LGS d           6.695   7.333   9.625  0.00  0.00     0.032 H 
BRANCH  36  39
ATOM     39  C15 LGS d           4.809   8.236  10.161  0.00  0.00    -0.077 C 
ATOM     40  H26 LGS d           4.045   8.462   9.404  0.00  0.00     0.027 H 
ATOM     41  H27 LGS d           4.743   8.969  10.979  0.00  0.00     0.027 H 
ATOM     42  H28 LGS d           4.643   7.225  10.561  0.00  0.00     0.027 H 
ENDBRANCH  36  39
ENDBRANCH  33  36
ENDBRANCH  30  33
ENDBRANCH  27  30
ENDBRANCH  24  27
ENDBRANCH  21  24
ENDBRANCH  18  21
ENDBRANCH  10  18
BRANCH   7  43
ATOM     43  O1  LGS d           4.811   5.219  12.140  0.00  0.00    -0.374 OA
ATOM     44  H11 LGS d           4.949   6.134  11.925  0.00  0.00     0.212 HD
ENDBRANCH   7  43
BRANCH   1  45
ATOM     45  O4  LGS d           0.295   7.862  11.738  0.00  0.00    -0.391 OA
ATOM     46  H1  LGS d          -0.437   7.268  11.619  0.00  0.00     0.210 HD
ENDBRANCH   1  45
BRANCH   6  47
ATOM     47  O2  LGS d           2.841   4.898  14.656  0.00  0.00    -0.389 OA
ATOM     48  H9  LGS d           1.938   4.683  14.858  0.00  0.00     0.210 HD
ENDBRANCH   6  47
BRANCH   5  49
ATOM     49  O3  LGS d           1.335   7.423  14.286  0.00  0.00    -0.390 OA
ATOM     50  H7  LGS d           0.574   7.954  14.082  0.00  0.00     0.210 HD
ENDBRANCH   5  49
TORSDOF 12
ENDMDL
