MODEL 1
REMARK VINA RESULT:      -6.6      0.000      0.000
REMARK  2 active torsions:
REMARK  status: ('A' for Active; 'I' for Inactive)
REMARK    1  A    between atoms: C0_1  and  C1_2 
REMARK    2  A    between atoms: C0_1  and  N1_3 
ROOT
ATOM      1  C1  ESI d           8.542   0.712  25.344  0.00  0.00     0.049 A 
ATOM      2  S2  ESI d           9.242   1.266  23.825  0.00  0.00    -0.086 SA
ATOM      3  C3  ESI d           9.085   2.946  24.202  0.00  0.00     0.017 A 
ATOM      4  C4  ESI d           8.509   3.042  25.460  0.00  0.00    -0.001 A 
ATOM      5  C5  ESI d           8.220   1.847  26.060  0.00  0.00    -0.050 A 
ATOM      6  C6  ESI d           9.425   4.059  23.467  0.00  0.00    -0.066 A 
ATOM      7  C7  ESI d           9.185   5.309  24.014  0.00  0.00    -0.080 A 
ATOM      8  C8  ESI d           8.619   5.421  25.271  0.00  0.00    -0.066 A 
ATOM      9  C9  ESI d           8.278   4.304  26.011  0.00  0.00     0.018 A 
ATOM     10  I9  ESI d           7.508   4.674  27.853  0.00  0.00    -0.044 I 
ATOM     11  H5  ESI d           7.761   1.794  27.046  0.00  0.00     0.087 H 
ATOM     12  H6  ESI d           9.869   3.959  22.483  0.00  0.00     0.085 H 
ATOM     13  H7  ESI d           9.443   6.201  23.455  0.00  0.00     0.083 H 
ATOM     14  H8  ESI d           8.438   6.406  25.686  0.00  0.00     0.085 H 
ENDROOT
BRANCH   1  15
ATOM     15  C0  ESI d           8.410  -0.623  25.668  0.00  0.00     0.109 C 
ATOM     16  N2  ESI d           8.067  -0.873  26.898  0.00  0.00    -0.385 N 
ATOM     17  H3  ESI d           7.911  -0.097  27.558  0.00  0.00     0.157 HD
ATOM     18  H4  ESI d           7.950  -1.847  27.212  0.00  0.00     0.157 HD
BRANCH  15  19
ATOM     19  N1  ESI d           8.630  -1.521  24.754  0.00  0.00    -0.385 N 
ATOM     20  H1  ESI d           7.891  -2.194  24.504  0.00  0.00     0.157 HD
ATOM     21  H2  ESI d           9.544  -1.560  24.280  0.00  0.00     0.157 HD
ENDBRANCH  15  19
ENDBRANCH   1  15
TORSDOF 2
ENDMDL
MODEL 2
REMARK VINA RESULT:      -4.9      2.098      2.895
REMARK  2 active torsions:
REMARK  status: ('A' for Active; 'I' for Inactive)
REMARK    1  A    between atoms: C0_1  and  C1_2 
REMARK    2  A    between atoms: C0_1  and  N1_3 
ROOT
ATOM      1  C1  ESI d           8.708   1.764  24.788  0.00  0.00     0.049 A 
ATOM      2  S2  ESI d           8.326   1.872  26.504  0.00  0.00    -0.086 SA
ATOM      3  C3  ESI d           8.162   3.594  26.505  0.00  0.00     0.017 A 
ATOM      4  C4  ESI d           8.401   4.038  25.212  0.00  0.00    -0.001 A 
ATOM      5  C5  ESI d           8.694   3.057  24.305  0.00  0.00    -0.050 A 
ATOM      6  C6  ESI d           7.864   4.459  27.532  0.00  0.00    -0.066 A 
ATOM      7  C7  ESI d           7.796   5.814  27.253  0.00  0.00    -0.080 A 
ATOM      8  C8  ESI d           8.024   6.273  25.968  0.00  0.00    -0.066 A 
ATOM      9  C9  ESI d           8.323   5.404  24.935  0.00  0.00     0.018 A 
ATOM     10  I9  ESI d           8.572   6.263  23.112  0.00  0.00    -0.044 I 
ATOM     11  H5  ESI d           8.906   3.284  23.261  0.00  0.00     0.087 H 
ATOM     12  H6  ESI d           7.686   4.088  28.536  0.00  0.00     0.085 H 
ATOM     13  H7  ESI d           7.564   6.518  28.045  0.00  0.00     0.083 H 
ATOM     14  H8  ESI d           7.967   7.336  25.766  0.00  0.00     0.085 H 
ENDROOT
BRANCH   1  15
ATOM     15  C0  ESI d           8.935   0.566  24.142  0.00  0.00     0.109 C 
ATOM     16  N2  ESI d           9.028   0.633  22.846  0.00  0.00    -0.385 N 
ATOM     17  H3  ESI d           8.935   1.541  22.369  0.00  0.00     0.157 HD
ATOM     18  H4  ESI d           9.197  -0.222  22.297  0.00  0.00     0.157 HD
BRANCH  15  19
ATOM     19  N1  ESI d           9.038  -0.523  24.846  0.00  0.00    -0.385 N 
ATOM     20  H1  ESI d           8.269  -1.209  24.848  0.00  0.00     0.157 HD
ATOM     21  H2  ESI d           9.887  -0.700  25.399  0.00  0.00     0.157 HD
ENDBRANCH  15  19
ENDBRANCH   1  15
TORSDOF 2
ENDMDL
MODEL 3
REMARK VINA RESULT:      -3.8      3.723      5.341
REMARK  2 active torsions:
REMARK  status: ('A' for Active; 'I' for Inactive)
REMARK    1  A    between atoms: C0_1  and  C1_2 
REMARK    2  A    between atoms: C0_1  and  N1_3 
ROOT
ATOM      1  C1  ESI d           9.100   3.312  24.281  0.00  0.00     0.049 A 
ATOM      2  S2  ESI d           8.674   3.144  25.983  0.00  0.00    -0.086 SA
ATOM      3  C3  ESI d           8.450   1.431  25.904  0.00  0.00     0.017 A 
ATOM      4  C4  ESI d           8.702   1.035  24.599  0.00  0.00    -0.001 A 
ATOM      5  C5  ESI d           9.044   2.043  23.740  0.00  0.00    -0.050 A 
ATOM      6  C6  ESI d           8.085   0.536  26.883  0.00  0.00    -0.066 A 
ATOM      7  C7  ESI d           7.975  -0.803  26.544  0.00  0.00    -0.080 A 
ATOM      8  C8  ESI d           8.231  -1.216  25.248  0.00  0.00    -0.066 A 
ATOM      9  C9  ESI d           8.598  -0.316  24.264  0.00  0.00     0.018 A 
ATOM     10  I9  ESI d           8.981  -1.122  22.440  0.00  0.00    -0.044 I 
ATOM     11  H5  ESI d           9.259   1.856  22.689  0.00  0.00     0.087 H 
ATOM     12  H6  ESI d           7.889   0.871  27.896  0.00  0.00     0.085 H 
ATOM     13  H7  ESI d           7.688  -1.529  27.296  0.00  0.00     0.083 H 
ATOM     14  H8  ESI d           8.141  -2.267  24.999  0.00  0.00     0.085 H 
ENDROOT
BRANCH   1  15
ATOM     15  C0  ESI d           9.434   4.520  23.705  0.00  0.00     0.109 C 
ATOM     16  N2  ESI d           9.031   4.691  22.479  0.00  0.00    -0.385 N 
ATOM     17  H3  ESI d           8.498   3.949  22.004  0.00  0.00     0.157 HD
ATOM     18  H4  ESI d           9.245   5.569  21.985  0.00  0.00     0.157 HD
BRANCH  15  19
ATOM     19  N1  ESI d          10.111   5.387  24.399  0.00  0.00    -0.385 N 
ATOM     20  H1  ESI d          10.815   5.066  25.080  0.00  0.00     0.157 HD
ATOM     21  H2  ESI d           9.944   6.395  24.269  0.00  0.00     0.157 HD
ENDBRANCH  15  19
ENDBRANCH   1  15
TORSDOF 2
ENDMDL
