MODEL 1
REMARK VINA RESULT:      -9.2      0.000      0.000
REMARK  7 active torsions:
REMARK  status: ('A' for Active; 'I' for Inactive)
REMARK    1  A    between atoms: C8_6  and  C7_7 
REMARK       I    between atoms: C7_7  and  N1_9 
REMARK    2  A    between atoms: N1_9  and  C1_10 
REMARK    3  A    between atoms: C5_12  and  C6_13 
REMARK    4  A    between atoms: C6_13  and  O6_14 
REMARK    5  A    between atoms: C4_15  and  O4_16 
REMARK    6  A    between atoms: C3_17  and  O3_18 
REMARK    7  A    between atoms: C2_19  and  O2_20 
ROOT
ATOM      1  C1  OAK d          33.823  22.729  27.819  0.00  0.00     0.134 C 
ATOM      2  O5  OAK d          33.567  21.314  28.122  0.00  0.00    -0.354 OA
ATOM      3  C5  OAK d          32.384  20.820  27.488  0.00  0.00     0.088 C 
ATOM      4  C4  OAK d          32.541  20.952  25.952  0.00  0.00     0.089 C 
ATOM      5  C3  OAK d          32.831  22.403  25.532  0.00  0.00     0.091 C 
ATOM      6  C2  OAK d          34.030  22.965  26.313  0.00  0.00     0.104 C 
ATOM      7  H7  OAK d          32.958  23.320  28.151  0.00  0.00     0.122 H 
ATOM      8  H8  OAK d          31.511  21.410  27.804  0.00  0.00     0.090 H 
ATOM      9  H12 OAK d          33.378  20.317  25.627  0.00  0.00     0.091 H 
ATOM     10  H14 OAK d          31.946  23.019  25.749  0.00  0.00     0.091 H 
ATOM     11  H16 OAK d          34.937  22.430  25.994  0.00  0.00     0.093 H 
ENDROOT
BRANCH   1  12
ATOM     12  N1  OAK d          35.033  23.182  28.554  0.00  0.00    -0.328 N 
ATOM     13  C7  OAK d          34.897  23.817  29.715  0.00  0.00     0.253 C 
ATOM     14  O7  OAK d          33.814  24.061  30.242  0.00  0.00    -0.268 OA
ATOM     15  H6  OAK d          35.944  23.011  28.178  0.00  0.00     0.165 HD
BRANCH  13  16
ATOM     16  C8  OAK d          36.204  24.239  30.399  0.00  0.00     0.032 A 
ATOM     17  C9  OAK d          37.252  23.333  30.526  0.00  0.00    -0.068 A 
ATOM     18  C10 OAK d          38.437  23.711  31.153  0.00  0.00    -0.082 A 
ATOM     19  H1  OAK d          37.146  22.327  30.137  0.00  0.00     0.085 H 
ATOM     20  C11 OAK d          38.583  25.001  31.656  0.00  0.00    -0.083 A 
ATOM     21  H2  OAK d          39.249  22.999  31.250  0.00  0.00     0.083 H 
ATOM     22  C12 OAK d          37.533  25.914  31.531  0.00  0.00    -0.082 A 
ATOM     23  H3  OAK d          39.505  25.296  32.142  0.00  0.00     0.083 H 
ATOM     24  C13 OAK d          36.342  25.533  30.901  0.00  0.00    -0.068 A 
ATOM     25  H4  OAK d          37.641  26.919  31.923  0.00  0.00     0.083 H 
ATOM     26  H5  OAK d          35.528  26.242  30.805  0.00  0.00     0.085 H 
ENDBRANCH  13  16
ENDBRANCH   1  12
BRANCH   6  27
ATOM     27  O2  OAK d          34.214  24.366  26.043  0.00  0.00    -0.389 OA
ATOM     28  H17 OAK d          34.164  24.516  25.107  0.00  0.00     0.210 HD
ENDBRANCH   6  27
BRANCH   3  29
ATOM     29  C6  OAK d          32.212  19.366  27.967  0.00  0.00     0.043 C 
ATOM     30  H9  OAK d          32.363  19.319  29.055  0.00  0.00     0.078 H 
ATOM     31  H10 OAK d          32.954  18.726  27.466  0.00  0.00     0.078 H 
BRANCH  29  32
ATOM     32  O6  OAK d          30.897  18.906  27.649  0.00  0.00    -0.398 OA
ATOM     33  H11 OAK d          30.678  18.168  28.206  0.00  0.00     0.209 HD
ENDBRANCH  29  32
ENDBRANCH   3  29
BRANCH   5  34
ATOM     34  O3  OAK d          33.102  22.454  24.131  0.00  0.00    -0.390 OA
ATOM     35  H15 OAK d          33.526  21.647  23.863  0.00  0.00     0.210 HD
ENDBRANCH   5  34
BRANCH   4  36
ATOM     36  O4  OAK d          31.348  20.510  25.321  0.00  0.00    -0.390 OA
ATOM     37  H13 OAK d          30.662  20.416  25.972  0.00  0.00     0.210 HD
ENDBRANCH   4  36
TORSDOF 7
ENDMDL
MODEL 2
REMARK VINA RESULT:      -8.5      1.818      2.865
REMARK  7 active torsions:
REMARK  status: ('A' for Active; 'I' for Inactive)
REMARK    1  A    between atoms: C8_6  and  C7_7 
REMARK       I    between atoms: C7_7  and  N1_9 
REMARK    2  A    between atoms: N1_9  and  C1_10 
REMARK    3  A    between atoms: C5_12  and  C6_13 
REMARK    4  A    between atoms: C6_13  and  O6_14 
REMARK    5  A    between atoms: C4_15  and  O4_16 
REMARK    6  A    between atoms: C3_17  and  O3_18 
REMARK    7  A    between atoms: C2_19  and  O2_20 
ROOT
ATOM      1  C1  OAK d          33.108  23.277  28.680  0.00  0.00     0.134 C 
ATOM      2  O5  OAK d          33.586  22.657  27.436  0.00  0.00    -0.354 OA
ATOM      3  C5  OAK d          32.521  22.336  26.537  0.00  0.00     0.088 C 
ATOM      4  C4  OAK d          31.769  23.636  26.158  0.00  0.00     0.089 C 
ATOM      5  C3  OAK d          31.242  24.372  27.401  0.00  0.00     0.091 C 
ATOM      6  C2  OAK d          32.373  24.602  28.416  0.00  0.00     0.104 C 
ATOM      7  H7  OAK d          32.413  22.582  29.173  0.00  0.00     0.122 H 
ATOM      8  H8  OAK d          31.812  21.648  27.021  0.00  0.00     0.090 H 
ATOM      9  H12 OAK d          32.462  24.301  25.622  0.00  0.00     0.091 H 
ATOM     10  H14 OAK d          30.461  23.759  27.872  0.00  0.00     0.091 H 
ATOM     11  H16 OAK d          33.087  25.321  27.987  0.00  0.00     0.093 H 
ENDROOT
BRANCH   1  12
ATOM     12  N1  OAK d          34.263  23.531  29.582  0.00  0.00    -0.328 N 
ATOM     13  C7  OAK d          35.385  24.045  29.084  0.00  0.00     0.253 C 
ATOM     14  O7  OAK d          35.540  24.338  27.901  0.00  0.00    -0.268 OA
ATOM     15  H6  OAK d          34.196  23.317  30.556  0.00  0.00     0.165 HD
BRANCH  13  16
ATOM     16  C8  OAK d          36.515  24.275  30.095  0.00  0.00     0.032 A 
ATOM     17  C9  OAK d          36.637  25.501  30.742  0.00  0.00    -0.068 A 
ATOM     18  C10 OAK d          37.668  25.715  31.656  0.00  0.00    -0.082 A 
ATOM     19  H1  OAK d          35.928  26.294  30.534  0.00  0.00     0.085 H 
ATOM     20  C11 OAK d          38.583  24.701  31.929  0.00  0.00    -0.083 A 
ATOM     21  H2  OAK d          37.757  26.673  32.155  0.00  0.00     0.083 H 
ATOM     22  C12 OAK d          38.464  23.470  31.281  0.00  0.00    -0.082 A 
ATOM     23  H3  OAK d          39.383  24.867  32.640  0.00  0.00     0.083 H 
ATOM     24  C13 OAK d          37.429  23.256  30.363  0.00  0.00    -0.068 A 
ATOM     25  H4  OAK d          39.175  22.679  31.489  0.00  0.00     0.083 H 
ATOM     26  H5  OAK d          37.338  22.300  29.861  0.00  0.00     0.085 H 
ENDBRANCH  13  16
ENDBRANCH   1  12
BRANCH   6  27
ATOM     27  O2  OAK d          31.864  25.149  29.645  0.00  0.00    -0.389 OA
ATOM     28  H17 OAK d          32.432  24.895  30.362  0.00  0.00     0.210 HD
ENDBRANCH   6  27
BRANCH   3  29
ATOM     29  C6  OAK d          33.170  21.627  25.334  0.00  0.00     0.043 C 
ATOM     30  H9  OAK d          32.603  20.716  25.096  0.00  0.00     0.078 H 
ATOM     31  H10 OAK d          34.208  21.358  25.583  0.00  0.00     0.078 H 
BRANCH  29  32
ATOM     32  O6  OAK d          33.166  22.498  24.200  0.00  0.00    -0.398 OA
ATOM     33  H11 OAK d          33.874  22.257  23.614  0.00  0.00     0.209 HD
ENDBRANCH  29  32
ENDBRANCH   3  29
BRANCH   5  34
ATOM     34  O3  OAK d          30.679  25.627  27.016  0.00  0.00    -0.390 OA
ATOM     35  H15 OAK d          31.324  26.125  26.527  0.00  0.00     0.210 HD
ENDBRANCH   5  34
BRANCH   4  36
ATOM     36  O4  OAK d          30.679  23.315  25.306  0.00  0.00    -0.390 OA
ATOM     37  H13 OAK d          29.899  23.767  25.606  0.00  0.00     0.210 HD
ENDBRANCH   4  36
TORSDOF 7
ENDMDL
MODEL 3
REMARK VINA RESULT:      -7.5      2.291      7.109
REMARK  7 active torsions:
REMARK  status: ('A' for Active; 'I' for Inactive)
REMARK    1  A    between atoms: C8_6  and  C7_7 
REMARK       I    between atoms: C7_7  and  N1_9 
REMARK    2  A    between atoms: N1_9  and  C1_10 
REMARK    3  A    between atoms: C5_12  and  C6_13 
REMARK    4  A    between atoms: C6_13  and  O6_14 
REMARK    5  A    between atoms: C4_15  and  O4_16 
REMARK    6  A    between atoms: C3_17  and  O3_18 
REMARK    7  A    between atoms: C2_19  and  O2_20 
ROOT
ATOM      1  C1  OAK d          35.143  24.166  29.627  0.00  0.00     0.134 C 
ATOM      2  O5  OAK d          36.402  23.626  30.160  0.00  0.00    -0.354 OA
ATOM      3  C5  OAK d          37.293  24.649  30.611  0.00  0.00     0.088 C 
ATOM      4  C4  OAK d          36.608  25.452  31.745  0.00  0.00     0.089 C 
ATOM      5  C3  OAK d          35.265  26.048  31.290  0.00  0.00     0.091 C 
ATOM      6  C2  OAK d          34.362  24.957  30.691  0.00  0.00     0.104 C 
ATOM      7  H7  OAK d          35.377  24.840  28.791  0.00  0.00     0.122 H 
ATOM      8  H8  OAK d          37.528  25.337  29.786  0.00  0.00     0.090 H 
ATOM      9  H12 OAK d          36.424  24.777  32.594  0.00  0.00     0.091 H 
ATOM     10  H14 OAK d          35.457  26.811  30.522  0.00  0.00     0.091 H 
ATOM     11  H16 OAK d          34.067  24.267  31.496  0.00  0.00     0.093 H 
ENDROOT
BRANCH   1  12
ATOM     12  N1  OAK d          34.296  23.050  29.130  0.00  0.00    -0.328 N 
ATOM     13  C7  OAK d          33.553  23.224  28.040  0.00  0.00     0.253 C 
ATOM     14  O7  OAK d          33.517  24.268  27.393  0.00  0.00    -0.268 OA
ATOM     15  H6  OAK d          34.285  22.174  29.612  0.00  0.00     0.165 HD
BRANCH  13  16
ATOM     16  C8  OAK d          32.720  22.012  27.604  0.00  0.00     0.032 A 
ATOM     17  C9  OAK d          31.662  22.173  26.715  0.00  0.00    -0.068 A 
ATOM     18  C10 OAK d          30.899  21.074  26.323  0.00  0.00    -0.082 A 
ATOM     19  H1  OAK d          31.429  23.157  26.325  0.00  0.00     0.085 H 
ATOM     20  C11 OAK d          31.191  19.806  26.819  0.00  0.00    -0.083 A 
ATOM     21  H2  OAK d          30.075  21.207  25.631  0.00  0.00     0.083 H 
ATOM     22  C12 OAK d          32.251  19.641  27.713  0.00  0.00    -0.082 A 
ATOM     23  H3  OAK d          30.598  18.952  26.513  0.00  0.00     0.083 H 
ATOM     24  C13 OAK d          33.017  20.745  28.106  0.00  0.00    -0.068 A 
ATOM     25  H4  OAK d          32.481  18.656  28.102  0.00  0.00     0.083 H 
ATOM     26  H5  OAK d          33.840  20.615  28.799  0.00  0.00     0.085 H 
ENDBRANCH  13  16
ENDBRANCH   1  12
BRANCH   6  27
ATOM     27  O2  OAK d          33.170  25.525  30.122  0.00  0.00    -0.389 OA
ATOM     28  H17 OAK d          32.539  25.689  30.811  0.00  0.00     0.210 HD
ENDBRANCH   6  27
BRANCH   3  29
ATOM     29  C6  OAK d          38.582  23.934  31.056  0.00  0.00     0.043 C 
ATOM     30  H9  OAK d          39.305  24.677  31.422  0.00  0.00     0.078 H 
ATOM     31  H10 OAK d          39.014  23.392  30.201  0.00  0.00     0.078 H 
BRANCH  29  32
ATOM     32  O6  OAK d          38.284  23.007  32.102  0.00  0.00    -0.398 OA
ATOM     33  H11 OAK d          38.739  22.189  31.939  0.00  0.00     0.209 HD
ENDBRANCH  29  32
ENDBRANCH   3  29
BRANCH   5  34
ATOM     34  O3  OAK d          34.608  26.659  32.400  0.00  0.00    -0.390 OA
ATOM     35  H15 OAK d          35.220  27.223  32.857  0.00  0.00     0.210 HD
ENDBRANCH   5  34
BRANCH   4  36
ATOM     36  O4  OAK d          37.469  26.501  32.161  0.00  0.00    -0.390 OA
ATOM     37  H13 OAK d          37.411  27.222  31.545  0.00  0.00     0.210 HD
ENDBRANCH   4  36
TORSDOF 7
ENDMDL
MODEL 4
REMARK VINA RESULT:      -6.4      1.742      3.008
REMARK  7 active torsions:
REMARK  status: ('A' for Active; 'I' for Inactive)
REMARK    1  A    between atoms: C8_6  and  C7_7 
REMARK       I    between atoms: C7_7  and  N1_9 
REMARK    2  A    between atoms: N1_9  and  C1_10 
REMARK    3  A    between atoms: C5_12  and  C6_13 
REMARK    4  A    between atoms: C6_13  and  O6_14 
REMARK    5  A    between atoms: C4_15  and  O4_16 
REMARK    6  A    between atoms: C3_17  and  O3_18 
REMARK    7  A    between atoms: C2_19  and  O2_20 
ROOT
ATOM      1  C1  OAK d          33.733  22.993  27.622  0.00  0.00     0.134 C 
ATOM      2  O5  OAK d          32.553  23.863  27.731  0.00  0.00    -0.354 OA
ATOM      3  C5  OAK d          31.670  23.736  26.613  0.00  0.00     0.088 C 
ATOM      4  C4  OAK d          31.171  22.272  26.526  0.00  0.00     0.089 C 
ATOM      5  C3  OAK d          32.339  21.277  26.426  0.00  0.00     0.091 C 
ATOM      6  C2  OAK d          33.347  21.505  27.564  0.00  0.00     0.104 C 
ATOM      7  H7  OAK d          34.274  23.251  26.700  0.00  0.00     0.122 H 
ATOM      8  H8  OAK d          32.202  23.982  25.682  0.00  0.00     0.090 H 
ATOM      9  H12 OAK d          30.590  22.043  27.432  0.00  0.00     0.091 H 
ATOM     10  H14 OAK d          32.850  21.426  25.464  0.00  0.00     0.091 H 
ATOM     11  H16 OAK d          32.867  21.229  28.516  0.00  0.00     0.093 H 
ENDROOT
BRANCH   1  12
ATOM     12  N1  OAK d          34.625  23.220  28.789  0.00  0.00    -0.328 N 
ATOM     13  C7  OAK d          35.716  23.970  28.647  0.00  0.00     0.253 C 
ATOM     14  O7  OAK d          36.047  24.507  27.593  0.00  0.00    -0.268 OA
ATOM     15  H6  OAK d          34.407  22.813  29.676  0.00  0.00     0.165 HD
BRANCH  13  16
ATOM     16  C8  OAK d          36.567  24.149  29.910  0.00  0.00     0.032 A 
ATOM     17  C9  OAK d          36.428  25.291  30.692  0.00  0.00    -0.068 A 
ATOM     18  C10 OAK d          37.206  25.459  31.836  0.00  0.00    -0.082 A 
ATOM     19  H1  OAK d          35.711  26.053  30.411  0.00  0.00     0.085 H 
ATOM     20  C11 OAK d          38.128  24.484  32.206  0.00  0.00    -0.083 A 
ATOM     21  H2  OAK d          37.092  26.352  32.441  0.00  0.00     0.083 H 
ATOM     22  C12 OAK d          38.273  23.337  31.422  0.00  0.00    -0.082 A 
ATOM     23  H3  OAK d          38.732  24.615  33.096  0.00  0.00     0.083 H 
ATOM     24  C13 OAK d          37.491  23.169  30.273  0.00  0.00    -0.068 A 
ATOM     25  H4  OAK d          38.991  22.576  31.705  0.00  0.00     0.083 H 
ATOM     26  H5  OAK d          37.603  22.278  29.666  0.00  0.00     0.085 H 
ENDBRANCH  13  16
ENDBRANCH   1  12
BRANCH   6  27
ATOM     27  O2  OAK d          34.517  20.688  27.393  0.00  0.00    -0.389 OA
ATOM     28  H17 OAK d          35.292  21.205  27.577  0.00  0.00     0.210 HD
ENDBRANCH   6  27
BRANCH   3  29
ATOM     29  C6  OAK d          30.541  24.760  26.836  0.00  0.00     0.043 C 
ATOM     30  H9  OAK d          29.683  24.260  27.308  0.00  0.00     0.078 H 
ATOM     31  H10 OAK d          30.233  25.181  25.867  0.00  0.00     0.078 H 
BRANCH  29  32
ATOM     32  O6  OAK d          31.004  25.812  27.685  0.00  0.00    -0.398 OA
ATOM     33  H11 OAK d          30.721  26.649  27.334  0.00  0.00     0.209 HD
ENDBRANCH  29  32
ENDBRANCH   3  29
BRANCH   5  34
ATOM     34  O3  OAK d          31.840  19.941  26.486  0.00  0.00    -0.390 OA
ATOM     35  H15 OAK d          31.669  19.709  27.391  0.00  0.00     0.210 HD
ENDBRANCH   5  34
BRANCH   4  36
ATOM     36  O4  OAK d          30.334  22.131  25.387  0.00  0.00    -0.390 OA
ATOM     37  H13 OAK d          30.824  22.357  24.605  0.00  0.00     0.210 HD
ENDBRANCH   4  36
TORSDOF 7
ENDMDL
