MODEL 1
REMARK VINA RESULT:      -6.7      0.000      0.000
REMARK  6 active torsions:
REMARK  status: ('A' for Active; 'I' for Inactive)
REMARK    1  A    between atoms: N1_2  and  O7_5 
REMARK    2  A    between atoms: C2_3  and  O2_6 
REMARK    3  A    between atoms: C3_7  and  O3_8 
REMARK    4  A    between atoms: C4_9  and  O4_10 
REMARK    5  A    between atoms: C5_11  and  C6_12 
REMARK    6  A    between atoms: C6_12  and  O6_13 
ROOT
ATOM      1  C1  GOX d           0.115  11.146  10.264  0.00  0.00     0.159 C 
ATOM      2  N1  GOX d           0.436  10.877  11.514  0.00  0.00    -0.120 NA
ATOM      3  C2  GOX d           1.255  11.795   9.454  0.00  0.00     0.121 C 
ATOM      4  N5  GOX d          -1.168  10.837   9.771  0.00  0.00    -0.365 N 
ATOM      5  C3  GOX d           0.699  12.280   8.117  0.00  0.00     0.094 C 
ATOM      6  C4  GOX d          -0.198  11.206   7.493  0.00  0.00     0.084 C 
ATOM      7  C5  GOX d          -1.480  11.164   8.373  0.00  0.00     0.058 C 
ATOM      8  H1  GOX d           2.030  11.038   9.264  0.00  0.00     0.099 H 
ATOM      9  H2  GOX d          -1.872  10.390  10.377  0.00  0.00     0.161 HD
ATOM     10  H5  GOX d           0.118  13.202   8.261  0.00  0.00     0.091 H 
ATOM     11  H7  GOX d           0.307  10.230   7.522  0.00  0.00     0.090 H 
ATOM     12  H9  GOX d          -1.954  12.155   8.331  0.00  0.00     0.079 H 
ENDROOT
BRANCH   7  13
ATOM     13  C6  GOX d          -2.489  10.102   7.890  0.00  0.00     0.038 C 
ATOM     14  H10 GOX d          -2.464  10.056   6.791  0.00  0.00     0.077 H 
ATOM     15  H11 GOX d          -3.498  10.388   8.223  0.00  0.00     0.077 H 
BRANCH  13  16
ATOM     16  O6  GOX d          -2.176   8.826   8.412  0.00  0.00    -0.399 OA
ATOM     17  H12 GOX d          -2.015   8.897   9.346  0.00  0.00     0.209 HD
ENDBRANCH  13  16
ENDBRANCH   7  13
BRANCH   6  18
ATOM     18  O4  GOX d          -0.505  11.526   6.141  0.00  0.00    -0.391 OA
ATOM     19  H8  GOX d          -1.052  12.302   6.117  0.00  0.00     0.210 HD
ENDBRANCH   6  18
BRANCH   5  20
ATOM     20  O3  GOX d           1.823  12.534   7.277  0.00  0.00    -0.390 OA
ATOM     21  H6  GOX d           2.438  13.096   7.734  0.00  0.00     0.210 HD
ENDBRANCH   5  20
BRANCH   2  22
ATOM     22  O7  GOX d          -0.515  10.255  12.326  0.00  0.00    -0.265 OA
ATOM     23  H3  GOX d          -1.360  10.670  12.199  0.00  0.00     0.247 HD
ENDBRANCH   2  22
BRANCH   3  24
ATOM     24  O2  GOX d           1.838  12.864  10.158  0.00  0.00    -0.385 OA
ATOM     25  H4  GOX d           1.471  12.904  11.033  0.00  0.00     0.210 HD
ENDBRANCH   3  24
TORSDOF 6
ENDMDL
MODEL 2
REMARK VINA RESULT:      -5.9      1.539      3.056
REMARK  6 active torsions:
REMARK  status: ('A' for Active; 'I' for Inactive)
REMARK    1  A    between atoms: N1_2  and  O7_5 
REMARK    2  A    between atoms: C2_3  and  O2_6 
REMARK    3  A    between atoms: C3_7  and  O3_8 
REMARK    4  A    between atoms: C4_9  and  O4_10 
REMARK    5  A    between atoms: C5_11  and  C6_12 
REMARK    6  A    between atoms: C6_12  and  O6_13 
ROOT
ATOM      1  C1  GOX d           0.993  11.966   9.796  0.00  0.00     0.159 C 
ATOM      2  N1  GOX d           1.790  12.972  10.096  0.00  0.00    -0.120 NA
ATOM      3  C2  GOX d           1.073  11.525   8.321  0.00  0.00     0.121 C 
ATOM      4  N5  GOX d           0.171  11.385  10.782  0.00  0.00    -0.365 N 
ATOM      5  C3  GOX d          -0.054  10.536   8.038  0.00  0.00     0.094 C 
ATOM      6  C4  GOX d          -0.151   9.502   9.164  0.00  0.00     0.084 C 
ATOM      7  C5  GOX d          -0.707  10.272  10.396  0.00  0.00     0.058 C 
ATOM      8  H1  GOX d           2.038  11.024   8.154  0.00  0.00     0.099 H 
ATOM      9  H2  GOX d           0.185  11.732  11.752  0.00  0.00     0.161 HD
ATOM     10  H5  GOX d          -1.012  11.069   7.949  0.00  0.00     0.091 H 
ATOM     11  H7  GOX d           0.846   9.101   9.394  0.00  0.00     0.090 H 
ATOM     12  H9  GOX d          -1.698  10.668  10.131  0.00  0.00     0.079 H 
ENDROOT
BRANCH   7  13
ATOM     13  C6  GOX d          -0.842   9.370  11.640  0.00  0.00     0.038 C 
ATOM     14  H10 GOX d          -0.547   8.345  11.374  0.00  0.00     0.077 H 
ATOM     15  H11 GOX d          -1.890   9.375  11.975  0.00  0.00     0.077 H 
BRANCH  13  16
ATOM     16  O6  GOX d          -0.019   9.828  12.694  0.00  0.00    -0.399 OA
ATOM     17  H12 GOX d           0.718   9.237  12.799  0.00  0.00     0.209 HD
ENDBRANCH  13  16
ENDBRANCH   7  13
BRANCH   6  18
ATOM     18  O4  GOX d          -1.006   8.428   8.792  0.00  0.00    -0.391 OA
ATOM     19  H8  GOX d          -1.269   7.950   9.570  0.00  0.00     0.210 HD
ENDBRANCH   6  18
BRANCH   5  20
ATOM     20  O3  GOX d           0.267   9.895   6.805  0.00  0.00    -0.390 OA
ATOM     21  H6  GOX d           0.692  10.517   6.227  0.00  0.00     0.210 HD
ENDBRANCH   5  20
BRANCH   2  22
ATOM     22  O7  GOX d           1.821  13.427  11.417  0.00  0.00    -0.265 OA
ATOM     23  H3  GOX d           2.596  13.088  11.850  0.00  0.00     0.247 HD
ENDBRANCH   2  22
BRANCH   3  24
ATOM     24  O2  GOX d           0.987  12.628   7.452  0.00  0.00    -0.385 OA
ATOM     25  H4  GOX d           0.432  12.406   6.714  0.00  0.00     0.210 HD
ENDBRANCH   3  24
TORSDOF 6
ENDMDL
MODEL 3
REMARK VINA RESULT:      -5.7      1.261      3.477
REMARK  6 active torsions:
REMARK  status: ('A' for Active; 'I' for Inactive)
REMARK    1  A    between atoms: N1_2  and  O7_5 
REMARK    2  A    between atoms: C2_3  and  O2_6 
REMARK    3  A    between atoms: C3_7  and  O3_8 
REMARK    4  A    between atoms: C4_9  and  O4_10 
REMARK    5  A    between atoms: C5_11  and  C6_12 
REMARK    6  A    between atoms: C6_12  and  O6_13 
ROOT
ATOM      1  C1  GOX d          -0.447  10.066  10.557  0.00  0.00     0.159 C 
ATOM      2  N1  GOX d          -0.884   9.487  11.658  0.00  0.00    -0.120 NA
ATOM      3  C2  GOX d          -1.410   9.940   9.361  0.00  0.00     0.121 C 
ATOM      4  N5  GOX d           0.795  10.732  10.543  0.00  0.00    -0.365 N 
ATOM      5  C3  GOX d          -0.700  10.424   8.099  0.00  0.00     0.094 C 
ATOM      6  C4  GOX d           0.044  11.735   8.377  0.00  0.00     0.084 C 
ATOM      7  C5  GOX d           1.244  11.353   9.290  0.00  0.00     0.058 C 
ATOM      8  H1  GOX d          -2.287  10.578   9.543  0.00  0.00     0.099 H 
ATOM      9  H2  GOX d           1.376  10.781  11.393  0.00  0.00     0.161 HD
ATOM     10  H5  GOX d           0.017   9.665   7.754  0.00  0.00     0.091 H 
ATOM     11  H7  GOX d          -0.618  12.438   8.903  0.00  0.00     0.090 H 
ATOM     12  H9  GOX d           1.877  10.643   8.740  0.00  0.00     0.079 H 
ENDROOT
BRANCH   7  13
ATOM     13  C6  GOX d           2.090  12.580   9.689  0.00  0.00     0.038 C 
ATOM     14  H10 GOX d           2.004  13.347   8.905  0.00  0.00     0.077 H 
ATOM     15  H11 GOX d           3.142  12.273   9.788  0.00  0.00     0.077 H 
BRANCH  13  16
ATOM     16  O6  GOX d           1.652  13.125  10.918  0.00  0.00    -0.399 OA
ATOM     17  H12 GOX d           0.879  13.657  10.769  0.00  0.00     0.209 HD
ENDBRANCH  13  16
ENDBRANCH   7  13
BRANCH   6  18
ATOM     18  O4  GOX d           0.483  12.334   7.163  0.00  0.00    -0.391 OA
ATOM     19  H8  GOX d           0.397  11.709   6.453  0.00  0.00     0.210 HD
ENDBRANCH   6  18
BRANCH   5  20
ATOM     20  O3  GOX d          -1.711  10.629   7.115  0.00  0.00    -0.390 OA
ATOM     21  H6  GOX d          -1.778  11.556   6.919  0.00  0.00     0.210 HD
ENDBRANCH   5  20
BRANCH   2  22
ATOM     22  O7  GOX d          -0.103   9.573  12.812  0.00  0.00    -0.265 OA
ATOM     23  H3  GOX d          -0.012   8.709  13.198  0.00  0.00     0.247 HD
ENDBRANCH   2  22
BRANCH   3  24
ATOM     24  O2  GOX d          -1.851   8.614   9.196  0.00  0.00    -0.385 OA
ATOM     25  H4  GOX d          -1.302   8.033   9.710  0.00  0.00     0.210 HD
ENDBRANCH   3  24
TORSDOF 6
ENDMDL
MODEL 4
REMARK VINA RESULT:      -5.5      1.690      3.582
REMARK  6 active torsions:
REMARK  status: ('A' for Active; 'I' for Inactive)
REMARK    1  A    between atoms: N1_2  and  O7_5 
REMARK    2  A    between atoms: C2_3  and  O2_6 
REMARK    3  A    between atoms: C3_7  and  O3_8 
REMARK    4  A    between atoms: C4_9  and  O4_10 
REMARK    5  A    between atoms: C5_11  and  C6_12 
REMARK    6  A    between atoms: C6_12  and  O6_13 
ROOT
ATOM      1  C1  GOX d          -0.047  11.354   7.615  0.00  0.00     0.159 C 
ATOM      2  N1  GOX d          -0.229  11.698   6.355  0.00  0.00    -0.120 NA
ATOM      3  C2  GOX d           0.895  12.296   8.389  0.00  0.00     0.121 C 
ATOM      4  N5  GOX d          -0.691  10.219   8.147  0.00  0.00    -0.365 N 
ATOM      5  C3  GOX d           1.221  11.670   9.742  0.00  0.00     0.094 C 
ATOM      6  C4  GOX d          -0.052  11.120  10.394  0.00  0.00     0.084 C 
ATOM      7  C5  GOX d          -0.450   9.872   9.554  0.00  0.00     0.058 C 
ATOM      8  H1  GOX d           0.380  13.255   8.553  0.00  0.00     0.099 H 
ATOM      9  H2  GOX d          -1.318   9.646   7.564  0.00  0.00     0.161 HD
ATOM     10  H5  GOX d           1.948  10.855   9.616  0.00  0.00     0.091 H 
ATOM     11  H7  GOX d          -0.854  11.872  10.348  0.00  0.00     0.090 H 
ATOM     12  H9  GOX d           0.375   9.147   9.612  0.00  0.00     0.079 H 
ENDROOT
BRANCH   7  13
ATOM     13  C6  GOX d          -1.743   9.207  10.068  0.00  0.00     0.038 C 
ATOM     14  H10 GOX d          -1.988   8.351   9.422  0.00  0.00     0.077 H 
ATOM     15  H11 GOX d          -2.562   9.940  10.033  0.00  0.00     0.077 H 
BRANCH  13  16
ATOM     16  O6  GOX d          -1.589   8.751  11.397  0.00  0.00    -0.399 OA
ATOM     17  H12 GOX d          -1.228   9.449  11.931  0.00  0.00     0.209 HD
ENDBRANCH  13  16
ENDBRANCH   7  13
BRANCH   6  18
ATOM     18  O4  GOX d           0.184  10.779  11.755  0.00  0.00    -0.391 OA
ATOM     19  H8  GOX d          -0.612  10.423  12.133  0.00  0.00     0.210 HD
ENDBRANCH   6  18
BRANCH   5  20
ATOM     20  O3  GOX d           1.779  12.706  10.547  0.00  0.00    -0.390 OA
ATOM     21  H6  GOX d           1.286  12.779  11.355  0.00  0.00     0.210 HD
ENDBRANCH   5  20
BRANCH   2  22
ATOM     22  O7  GOX d          -1.094  10.929   5.572  0.00  0.00    -0.265 OA
ATOM     23  H3  GOX d          -0.586  10.382   4.984  0.00  0.00     0.247 HD
ENDBRANCH   2  22
BRANCH   3  24
ATOM     24  O2  GOX d           2.077  12.544   7.667  0.00  0.00    -0.385 OA
ATOM     25  H4  GOX d           2.810  12.594   8.268  0.00  0.00     0.210 HD
ENDBRANCH   3  24
TORSDOF 6
ENDMDL
MODEL 5
REMARK VINA RESULT:      -5.3      1.095      3.605
REMARK  6 active torsions:
REMARK  status: ('A' for Active; 'I' for Inactive)
REMARK    1  A    between atoms: N1_2  and  O7_5 
REMARK    2  A    between atoms: C2_3  and  O2_6 
REMARK    3  A    between atoms: C3_7  and  O3_8 
REMARK    4  A    between atoms: C4_9  and  O4_10 
REMARK    5  A    between atoms: C5_11  and  C6_12 
REMARK    6  A    between atoms: C6_12  and  O6_13 
ROOT
ATOM      1  C1  GOX d          -1.172  10.643   8.285  0.00  0.00     0.159 C 
ATOM      2  N1  GOX d          -2.283  10.275   7.677  0.00  0.00    -0.120 NA
ATOM      3  C2  GOX d          -0.289  11.591   7.450  0.00  0.00     0.121 C 
ATOM      4  N5  GOX d          -0.880  10.182   9.584  0.00  0.00    -0.365 N 
ATOM      5  C3  GOX d           1.062  11.748   8.143  0.00  0.00     0.094 C 
ATOM      6  C4  GOX d           0.867  11.973   9.645  0.00  0.00     0.084 C 
ATOM      7  C5  GOX d           0.375  10.612  10.215  0.00  0.00     0.058 C 
ATOM      8  H1  GOX d          -0.779  12.574   7.395  0.00  0.00     0.099 H 
ATOM      9  H2  GOX d          -1.532   9.557  10.080  0.00  0.00     0.161 HD
ATOM     10  H5  GOX d           1.675  10.848   7.985  0.00  0.00     0.091 H 
ATOM     11  H7  GOX d           0.104  12.747   9.814  0.00  0.00     0.090 H 
ATOM     12  H9  GOX d           1.154   9.861  10.021  0.00  0.00     0.079 H 
ENDROOT
BRANCH   7  13
ATOM     13  C6  GOX d           0.101  10.675  11.732  0.00  0.00     0.038 C 
ATOM     14  H10 GOX d           1.030  10.444  12.274  0.00  0.00     0.077 H 
ATOM     15  H11 GOX d          -0.668   9.933  11.989  0.00  0.00     0.077 H 
BRANCH  13  16
ATOM     16  O6  GOX d          -0.349  11.959  12.117  0.00  0.00    -0.399 OA
ATOM     17  H12 GOX d          -0.828  12.354  11.397  0.00  0.00     0.209 HD
ENDBRANCH  13  16
ENDBRANCH   7  13
BRANCH   6  18
ATOM     18  O4  GOX d           2.083  12.385  10.257  0.00  0.00    -0.391 OA
ATOM     19  H8  GOX d           1.907  12.682  11.142  0.00  0.00     0.210 HD
ENDBRANCH   6  18
BRANCH   5  20
ATOM     20  O3  GOX d           1.694  12.882   7.551  0.00  0.00    -0.390 OA
ATOM     21  H6  GOX d           1.800  12.733   6.619  0.00  0.00     0.210 HD
ENDBRANCH   5  20
BRANCH   2  22
ATOM     22  O7  GOX d          -3.173   9.443   8.361  0.00  0.00    -0.265 OA
ATOM     23  H3  GOX d          -3.270   8.626   7.886  0.00  0.00     0.247 HD
ENDBRANCH   2  22
BRANCH   3  24
ATOM     24  O2  GOX d          -0.115  11.107   6.140  0.00  0.00    -0.385 OA
ATOM     25  H4  GOX d           0.763  11.315   5.841  0.00  0.00     0.210 HD
ENDBRANCH   3  24
TORSDOF 6
ENDMDL
MODEL 6
REMARK VINA RESULT:      -5.2      1.778      4.084
REMARK  6 active torsions:
REMARK  status: ('A' for Active; 'I' for Inactive)
REMARK    1  A    between atoms: N1_2  and  O7_5 
REMARK    2  A    between atoms: C2_3  and  O2_6 
REMARK    3  A    between atoms: C3_7  and  O3_8 
REMARK    4  A    between atoms: C4_9  and  O4_10 
REMARK    5  A    between atoms: C5_11  and  C6_12 
REMARK    6  A    between atoms: C6_12  and  O6_13 
ROOT
ATOM      1  C1  GOX d           0.525  11.211   9.138  0.00  0.00     0.159 C 
ATOM      2  N1  GOX d           1.462  11.882   8.498  0.00  0.00    -0.120 NA
ATOM      3  C2  GOX d          -0.426  10.430   8.210  0.00  0.00     0.121 C 
ATOM      4  N5  GOX d           0.458  11.238  10.545  0.00  0.00    -0.365 N 
ATOM      5  C3  GOX d          -1.598   9.901   9.033  0.00  0.00     0.094 C 
ATOM      6  C4  GOX d          -1.094   9.285  10.342  0.00  0.00     0.084 C 
ATOM      7  C5  GOX d          -0.610  10.481  11.211  0.00  0.00     0.058 C 
ATOM      8  H1  GOX d           0.120   9.578   7.779  0.00  0.00     0.099 H 
ATOM      9  H2  GOX d           1.143  11.778  11.095  0.00  0.00     0.161 HD
ATOM     10  H5  GOX d          -2.299  10.717   9.260  0.00  0.00     0.091 H 
ATOM     11  H7  GOX d          -0.253   8.606  10.139  0.00  0.00     0.090 H 
ATOM     12  H9  GOX d          -1.469  11.144  11.386  0.00  0.00     0.079 H 
ENDROOT
BRANCH   7  13
ATOM     13  C6  GOX d          -0.040  10.025  12.571  0.00  0.00     0.038 C 
ATOM     14  H10 GOX d          -0.873   9.761  13.239  0.00  0.00     0.077 H 
ATOM     15  H11 GOX d           0.537  10.851  13.012  0.00  0.00     0.077 H 
BRANCH  13  16
ATOM     16  O6  GOX d           0.804   8.901  12.420  0.00  0.00    -0.399 OA
ATOM     17  H12 GOX d           1.320   8.786  13.209  0.00  0.00     0.209 HD
ENDBRANCH  13  16
ENDBRANCH   7  13
BRANCH   6  18
ATOM     18  O4  GOX d          -2.130   8.556  10.989  0.00  0.00    -0.391 OA
ATOM     19  H8  GOX d          -2.970   8.947  10.780  0.00  0.00     0.210 HD
ENDBRANCH   6  18
BRANCH   5  20
ATOM     20  O3  GOX d          -2.241   8.909   8.235  0.00  0.00    -0.390 OA
ATOM     21  H6  GOX d          -1.940   8.983   7.337  0.00  0.00     0.210 HD
ENDBRANCH   5  20
BRANCH   2  22
ATOM     22  O7  GOX d           2.399  12.597   9.248  0.00  0.00    -0.265 OA
ATOM     23  H3  GOX d           3.114  12.869   8.684  0.00  0.00     0.247 HD
ENDBRANCH   2  22
BRANCH   3  24
ATOM     24  O2  GOX d          -0.892  11.239   7.158  0.00  0.00    -0.385 OA
ATOM     25  H4  GOX d          -1.094  10.694   6.406  0.00  0.00     0.210 HD
ENDBRANCH   3  24
TORSDOF 6
ENDMDL
MODEL 7
REMARK VINA RESULT:      -4.9      1.784      4.143
REMARK  6 active torsions:
REMARK  status: ('A' for Active; 'I' for Inactive)
REMARK    1  A    between atoms: N1_2  and  O7_5 
REMARK    2  A    between atoms: C2_3  and  O2_6 
REMARK    3  A    between atoms: C3_7  and  O3_8 
REMARK    4  A    between atoms: C4_9  and  O4_10 
REMARK    5  A    between atoms: C5_11  and  C6_12 
REMARK    6  A    between atoms: C6_12  and  O6_13 
ROOT
ATOM      1  C1  GOX d          -1.403  10.416   8.735  0.00  0.00     0.159 C 
ATOM      2  N1  GOX d          -2.396   9.776   8.150  0.00  0.00    -0.120 NA
ATOM      3  C2  GOX d          -0.795   9.662   9.933  0.00  0.00     0.121 C 
ATOM      4  N5  GOX d          -0.978  11.672   8.255  0.00  0.00    -0.365 N 
ATOM      5  C3  GOX d           0.163  10.593  10.671  0.00  0.00     0.094 C 
ATOM      6  C4  GOX d           1.057  11.336   9.673  0.00  0.00     0.084 C 
ATOM      7  C5  GOX d           0.126  12.349   8.947  0.00  0.00     0.058 C 
ATOM      8  H1  GOX d          -0.232   8.795   9.557  0.00  0.00     0.099 H 
ATOM      9  H2  GOX d          -1.432  12.104   7.437  0.00  0.00     0.161 HD
ATOM     10  H5  GOX d          -0.403  11.323  11.268  0.00  0.00     0.091 H 
ATOM     11  H7  GOX d           1.478  10.628   8.945  0.00  0.00     0.090 H 
ATOM     12  H9  GOX d          -0.286  13.034   9.702  0.00  0.00     0.079 H 
ENDROOT
BRANCH   7  13
ATOM     13  C6  GOX d           0.874  13.170   7.877  0.00  0.00     0.038 C 
ATOM     14  H10 GOX d           1.200  14.124   8.318  0.00  0.00     0.077 H 
ATOM     15  H11 GOX d           0.193  13.369   7.036  0.00  0.00     0.077 H 
BRANCH  13  16
ATOM     16  O6  GOX d           2.007  12.473   7.397  0.00  0.00    -0.399 OA
ATOM     17  H12 GOX d           2.566  12.238   8.129  0.00  0.00     0.209 HD
ENDBRANCH  13  16
ENDBRANCH   7  13
BRANCH   6  18
ATOM     18  O4  GOX d           2.123  11.997  10.344  0.00  0.00    -0.391 OA
ATOM     19  H8  GOX d           1.951  12.007  11.278  0.00  0.00     0.210 HD
ENDBRANCH   6  18
BRANCH   5  20
ATOM     20  O3  GOX d           0.955   9.770  11.525  0.00  0.00    -0.390 OA
ATOM     21  H6  GOX d           0.749   8.857  11.362  0.00  0.00     0.210 HD
ENDBRANCH   5  20
BRANCH   2  22
ATOM     22  O7  GOX d          -2.995  10.358   7.030  0.00  0.00    -0.265 OA
ATOM     23  H3  GOX d          -3.915  10.118   7.003  0.00  0.00     0.247 HD
ENDBRANCH   2  22
BRANCH   3  24
ATOM     24  O2  GOX d          -1.796   9.197  10.807  0.00  0.00    -0.385 OA
ATOM     25  H4  GOX d          -1.744   8.251  10.870  0.00  0.00     0.210 HD
ENDBRANCH   3  24
TORSDOF 6
ENDMDL
MODEL 8
REMARK VINA RESULT:      -3.9      1.627      4.886
REMARK  6 active torsions:
REMARK  status: ('A' for Active; 'I' for Inactive)
REMARK    1  A    between atoms: N1_2  and  O7_5 
REMARK    2  A    between atoms: C2_3  and  O2_6 
REMARK    3  A    between atoms: C3_7  and  O3_8 
REMARK    4  A    between atoms: C4_9  and  O4_10 
REMARK    5  A    between atoms: C5_11  and  C6_12 
REMARK    6  A    between atoms: C6_12  and  O6_13 
ROOT
ATOM      1  C1  GOX d          -0.987  10.606   8.229  0.00  0.00     0.159 C 
ATOM      2  N1  GOX d          -1.322  10.576   6.955  0.00  0.00    -0.120 NA
ATOM      3  C2  GOX d          -1.625   9.481   9.068  0.00  0.00     0.121 C 
ATOM      4  N5  GOX d          -0.113  11.598   8.717  0.00  0.00    -0.365 N 
ATOM      5  C3  GOX d          -1.368   9.758  10.547  0.00  0.00     0.094 C 
ATOM      6  C4  GOX d           0.091  10.172  10.765  0.00  0.00     0.084 C 
ATOM      7  C5  GOX d           0.223  11.594  10.148  0.00  0.00     0.058 C 
ATOM      8  H1  GOX d          -1.152   8.525   8.797  0.00  0.00     0.099 H 
ATOM      9  H2  GOX d           0.281  12.310   8.086  0.00  0.00     0.161 HD
ATOM     10  H5  GOX d          -2.031  10.560  10.902  0.00  0.00     0.091 H 
ATOM     11  H7  GOX d           0.762   9.475  10.243  0.00  0.00     0.090 H 
ATOM     12  H9  GOX d          -0.467  12.262  10.683  0.00  0.00     0.079 H 
ENDROOT
BRANCH   7  13
ATOM     13  C6  GOX d           1.656  12.153  10.261  0.00  0.00     0.038 C 
ATOM     14  H10 GOX d           2.008  12.445   9.261  0.00  0.00     0.077 H 
ATOM     15  H11 GOX d           2.314  11.372  10.668  0.00  0.00     0.077 H 
BRANCH  13  16
ATOM     16  O6  GOX d           1.698  13.281  11.112  0.00  0.00    -0.399 OA
ATOM     17  H12 GOX d           0.906  13.311  11.637  0.00  0.00     0.209 HD
ENDBRANCH  13  16
ENDBRANCH   7  13
BRANCH   6  18
ATOM     18  O4  GOX d           0.415  10.174  12.150  0.00  0.00    -0.391 OA
ATOM     19  H8  GOX d          -0.115  10.823  12.598  0.00  0.00     0.210 HD
ENDBRANCH   6  18
BRANCH   5  20
ATOM     20  O3  GOX d          -1.647   8.546  11.243  0.00  0.00    -0.390 OA
ATOM     21  H6  GOX d          -0.924   8.343  11.826  0.00  0.00     0.210 HD
ENDBRANCH   5  20
BRANCH   2  22
ATOM     22  O7  GOX d          -0.770  11.532   6.098  0.00  0.00    -0.265 OA
ATOM     23  H3  GOX d          -1.468  12.038   5.698  0.00  0.00     0.247 HD
ENDBRANCH   2  22
BRANCH   3  24
ATOM     24  O2  GOX d          -3.006   9.380   8.821  0.00  0.00    -0.385 OA
ATOM     25  H4  GOX d          -3.301   8.501   9.028  0.00  0.00     0.210 HD
ENDBRANCH   3  24
TORSDOF 6
ENDMDL
