MODEL 1
REMARK VINA RESULT:      -6.3      0.000      0.000
REMARK  6 active torsions:
REMARK  status: ('A' for Active; 'I' for Inactive)
REMARK    1  A    between atoms: N_1  and  CA_2 
REMARK    2  A    between atoms: CA_2  and  C_3 
REMARK    3  A    between atoms: CA_2  and  CB_5 
REMARK    4  A    between atoms: CB_5  and  CG_6 
REMARK    5  A    between atoms: CG_6  and  CD1_7 
REMARK    6  A    between atoms: CG_6  and  CD2_8 
ROOT
ATOM      1  CB  LEU d          26.675  31.219  20.773  0.00  0.00    -0.026 C 
ATOM      2  H5  LEU d          27.005  30.172  20.832  0.00  0.00     0.037 H 
ATOM      3  H6  LEU d          25.651  31.304  21.168  0.00  0.00     0.037 H 
ENDROOT
BRANCH   1   4
ATOM      4  CA  LEU d          26.635  31.611  19.288  0.00  0.00     0.182 C 
ATOM      5  H4  LEU d          27.602  32.044  18.992  0.00  0.00     0.101 H 
BRANCH   4   6
ATOM      6  N   LEU d          25.575  32.604  19.043  0.00  0.00    -0.065 N 
ATOM      7  H1  LEU d          25.952  33.374  18.513  0.00  0.00     0.275 HD
ATOM      8  H2  LEU d          25.222  32.942  19.924  0.00  0.00     0.275 HD
ATOM      9  H3  LEU d          24.825  32.174  18.523  0.00  0.00     0.275 HD
ENDBRANCH   4   6
BRANCH   4  10
ATOM     10  C   LEU d          26.387  30.342  18.504  0.00  0.00     0.204 C 
ATOM     11  O   LEU d          25.238  30.037  18.077  0.00  0.00    -0.646 OA
ATOM     12  OXT LEU d          27.348  29.615  18.216  0.00  0.00    -0.646 OA
ENDBRANCH   4  10
ENDBRANCH   1   4
BRANCH   1  13
ATOM     13  CG  LEU d          27.586  32.041  21.679  0.00  0.00    -0.059 C 
ATOM     14  H7  LEU d          27.961  31.374  22.470  0.00  0.00     0.038 H 
BRANCH  13  15
ATOM     15  CD1 LEU d          28.830  32.584  20.881  0.00  0.00    -0.073 C 
ATOM     16  H8  LEU d          29.382  31.740  20.444  0.00  0.00     0.028 H 
ATOM     17  H9  LEU d          29.489  33.139  21.564  0.00  0.00     0.028 H 
ATOM     18  H10 LEU d          28.487  33.253  20.078  0.00  0.00     0.028 H 
ENDBRANCH  13  15
BRANCH  13  19
ATOM     19  CD2 LEU d          26.831  33.171  22.352  0.00  0.00    -0.073 C 
ATOM     20  H11 LEU d          25.950  32.766  22.870  0.00  0.00     0.028 H 
ATOM     21  H12 LEU d          26.508  33.899  21.593  0.00  0.00     0.028 H 
ATOM     22  H13 LEU d          27.489  33.668  23.081  0.00  0.00     0.028 H 
ENDBRANCH  13  19
ENDBRANCH   1  13
TORSDOF 6
ENDMDL
MODEL 2
REMARK VINA RESULT:      -5.1      1.485      1.758
REMARK  6 active torsions:
REMARK  status: ('A' for Active; 'I' for Inactive)
REMARK    1  A    between atoms: N_1  and  CA_2 
REMARK    2  A    between atoms: CA_2  and  C_3 
REMARK    3  A    between atoms: CA_2  and  CB_5 
REMARK    4  A    between atoms: CB_5  and  CG_6 
REMARK    5  A    between atoms: CG_6  and  CD1_7 
REMARK    6  A    between atoms: CG_6  and  CD2_8 
ROOT
ATOM      1  CB  LEU d          25.990  31.506  21.075  0.00  0.00    -0.026 C 
ATOM      2  H5  LEU d          26.380  30.500  20.864  0.00  0.00     0.037 H 
ATOM      3  H6  LEU d          24.904  31.451  21.242  0.00  0.00     0.037 H 
ENDROOT
BRANCH   1   4
ATOM      4  CA  LEU d          26.225  32.368  19.824  0.00  0.00     0.182 C 
ATOM      5  H4  LEU d          26.435  33.406  20.123  0.00  0.00     0.101 H 
BRANCH   4   6
ATOM      6  N   LEU d          25.037  32.354  18.955  0.00  0.00    -0.065 N 
ATOM      7  H1  LEU d          24.391  33.066  19.258  0.00  0.00     0.275 HD
ATOM      8  H2  LEU d          24.591  31.451  19.010  0.00  0.00     0.275 HD
ATOM      9  H3  LEU d          25.314  32.534  18.003  0.00  0.00     0.275 HD
ENDBRANCH   4   6
BRANCH   4  10
ATOM     10  C   LEU d          27.429  31.793  19.114  0.00  0.00     0.204 C 
ATOM     11  O   LEU d          27.311  31.045  18.103  0.00  0.00    -0.646 OA
ATOM     12  OXT LEU d          28.564  32.116  19.492  0.00  0.00    -0.646 OA
ENDBRANCH   4  10
ENDBRANCH   1   4
BRANCH   1  13
ATOM     13  CG  LEU d          26.632  31.986  22.373  0.00  0.00    -0.059 C 
ATOM     14  H7  LEU d          25.917  31.798  23.188  0.00  0.00     0.038 H 
BRANCH  13  15
ATOM     15  CD1 LEU d          27.942  31.171  22.687  0.00  0.00    -0.073 C 
ATOM     16  H8  LEU d          27.813  30.129  22.359  0.00  0.00     0.028 H 
ATOM     17  H9  LEU d          28.136  31.192  23.770  0.00  0.00     0.028 H 
ATOM     18  H10 LEU d          28.791  31.621  22.153  0.00  0.00     0.028 H 
ENDBRANCH  13  15
BRANCH  13  19
ATOM     19  CD2 LEU d          26.909  33.476  22.340  0.00  0.00    -0.073 C 
ATOM     20  H11 LEU d          27.189  33.820  23.347  0.00  0.00     0.028 H 
ATOM     21  H12 LEU d          26.007  34.010  22.008  0.00  0.00     0.028 H 
ATOM     22  H13 LEU d          27.735  33.680  21.642  0.00  0.00     0.028 H 
ENDBRANCH  13  19
ENDBRANCH   1  13
TORSDOF 6
ENDMDL
MODEL 3
REMARK VINA RESULT:      -4.6      1.955      2.560
REMARK  6 active torsions:
REMARK  status: ('A' for Active; 'I' for Inactive)
REMARK    1  A    between atoms: N_1  and  CA_2 
REMARK    2  A    between atoms: CA_2  and  C_3 
REMARK    3  A    between atoms: CA_2  and  CB_5 
REMARK    4  A    between atoms: CB_5  and  CG_6 
REMARK    5  A    between atoms: CG_6  and  CD1_7 
REMARK    6  A    between atoms: CG_6  and  CD2_8 
ROOT
ATOM      1  CB  LEU d          27.170  33.222  21.790  0.00  0.00    -0.026 C 
ATOM      2  H5  LEU d          26.101  33.307  21.549  0.00  0.00     0.037 H 
ATOM      3  H6  LEU d          27.502  34.134  22.309  0.00  0.00     0.037 H 
ENDROOT
BRANCH   1   4
ATOM      4  CA  LEU d          27.940  33.137  20.462  0.00  0.00     0.182 C 
ATOM      5  H4  LEU d          28.910  32.645  20.627  0.00  0.00     0.101 H 
BRANCH   4   6
ATOM      6  N   LEU d          28.175  34.482  19.913  0.00  0.00    -0.065 N 
ATOM      7  H1  LEU d          27.629  35.155  20.428  0.00  0.00     0.275 HD
ATOM      8  H2  LEU d          27.905  34.501  18.942  0.00  0.00     0.275 HD
ATOM      9  H3  LEU d          29.154  34.712  19.994  0.00  0.00     0.275 HD
ENDBRANCH   4   6
BRANCH   4  10
ATOM     10  C   LEU d          27.103  32.301  19.521  0.00  0.00     0.204 C 
ATOM     11  O   LEU d          25.961  32.676  19.135  0.00  0.00    -0.646 OA
ATOM     12  OXT LEU d          27.576  31.250  19.065  0.00  0.00    -0.646 OA
ENDBRANCH   4  10
ENDBRANCH   1   4
BRANCH   1  13
ATOM     13  CG  LEU d          27.334  32.056  22.758  0.00  0.00    -0.059 C 
ATOM     14  H7  LEU d          27.177  32.442  23.776  0.00  0.00     0.038 H 
BRANCH  13  15
ATOM     15  CD1 LEU d          26.246  30.948  22.493  0.00  0.00    -0.073 C 
ATOM     16  H8  LEU d          25.438  31.044  23.233  0.00  0.00     0.028 H 
ATOM     17  H9  LEU d          26.707  29.954  22.580  0.00  0.00     0.028 H 
ATOM     18  H10 LEU d          25.834  31.074  21.481  0.00  0.00     0.028 H 
ENDBRANCH  13  15
BRANCH  13  19
ATOM     19  CD2 LEU d          28.733  31.473  22.698  0.00  0.00    -0.073 C 
ATOM     20  H11 LEU d          28.902  31.026  21.708  0.00  0.00     0.028 H 
ATOM     21  H12 LEU d          28.842  30.701  23.473  0.00  0.00     0.028 H 
ATOM     22  H13 LEU d          29.470  32.272  22.869  0.00  0.00     0.028 H 
ENDBRANCH  13  19
ENDBRANCH   1  13
TORSDOF 6
ENDMDL
MODEL 4
REMARK VINA RESULT:      -4.6      1.373      1.938
REMARK  6 active torsions:
REMARK  status: ('A' for Active; 'I' for Inactive)
REMARK    1  A    between atoms: N_1  and  CA_2 
REMARK    2  A    between atoms: CA_2  and  C_3 
REMARK    3  A    between atoms: CA_2  and  CB_5 
REMARK    4  A    between atoms: CB_5  and  CG_6 
REMARK    5  A    between atoms: CG_6  and  CD1_7 
REMARK    6  A    between atoms: CG_6  and  CD2_8 
ROOT
ATOM      1  CB  LEU d          26.772  31.255  21.122  0.00  0.00    -0.026 C 
ATOM      2  H5  LEU d          26.910  30.248  21.543  0.00  0.00     0.037 H 
ATOM      3  H6  LEU d          25.718  31.552  21.221  0.00  0.00     0.037 H 
ENDROOT
BRANCH   1   4
ATOM      4  CA  LEU d          27.094  31.178  19.621  0.00  0.00     0.182 C 
ATOM      5  H4  LEU d          27.569  30.212  19.392  0.00  0.00     0.101 H 
BRANCH   4   6
ATOM      6  N   LEU d          28.010  32.263  19.232  0.00  0.00    -0.065 N 
ATOM      7  H1  LEU d          27.973  32.393  18.233  0.00  0.00     0.275 HD
ATOM      8  H2  LEU d          28.951  32.023  19.505  0.00  0.00     0.275 HD
ATOM      9  H3  LEU d          27.734  33.117  19.693  0.00  0.00     0.275 HD
ENDBRANCH   4   6
BRANCH   4  10
ATOM     10  C   LEU d          25.779  31.282  18.882  0.00  0.00     0.204 C 
ATOM     11  O   LEU d          25.282  30.296  18.268  0.00  0.00    -0.646 OA
ATOM     12  OXT LEU d          25.141  32.342  18.935  0.00  0.00    -0.646 OA
ENDBRANCH   4  10
ENDBRANCH   1   4
BRANCH   1  13
ATOM     13  CG  LEU d          27.604  32.222  21.957  0.00  0.00    -0.059 C 
ATOM     14  H7  LEU d          28.432  32.581  21.327  0.00  0.00     0.038 H 
BRANCH  13  15
ATOM     15  CD1 LEU d          26.750  33.473  22.385  0.00  0.00    -0.073 C 
ATOM     16  H8  LEU d          27.355  34.385  22.274  0.00  0.00     0.028 H 
ATOM     17  H9  LEU d          26.441  33.363  23.435  0.00  0.00     0.028 H 
ATOM     18  H10 LEU d          25.858  33.545  21.746  0.00  0.00     0.028 H 
ENDBRANCH  13  15
BRANCH  13  19
ATOM     19  CD2 LEU d          28.212  31.534  23.165  0.00  0.00    -0.073 C 
ATOM     20  H11 LEU d          27.553  31.670  24.034  0.00  0.00     0.028 H 
ATOM     21  H12 LEU d          29.197  31.974  23.380  0.00  0.00     0.028 H 
ATOM     22  H13 LEU d          28.327  30.460  22.956  0.00  0.00     0.028 H 
ENDBRANCH  13  19
ENDBRANCH   1  13
TORSDOF 6
ENDMDL
MODEL 5
REMARK VINA RESULT:      -4.1      3.151      4.136
REMARK  6 active torsions:
REMARK  status: ('A' for Active; 'I' for Inactive)
REMARK    1  A    between atoms: N_1  and  CA_2 
REMARK    2  A    between atoms: CA_2  and  C_3 
REMARK    3  A    between atoms: CA_2  and  CB_5 
REMARK    4  A    between atoms: CB_5  and  CG_6 
REMARK    5  A    between atoms: CG_6  and  CD1_7 
REMARK    6  A    between atoms: CG_6  and  CD2_8 
ROOT
ATOM      1  CB  LEU d          27.008  31.261  20.627  0.00  0.00    -0.026 C 
ATOM      2  H5  LEU d          26.064  31.368  21.182  0.00  0.00     0.037 H 
ATOM      3  H6  LEU d          27.349  30.216  20.682  0.00  0.00     0.037 H 
ENDROOT
BRANCH   1   4
ATOM      4  CA  LEU d          28.061  32.132  21.330  0.00  0.00     0.182 C 
ATOM      5  H4  LEU d          28.967  32.194  20.709  0.00  0.00     0.101 H 
BRANCH   4   6
ATOM      6  N   LEU d          28.419  31.557  22.638  0.00  0.00    -0.065 N 
ATOM      7  H1  LEU d          27.656  30.991  22.976  0.00  0.00     0.275 HD
ATOM      8  H2  LEU d          28.603  32.300  23.293  0.00  0.00     0.275 HD
ATOM      9  H3  LEU d          29.244  30.984  22.539  0.00  0.00     0.275 HD
ENDBRANCH   4   6
BRANCH   4  10
ATOM     10  C   LEU d          27.460  33.510  21.486  0.00  0.00     0.204 C 
ATOM     11  O   LEU d          27.819  34.479  20.758  0.00  0.00    -0.646 OA
ATOM     12  OXT LEU d          26.545  33.680  22.303  0.00  0.00    -0.646 OA
ENDBRANCH   4  10
ENDBRANCH   1   4
BRANCH   1  13
ATOM     13  CG  LEU d          26.719  31.575  19.163  0.00  0.00    -0.059 C 
ATOM     14  H7  LEU d          27.506  32.256  18.806  0.00  0.00     0.038 H 
BRANCH  13  15
ATOM     15  CD1 LEU d          26.782  30.269  18.285  0.00  0.00    -0.073 C 
ATOM     16  H8  LEU d          26.373  30.480  17.286  0.00  0.00     0.028 H 
ATOM     17  H9  LEU d          26.189  29.477  18.765  0.00  0.00     0.028 H 
ATOM     18  H10 LEU d          27.827  29.940  18.192  0.00  0.00     0.028 H 
ENDBRANCH  13  15
BRANCH  13  19
ATOM     19  CD2 LEU d          25.388  32.283  18.997  0.00  0.00    -0.073 C 
ATOM     20  H11 LEU d          25.545  33.243  18.483  0.00  0.00     0.028 H 
ATOM     21  H12 LEU d          24.943  32.465  19.986  0.00  0.00     0.028 H 
ATOM     22  H13 LEU d          24.711  31.654  18.399  0.00  0.00     0.028 H 
ENDBRANCH  13  19
ENDBRANCH   1  13
TORSDOF 6
ENDMDL
MODEL 6
REMARK VINA RESULT:      -3.9      3.129      4.253
REMARK  6 active torsions:
REMARK  status: ('A' for Active; 'I' for Inactive)
REMARK    1  A    between atoms: N_1  and  CA_2 
REMARK    2  A    between atoms: CA_2  and  C_3 
REMARK    3  A    between atoms: CA_2  and  CB_5 
REMARK    4  A    between atoms: CB_5  and  CG_6 
REMARK    5  A    between atoms: CG_6  and  CD1_7 
REMARK    6  A    between atoms: CG_6  and  CD2_8 
ROOT
ATOM      1  CB  LEU d          27.701  31.963  20.093  0.00  0.00    -0.026 C 
ATOM      2  H5  LEU d          28.140  31.406  20.934  0.00  0.00     0.037 H 
ATOM      3  H6  LEU d          28.462  32.106  19.311  0.00  0.00     0.037 H 
ENDROOT
BRANCH   1   4
ATOM      4  CA  LEU d          27.303  33.353  20.614  0.00  0.00     0.182 C 
ATOM      5  H4  LEU d          26.334  33.647  20.184  0.00  0.00     0.101 H 
BRANCH   4   6
ATOM      6  N   LEU d          28.315  34.355  20.240  0.00  0.00    -0.065 N 
ATOM      7  H1  LEU d          29.112  34.272  20.852  0.00  0.00     0.275 HD
ATOM      8  H2  LEU d          27.921  35.279  20.326  0.00  0.00     0.275 HD
ATOM      9  H3  LEU d          28.605  34.200  19.287  0.00  0.00     0.275 HD
ENDBRANCH   4   6
BRANCH   4  10
ATOM     10  C   LEU d          27.175  33.240  22.117  0.00  0.00     0.204 C 
ATOM     11  O   LEU d          27.685  32.279  22.757  0.00  0.00    -0.646 OA
ATOM     12  OXT LEU d          26.611  34.148  22.743  0.00  0.00    -0.646 OA
ENDBRANCH   4  10
ENDBRANCH   1   4
BRANCH   1  13
ATOM     13  CG  LEU d          26.589  31.103  19.502  0.00  0.00    -0.059 C 
ATOM     14  H7  LEU d          26.282  30.379  20.271  0.00  0.00     0.038 H 
BRANCH  13  15
ATOM     15  CD1 LEU d          25.332  31.981  19.141  0.00  0.00    -0.073 C 
ATOM     16  H8  LEU d          24.965  32.485  20.046  0.00  0.00     0.028 H 
ATOM     17  H9  LEU d          24.540  31.335  18.733  0.00  0.00     0.028 H 
ATOM     18  H10 LEU d          25.614  32.734  18.390  0.00  0.00     0.028 H 
ENDBRANCH  13  15
BRANCH  13  19
ATOM     19  CD2 LEU d          27.072  30.317  18.298  0.00  0.00    -0.073 C 
ATOM     20  H11 LEU d          28.171  30.310  18.282  0.00  0.00     0.028 H 
ATOM     21  H12 LEU d          26.695  30.788  17.378  0.00  0.00     0.028 H 
ATOM     22  H13 LEU d          26.700  29.284  18.362  0.00  0.00     0.028 H 
ENDBRANCH  13  19
ENDBRANCH   1  13
TORSDOF 6
ENDMDL
MODEL 7
REMARK VINA RESULT:      -3.5      1.712      2.209
REMARK  6 active torsions:
REMARK  status: ('A' for Active; 'I' for Inactive)
REMARK    1  A    between atoms: N_1  and  CA_2 
REMARK    2  A    between atoms: CA_2  and  C_3 
REMARK    3  A    between atoms: CA_2  and  CB_5 
REMARK    4  A    between atoms: CB_5  and  CG_6 
REMARK    5  A    between atoms: CG_6  and  CD1_7 
REMARK    6  A    between atoms: CG_6  and  CD2_8 
ROOT
ATOM      1  CB  LEU d          25.906  31.384  20.997  0.00  0.00    -0.026 C 
ATOM      2  H5  LEU d          25.991  30.287  21.018  0.00  0.00     0.037 H 
ATOM      3  H6  LEU d          25.012  31.693  21.557  0.00  0.00     0.037 H 
ENDROOT
BRANCH   1   4
ATOM      4  CA  LEU d          25.707  31.806  19.533  0.00  0.00     0.182 C 
ATOM      5  H4  LEU d          25.040  32.679  19.486  0.00  0.00     0.101 H 
BRANCH   4   6
ATOM      6  N   LEU d          25.109  30.708  18.754  0.00  0.00    -0.065 N 
ATOM      7  H1  LEU d          25.782  30.365  18.086  0.00  0.00     0.275 HD
ATOM      8  H2  LEU d          24.294  31.046  18.268  0.00  0.00     0.275 HD
ATOM      9  H3  LEU d          24.843  29.960  19.377  0.00  0.00     0.275 HD
ENDBRANCH   4   6
BRANCH   4  10
ATOM     10  C   LEU d          27.069  32.180  18.993  0.00  0.00     0.204 C 
ATOM     11  O   LEU d          27.647  33.251  19.331  0.00  0.00    -0.646 OA
ATOM     12  OXT LEU d          27.662  31.386  18.250  0.00  0.00    -0.646 OA
ENDBRANCH   4  10
ENDBRANCH   1   4
BRANCH   1  13
ATOM     13  CG  LEU d          27.123  31.953  21.719  0.00  0.00    -0.059 C 
ATOM     14  H7  LEU d          27.884  32.185  20.960  0.00  0.00     0.038 H 
BRANCH  13  15
ATOM     15  CD1 LEU d          26.759  33.295  22.460  0.00  0.00    -0.073 C 
ATOM     16  H8  LEU d          26.460  34.052  21.721  0.00  0.00     0.028 H 
ATOM     17  H9  LEU d          27.636  33.653  23.019  0.00  0.00     0.028 H 
ATOM     18  H10 LEU d          25.928  33.115  23.158  0.00  0.00     0.028 H 
ENDBRANCH  13  15
BRANCH  13  19
ATOM     19  CD2 LEU d          27.724  30.944  22.679  0.00  0.00    -0.073 C 
ATOM     20  H11 LEU d          27.326  29.943  22.456  0.00  0.00     0.028 H 
ATOM     21  H12 LEU d          27.464  31.220  23.711  0.00  0.00     0.028 H 
ATOM     22  H13 LEU d          28.818  30.937  22.565  0.00  0.00     0.028 H 
ENDBRANCH  13  19
ENDBRANCH   1  13
TORSDOF 6
ENDMDL
