MODEL 1
REMARK VINA RESULT:      -6.4      0.000      0.000
REMARK  4 active torsions:
REMARK  status: ('A' for Active; 'I' for Inactive)
REMARK    1  A    between atoms: C15_2  and  C16_23 
REMARK    2  A    between atoms: C04_13  and  C02_11 
REMARK    3  A    between atoms: N08_17  and  C07_16 
REMARK    4  A    between atoms: C09_18  and  N08_17 
ROOT
ATOM      1  C13 ZZL d           4.800 -10.577  -6.284  0.00  0.00     0.043 C 
ATOM      2  C15 ZZL d           2.670 -11.019  -5.203  0.00  0.00     0.079 C 
ATOM      3  C24 ZZL d           3.138 -11.707  -3.945  0.00  0.00     0.007 A 
ATOM      4  C26 ZZL d           2.852 -13.378  -2.253  0.00  0.00     0.035 A 
ATOM      5  C28 ZZL d           4.008 -12.913  -1.596  0.00  0.00    -0.061 A 
ATOM      6  C09 ZZL d           6.658  -8.569  -3.075  0.00  0.00     0.727 A 
ATOM      7  N10 ZZL d           6.913  -8.197  -4.385  0.00  0.00    -0.074 NA
ATOM      8  C11 ZZL d           6.294  -8.856  -5.392  0.00  0.00     0.031 A 
ATOM      9  C12 ZZL d           5.431  -9.856  -5.086  0.00  0.00     0.010 A 
ATOM     10  N14 ZZL d           3.365 -10.578  -6.162  0.00  0.00    -0.283 NA
ATOM     11  C25 ZZL d           2.411 -12.766  -3.431  0.00  0.00    -0.049 A 
ATOM     12 CL1  ZZL d           1.937 -14.784  -1.649  0.00  0.00    -0.084 Cl
ATOM     13  C29 ZZL d           4.735 -11.838  -2.117  0.00  0.00    -0.068 A 
ATOM     14  C30 ZZL d           4.287 -11.235  -3.296  0.00  0.00     0.007 A 
ATOM     15  C31 ZZL d           5.166 -10.223  -3.754  0.00  0.00     0.096 A 
ATOM     16  N32 ZZL d           5.776  -9.604  -2.760  0.00  0.00    -0.061 NA
ATOM     17  H1  ZZL d           5.163 -11.615  -6.315  0.00  0.00     0.074 H 
ATOM     18  H2  ZZL d           5.087 -10.060  -7.212  0.00  0.00     0.074 H 
ATOM     19  H5  ZZL d           4.337 -13.392  -0.681  0.00  0.00     0.086 H 
ATOM     20  H9  ZZL d           6.486  -8.590  -6.426  0.00  0.00     0.116 H 
ATOM     21  H11 ZZL d           1.516 -13.115  -3.932  0.00  0.00     0.087 H 
ATOM     22  H12 ZZL d           5.628 -11.480  -1.617  0.00  0.00     0.085 H 
ENDROOT
BRANCH   6  23
ATOM     23  N08 ZZL d           7.359  -7.910  -2.009  0.00  0.00    -0.188 N 
ATOM     24  H8  ZZL d           8.031  -8.535  -1.540  0.00  0.00     0.184 HD
BRANCH  23  25
ATOM     25  C07 ZZL d           7.353  -6.588  -1.434  0.00  0.00     0.049 A 
ATOM     26  C06 ZZL d           8.546  -5.853  -1.448  0.00  0.00    -0.056 A 
ATOM     27  C05 ZZL d           8.543  -4.530  -1.001  0.00  0.00    -0.064 A 
ATOM     28  H7  ZZL d           9.464  -6.308  -1.802  0.00  0.00     0.087 H 
ATOM     29  C04 ZZL d           7.345  -3.971  -0.547  0.00  0.00     0.041 A 
ATOM     30  H6  ZZL d           9.456  -3.946  -1.006  0.00  0.00     0.085 H 
ATOM     31  C34 ZZL d           6.159  -4.706  -0.540  0.00  0.00    -0.064 A 
ATOM     32  C33 ZZL d           6.158  -6.027  -0.991  0.00  0.00    -0.056 A 
ATOM     33  H14 ZZL d           5.240  -4.252  -0.185  0.00  0.00     0.085 H 
ATOM     34  H13 ZZL d           5.242  -6.606  -0.996  0.00  0.00     0.087 H 
BRANCH  29  35
ATOM     35  C02 ZZL d           7.339  -2.538  -0.057  0.00  0.00     0.209 C 
ATOM     36  O01 ZZL d           7.930  -1.720  -0.672  0.00  0.00    -0.644 OA
ATOM     37  O03 ZZL d           6.641  -2.204   1.106  0.00  0.00    -0.644 OA
ENDBRANCH  29  35
ENDBRANCH  23  25
ENDBRANCH   6  23
BRANCH   2  38
ATOM     38  C16 ZZL d           1.154 -10.876  -5.182  0.00  0.00     0.070 A 
ATOM     39  C17 ZZL d           0.549  -9.900  -4.387  0.00  0.00     0.132 A 
ATOM     40  F18 ZZL d           1.319  -9.015  -3.696  0.00  0.00    -0.205 F 
ATOM     41  C19 ZZL d          -0.845  -9.803  -4.328  0.00  0.00    -0.045 A 
ATOM     42  C20 ZZL d          -1.646 -10.678  -5.069  0.00  0.00    -0.077 A 
ATOM     43  H10 ZZL d          -1.307  -9.046  -3.705  0.00  0.00     0.088 H 
ATOM     44  C21 ZZL d          -1.045 -11.655  -5.870  0.00  0.00    -0.045 A 
ATOM     45  H3  ZZL d          -2.726 -10.600  -5.023  0.00  0.00     0.083 H 
ATOM     46  C22 ZZL d           0.352 -11.754  -5.922  0.00  0.00     0.132 A 
ATOM     47  H4  ZZL d          -1.659 -12.334  -6.450  0.00  0.00     0.088 H 
ATOM     48  F23 ZZL d           0.935 -12.688  -6.727  0.00  0.00    -0.205 F 
ENDBRANCH   2  38
TORSDOF 4
ENDMDL
