MODEL 1
REMARK VINA RESULT:      -7.9      0.000      0.000
REMARK  7 active torsions:
REMARK  status: ('A' for Active; 'I' for Inactive)
REMARK    1  A    between atoms: P_1  and  O5'_5 
REMARK    2  A    between atoms: O5'_5  and  C5'_6 
REMARK    3  A    between atoms: C5'_6  and  C4'_7 
REMARK    4  A    between atoms: C3'_9  and  O3'_10 
REMARK    5  A    between atoms: C2'_11  and  O2'_12 
REMARK    6  A    between atoms: C1'_13  and  N1_14 
REMARK    7  A    between atoms: C6_21  and  O1_22 
ROOT
ATOM      1  C4' BMP d          38.864  38.672  36.646  0.00  0.00     0.089 C 
ATOM      2  O4' BMP d          39.771  38.914  37.728  0.00  0.00    -0.353 OA
ATOM      3  C3' BMP d          38.227  40.006  36.316  0.00  0.00     0.091 C 
ATOM      4  C2' BMP d          39.331  40.988  36.714  0.00  0.00     0.105 C 
ATOM      5  C1' BMP d          40.026  40.275  37.876  0.00  0.00     0.143 C 
ATOM      6  H3  BMP d          38.057  38.011  36.994  0.00  0.00     0.090 H 
ATOM      7  H4  BMP d          37.994  40.076  35.244  0.00  0.00     0.091 H 
ATOM      8  H6  BMP d          40.037  41.103  35.879  0.00  0.00     0.093 H 
ATOM      9  H8  BMP d          39.499  40.609  38.781  0.00  0.00     0.123 H 
ENDROOT
BRANCH   5  10
ATOM     10  N1  BMP d          41.449  40.532  38.159  0.00  0.00    -0.249 N 
ATOM     11  C6  BMP d          42.435  40.100  37.251  0.00  0.00     0.153 A 
ATOM     12  C5  BMP d          43.732  40.320  37.493  0.00  0.00     0.032 A 
ATOM     13  C4  BMP d          44.168  41.004  38.681  0.00  0.00     0.253 A 
ATOM     14  H10 BMP d          44.474  39.975  36.774  0.00  0.00     0.098 H 
ATOM     15  N3  BMP d          43.136  41.410  39.526  0.00  0.00    -0.275 N 
ATOM     16  O4  BMP d          45.310  41.263  39.010  0.00  0.00    -0.268 OA
ATOM     17  C2  BMP d          41.797  41.218  39.335  0.00  0.00     0.333 A 
ATOM     18  H9  BMP d          43.405  41.894  40.359  0.00  0.00     0.173 HD
ATOM     19  O2  BMP d          40.934  41.605  40.102  0.00  0.00    -0.246 OA
BRANCH  11  20
ATOM     20  O1  BMP d          42.034  39.515  36.215  0.00  0.00    -0.346 OA
ATOM     21  H11 BMP d          42.565  38.742  36.064  0.00  0.00     0.219 HD
ENDBRANCH  11  20
ENDBRANCH   5  10
BRANCH   4  22
ATOM     22  O2' BMP d          38.843  42.301  37.050  0.00  0.00    -0.388 OA
ATOM     23  H7  BMP d          38.372  42.662  36.308  0.00  0.00     0.210 HD
ENDBRANCH   4  22
BRANCH   1  24
ATOM     24  C5' BMP d          39.602  37.913  35.566  0.00  0.00     0.059 C 
ATOM     25  H1  BMP d          38.884  37.422  34.893  0.00  0.00     0.079 H 
ATOM     26  H2  BMP d          40.233  38.602  34.986  0.00  0.00     0.079 H 
BRANCH  24  27
ATOM     27  O5' BMP d          40.413  36.935  36.208  0.00  0.00    -0.280 OA
BRANCH  27  28
ATOM     28  P   BMP d          39.908  35.441  36.465  0.00  0.00     0.422 P 
ATOM     29  O3P BMP d          41.230  34.507  36.462  0.00  0.00    -0.617 OA
ATOM     30  O2P BMP d          39.385  35.433  37.848  0.00  0.00    -0.617 OA
ATOM     31  O1P BMP d          38.825  35.005  35.517  0.00  0.00    -0.617 OA
ENDBRANCH  27  28
ENDBRANCH  24  27
ENDBRANCH   1  24
BRANCH   3  32
ATOM     32  O3' BMP d          37.033  40.251  37.080  0.00  0.00    -0.390 OA
ATOM     33  H5  BMP d          36.281  40.250  36.499  0.00  0.00     0.210 HD
ENDBRANCH   3  32
TORSDOF 7
ENDMDL
MODEL 2
REMARK VINA RESULT:      -6.6      1.187      2.189
REMARK  7 active torsions:
REMARK  status: ('A' for Active; 'I' for Inactive)
REMARK    1  A    between atoms: P_1  and  O5'_5 
REMARK    2  A    between atoms: O5'_5  and  C5'_6 
REMARK    3  A    between atoms: C5'_6  and  C4'_7 
REMARK    4  A    between atoms: C3'_9  and  O3'_10 
REMARK    5  A    between atoms: C2'_11  and  O2'_12 
REMARK    6  A    between atoms: C1'_13  and  N1_14 
REMARK    7  A    between atoms: C6_21  and  O1_22 
ROOT
ATOM      1  C4' BMP d          38.973  38.409  37.534  0.00  0.00     0.089 C 
ATOM      2  O4' BMP d          39.640  39.398  38.328  0.00  0.00    -0.353 OA
ATOM      3  C3' BMP d          38.981  38.927  36.111  0.00  0.00     0.091 C 
ATOM      4  C2' BMP d          40.258  39.770  36.091  0.00  0.00     0.105 C 
ATOM      5  C1' BMP d          40.355  40.286  37.528  0.00  0.00     0.143 C 
ATOM      6  H3  BMP d          37.919  38.350  37.845  0.00  0.00     0.090 H 
ATOM      7  H4  BMP d          39.035  38.098  35.391  0.00  0.00     0.091 H 
ATOM      8  H6  BMP d          41.121  39.122  35.875  0.00  0.00     0.093 H 
ATOM      9  H8  BMP d          39.808  41.241  37.533  0.00  0.00     0.123 H 
ENDROOT
BRANCH   5  10
ATOM     10  N1  BMP d          41.668  40.607  38.114  0.00  0.00    -0.249 N 
ATOM     11  C6  BMP d          41.745  41.142  39.414  0.00  0.00     0.153 A 
ATOM     12  C5  BMP d          42.928  41.443  39.962  0.00  0.00     0.032 A 
ATOM     13  C4  BMP d          44.159  41.233  39.250  0.00  0.00     0.253 A 
ATOM     14  H10 BMP d          42.958  41.857  40.969  0.00  0.00     0.098 H 
ATOM     15  N3  BMP d          44.004  40.691  37.974  0.00  0.00    -0.275 N 
ATOM     16  O4  BMP d          45.288  41.465  39.638  0.00  0.00    -0.268 OA
ATOM     17  C2  BMP d          42.829  40.361  37.361  0.00  0.00     0.333 A 
ATOM     18  H9  BMP d          44.843  40.527  37.454  0.00  0.00     0.173 HD
ATOM     19  O2  BMP d          42.751  39.879  36.246  0.00  0.00    -0.246 OA
BRANCH  11  20
ATOM     20  O1  BMP d          40.660  41.308  40.023  0.00  0.00    -0.346 OA
ATOM     21  H11 BMP d          40.687  42.131  40.497  0.00  0.00     0.219 HD
ENDBRANCH  11  20
ENDBRANCH   5  10
BRANCH   4  22
ATOM     22  O2' BMP d          40.245  40.815  35.100  0.00  0.00    -0.388 OA
ATOM     23  H7  BMP d          40.799  40.565  34.370  0.00  0.00     0.210 HD
ENDBRANCH   4  22
BRANCH   1  24
ATOM     24  C5' BMP d          39.585  37.060  37.839  0.00  0.00     0.059 C 
ATOM     25  H1  BMP d          40.187  37.120  38.758  0.00  0.00     0.079 H 
ATOM     26  H2  BMP d          38.793  36.309  37.969  0.00  0.00     0.079 H 
BRANCH  24  27
ATOM     27  O5' BMP d          40.413  36.708  36.736  0.00  0.00    -0.280 OA
BRANCH  27  28
ATOM     28  P   BMP d          40.157  35.397  35.859  0.00  0.00     0.422 P 
ATOM     29  O3P BMP d          40.090  35.886  34.318  0.00  0.00    -0.617 OA
ATOM     30  O2P BMP d          41.386  34.585  35.995  0.00  0.00    -0.617 OA
ATOM     31  O1P BMP d          38.972  34.593  36.319  0.00  0.00    -0.617 OA
ENDBRANCH  27  28
ENDBRANCH  24  27
ENDBRANCH   1  24
BRANCH   3  32
ATOM     32  O3' BMP d          37.833  39.742  35.813  0.00  0.00    -0.390 OA
ATOM     33  H5  BMP d          37.690  39.754  34.874  0.00  0.00     0.210 HD
ENDBRANCH   3  32
TORSDOF 7
ENDMDL
MODEL 3
REMARK VINA RESULT:      -5.6      2.713      6.084
REMARK  7 active torsions:
REMARK  status: ('A' for Active; 'I' for Inactive)
REMARK    1  A    between atoms: P_1  and  O5'_5 
REMARK    2  A    between atoms: O5'_5  and  C5'_6 
REMARK    3  A    between atoms: C5'_6  and  C4'_7 
REMARK    4  A    between atoms: C3'_9  and  O3'_10 
REMARK    5  A    between atoms: C2'_11  and  O2'_12 
REMARK    6  A    between atoms: C1'_13  and  N1_14 
REMARK    7  A    between atoms: C6_21  and  O1_22 
ROOT
ATOM      1  C4' BMP d          40.488  40.662  37.589  0.00  0.00     0.089 C 
ATOM      2  O4' BMP d          39.942  39.342  37.694  0.00  0.00    -0.353 OA
ATOM      3  C3' BMP d          41.972  40.492  37.335  0.00  0.00     0.091 C 
ATOM      4  C2' BMP d          42.013  39.153  36.596  0.00  0.00     0.105 C 
ATOM      5  C1' BMP d          40.830  38.390  37.198  0.00  0.00     0.143 C 
ATOM      6  H3  BMP d          40.388  41.171  38.560  0.00  0.00     0.090 H 
ATOM      7  H4  BMP d          42.360  41.309  36.708  0.00  0.00     0.091 H 
ATOM      8  H6  BMP d          41.834  39.320  35.524  0.00  0.00     0.093 H 
ATOM      9  H8  BMP d          41.241  37.847  38.062  0.00  0.00     0.123 H 
ENDROOT
BRANCH   5  10
ATOM     10  N1  BMP d          40.134  37.359  36.409  0.00  0.00    -0.249 N 
ATOM     11  C6  BMP d          39.295  37.738  35.343  0.00  0.00     0.153 A 
ATOM     12  C5  BMP d          38.651  36.816  34.618  0.00  0.00     0.032 A 
ATOM     13  C4  BMP d          38.790  35.412  34.896  0.00  0.00     0.253 A 
ATOM     14  H10 BMP d          38.008  37.137  33.800  0.00  0.00     0.098 H 
ATOM     15  N3  BMP d          39.643  35.114  35.957  0.00  0.00    -0.275 N 
ATOM     16  O4  BMP d          38.261  34.485  34.312  0.00  0.00    -0.268 OA
ATOM     17  C2  BMP d          40.329  36.005  36.733  0.00  0.00     0.333 A 
ATOM     18  H9  BMP d          39.766  34.145  36.174  0.00  0.00     0.173 HD
ATOM     19  O2  BMP d          41.073  35.689  37.644  0.00  0.00    -0.246 OA
BRANCH  11  20
ATOM     20  O1  BMP d          39.196  38.967  35.110  0.00  0.00    -0.346 OA
ATOM     21  H11 BMP d          38.392  39.134  34.632  0.00  0.00     0.219 HD
ENDBRANCH  11  20
ENDBRANCH   5  10
BRANCH   4  22
ATOM     22  O2' BMP d          43.270  38.462  36.721  0.00  0.00    -0.388 OA
ATOM     23  H7  BMP d          43.181  37.755  37.348  0.00  0.00     0.210 HD
ENDBRANCH   4  22
BRANCH   1  24
ATOM     24  C5' BMP d          39.650  41.448  36.606  0.00  0.00     0.059 C 
ATOM     25  H1  BMP d          40.272  42.204  36.102  0.00  0.00     0.079 H 
ATOM     26  H2  BMP d          39.218  40.771  35.855  0.00  0.00     0.079 H 
BRANCH  24  27
ATOM     27  O5' BMP d          38.612  42.085  37.342  0.00  0.00    -0.280 OA
BRANCH  27  28
ATOM     28  P   BMP d          37.095  42.102  36.841  0.00  0.00     0.422 P 
ATOM     29  O3P BMP d          37.016  41.077  35.592  0.00  0.00    -0.617 OA
ATOM     30  O2P BMP d          36.310  41.496  37.939  0.00  0.00    -0.617 OA
ATOM     31  O1P BMP d          36.575  43.484  36.557  0.00  0.00    -0.617 OA
ENDBRANCH  27  28
ENDBRANCH  24  27
ENDBRANCH   1  24
BRANCH   3  32
ATOM     32  O3' BMP d          42.736  40.422  38.552  0.00  0.00    -0.390 OA
ATOM     33  H5  BMP d          42.148  40.460  39.297  0.00  0.00     0.210 HD
ENDBRANCH   3  32
TORSDOF 7
ENDMDL
MODEL 4
REMARK VINA RESULT:      -5.3      2.810      5.893
REMARK  7 active torsions:
REMARK  status: ('A' for Active; 'I' for Inactive)
REMARK    1  A    between atoms: P_1  and  O5'_5 
REMARK    2  A    between atoms: O5'_5  and  C5'_6 
REMARK    3  A    between atoms: C5'_6  and  C4'_7 
REMARK    4  A    between atoms: C3'_9  and  O3'_10 
REMARK    5  A    between atoms: C2'_11  and  O2'_12 
REMARK    6  A    between atoms: C1'_13  and  N1_14 
REMARK    7  A    between atoms: C6_21  and  O1_22 
ROOT
ATOM      1  C4' BMP d          40.676  40.898  37.340  0.00  0.00     0.089 C 
ATOM      2  O4' BMP d          40.580  40.079  36.168  0.00  0.00    -0.353 OA
ATOM      3  C3' BMP d          39.270  41.374  37.644  0.00  0.00     0.091 C 
ATOM      4  C2' BMP d          38.423  40.225  37.092  0.00  0.00     0.105 C 
ATOM      5  C1' BMP d          39.260  39.713  35.918  0.00  0.00     0.143 C 
ATOM      6  H3  BMP d          41.270  41.794  37.105  0.00  0.00     0.090 H 
ATOM      7  H4  BMP d          39.122  41.498  38.727  0.00  0.00     0.091 H 
ATOM      8  H6  BMP d          38.336  39.436  37.852  0.00  0.00     0.093 H 
ATOM      9  H8  BMP d          38.923  40.289  35.044  0.00  0.00     0.123 H 
ENDROOT
BRANCH   5  10
ATOM     10  N1  BMP d          39.160  38.305  35.495  0.00  0.00    -0.249 N 
ATOM     11  C6  BMP d          40.036  37.344  36.036  0.00  0.00     0.153 A 
ATOM     12  C5  BMP d          39.963  36.063  35.661  0.00  0.00     0.032 A 
ATOM     13  C4  BMP d          38.993  35.617  34.698  0.00  0.00     0.253 A 
ATOM     14  H10 BMP d          40.653  35.341  36.095  0.00  0.00     0.098 H 
ATOM     15  N3  BMP d          38.154  36.621  34.214  0.00  0.00    -0.275 N 
ATOM     16  O4  BMP d          38.828  34.487  34.279  0.00  0.00    -0.268 OA
ATOM     17  C2  BMP d          38.176  37.943  34.557  0.00  0.00     0.333 A 
ATOM     18  H9  BMP d          37.464  36.344  33.546  0.00  0.00     0.173 HD
ATOM     19  O2  BMP d          37.411  38.779  34.112  0.00  0.00    -0.246 OA
BRANCH  11  20
ATOM     20  O1  BMP d          40.868  37.751  36.883  0.00  0.00    -0.346 OA
ATOM     21  H11 BMP d          40.493  37.679  37.754  0.00  0.00     0.219 HD
ENDBRANCH  11  20
ENDBRANCH   5  10
BRANCH   4  22
ATOM     22  O2' BMP d          37.088  40.618  36.722  0.00  0.00    -0.388 OA
ATOM     23  H7  BMP d          36.544  40.657  37.500  0.00  0.00     0.210 HD
ENDBRANCH   4  22
BRANCH   1  24
ATOM     24  C5' BMP d          41.448  40.136  38.394  0.00  0.00     0.059 C 
ATOM     25  H1  BMP d          41.425  40.685  39.347  0.00  0.00     0.079 H 
ATOM     26  H2  BMP d          41.006  39.140  38.535  0.00  0.00     0.079 H 
BRANCH  24  27
ATOM     27  O5' BMP d          42.789  40.014  37.935  0.00  0.00    -0.280 OA
BRANCH  27  28
ATOM     28  P   BMP d          43.896  41.131  38.220  0.00  0.00     0.422 P 
ATOM     29  O3P BMP d          45.308  40.508  37.734  0.00  0.00    -0.617 OA
ATOM     30  O2P BMP d          43.581  42.242  37.297  0.00  0.00    -0.617 OA
ATOM     31  O1P BMP d          43.883  41.636  39.636  0.00  0.00    -0.617 OA
ENDBRANCH  27  28
ENDBRANCH  24  27
ENDBRANCH   1  24
BRANCH   3  32
ATOM     32  O3' BMP d          38.947  42.607  36.976  0.00  0.00    -0.390 OA
ATOM     33  H5  BMP d          39.119  42.516  36.046  0.00  0.00     0.210 HD
ENDBRANCH   3  32
TORSDOF 7
ENDMDL
