MODEL 1
REMARK VINA RESULT:     -11.8      0.000      0.000
REMARK  6 active torsions:
REMARK  status: ('A' for Active; 'I' for Inactive)
REMARK       I    between atoms: C22_2  and  N24_3 
REMARK    1  A    between atoms: C22_2  and  C19_16 
REMARK    2  A    between atoms: N24_3  and  C26_4 
REMARK    3  A    between atoms: C29_6  and  N31_10 
REMARK    4  A    between atoms: C18_19  and  C21_20 
REMARK    5  A    between atoms: C15_21  and  C12_23 
REMARK    6  A    between atoms: C2_30  and  C5_32 
ROOT
ATOM      1  C19 MOL d          39.578  30.700  33.764  0.00  0.00     0.033 A 
ATOM      2  C23 MOL d          38.472  30.891  32.924  0.00  0.00    -0.067 A 
ATOM      3  C20 MOL d          38.609  31.652  31.761  0.00  0.00    -0.075 A 
ATOM      4  C18 MOL d          39.835  32.225  31.422  0.00  0.00    -0.051 A 
ATOM      5  C15 MOL d          40.926  32.033  32.272  0.00  0.00    -0.019 A 
ATOM      6  C17 MOL d          40.809  31.288  33.428  0.00  0.00    -0.057 A 
ATOM      7  H14 MOL d          37.515  30.449  33.176  0.00  0.00     0.085 H 
ATOM      8  H15 MOL d          37.751  31.799  31.114  0.00  0.00     0.084 H 
ATOM      9  H19 MOL d          41.667  31.156  34.077  0.00  0.00     0.086 H 
ENDROOT
BRANCH   5  10
ATOM     10  C12 MOL d          42.226  32.629  31.921  0.00  0.00    -0.023 A 
ATOM     11  C9  MOL d          43.126  31.883  31.162  0.00  0.00    -0.071 A 
ATOM     12  C4  MOL d          44.352  32.447  30.802  0.00  0.00    -0.067 A 
ATOM     13  H20 MOL d          42.877  30.874  30.853  0.00  0.00     0.084 H 
ATOM     14  C1  MOL d          44.642  33.766  31.224  0.00  0.00     0.027 A 
ATOM     15  H21 MOL d          45.067  31.885  30.211  0.00  0.00     0.085 H 
ATOM     16  C3  MOL d          43.735  34.470  31.966  0.00  0.00     0.114 A 
ATOM     17  C2  MOL d          45.767  34.569  31.019  0.00  0.00     0.079 A 
ATOM     18  O8  MOL d          44.276  35.696  32.225  0.00  0.00    -0.212 OA
ATOM     19  C7  MOL d          42.529  33.931  32.319  0.00  0.00    -0.037 A 
ATOM     20  N6  MOL d          45.475  35.746  31.659  0.00  0.00    -0.131 NA
ATOM     21  H22 MOL d          41.818  34.507  32.899  0.00  0.00     0.089 H 
BRANCH  17  22
ATOM     22  C5  MOL d          47.037  34.218  30.274  0.00  0.00    -0.006 C 
ATOM     23  C10 MOL d          47.151  34.983  28.933  0.00  0.00    -0.034 C 
ATOM     24  C13 MOL d          48.569  34.842  28.382  0.00  0.00     0.082 C 
ATOM     25  H24 MOL d          46.927  36.047  29.098  0.00  0.00     0.036 H 
ATOM     26  H25 MOL d          46.434  34.565  28.211  0.00  0.00     0.036 H 
ATOM     27  N16 MOL d          48.958  33.439  28.165  0.00  0.00    -0.075 N 
ATOM     28  H26 MOL d          49.271  35.294  29.098  0.00  0.00     0.075 H 
ATOM     29  H27 MOL d          48.629  35.376  27.423  0.00  0.00     0.075 H 
ATOM     30  C14 MOL d          48.535  32.463  29.197  0.00  0.00     0.082 C 
ATOM     31  H28 MOL d          49.963  33.406  28.108  0.00  0.00     0.277 HD
ATOM     32  H29 MOL d          48.562  33.145  27.286  0.00  0.00     0.277 HD
ATOM     33  C11 MOL d          47.180  32.729  29.910  0.00  0.00    -0.034 C 
ATOM     34  H30 MOL d          49.318  32.439  29.970  0.00  0.00     0.075 H 
ATOM     35  H31 MOL d          48.468  31.478  28.713  0.00  0.00     0.075 H 
ATOM     36  H32 MOL d          46.357  32.440  29.239  0.00  0.00     0.036 H 
ATOM     37  H33 MOL d          47.131  32.127  30.829  0.00  0.00     0.036 H 
ATOM     38  H23 MOL d          47.882  34.501  30.920  0.00  0.00     0.050 H 
ENDBRANCH  17  22
ENDBRANCH   5  10
BRANCH   4  39
ATOM     39  C21 MOL d          39.956  33.047  30.142  0.00  0.00    -0.050 C 
ATOM     40  H16 MOL d          40.492  32.462  29.380  0.00  0.00     0.033 H 
ATOM     41  H17 MOL d          40.511  33.972  30.352  0.00  0.00     0.033 H 
ATOM     42  H18 MOL d          38.951  33.298  29.771  0.00  0.00     0.033 H 
ENDBRANCH   4  39
BRANCH   1  43
ATOM     43  C22 MOL d          39.527  29.940  35.037  0.00  0.00     0.256 C 
ATOM     44  O25 MOL d          39.411  30.571  36.084  0.00  0.00    -0.267 OA
ATOM     45  N24 MOL d          39.521  28.576  34.999  0.00  0.00    -0.323 N 
ATOM     46  H1  MOL d          39.587  28.141  34.101  0.00  0.00     0.169 HD
BRANCH  45  47
ATOM     47  C26 MOL d          39.431  27.735  36.114  0.00  0.00     0.037 A 
ATOM     48  C27 MOL d          39.627  28.149  37.465  0.00  0.00    -0.032 A 
ATOM     49  C29 MOL d          39.541  27.255  38.564  0.00  0.00     0.032 A 
ATOM     50  H2  MOL d          39.851  29.191  37.661  0.00  0.00     0.090 H 
ATOM     51  C32 MOL d          39.246  25.907  38.249  0.00  0.00    -0.057 A 
ATOM     52  C30 MOL d          39.042  25.488  36.928  0.00  0.00    -0.079 A 
ATOM     53  H3  MOL d          39.175  25.181  39.050  0.00  0.00     0.086 H 
ATOM     54  C28 MOL d          39.137  26.396  35.865  0.00  0.00    -0.057 A 
ATOM     55  H4  MOL d          38.808  24.449  36.726  0.00  0.00     0.083 H 
ATOM     56  H5  MOL d          38.981  26.057  34.848  0.00  0.00     0.086 H 
BRANCH  49  57
ATOM     57  N31 MOL d          39.800  27.667  39.889  0.00  0.00    -0.377 N 
ATOM     58  C33 MOL d          39.918  29.122  40.173  0.00  0.00     0.015 C 
ATOM     59  C35 MOL d          39.704  29.504  41.652  0.00  0.00     0.034 C 
ATOM     60  H6  MOL d          39.167  29.652  39.568  0.00  0.00     0.067 H 
ATOM     61  H7  MOL d          40.926  29.449  39.876  0.00  0.00     0.067 H 
ATOM     62  O37 MOL d          40.471  28.620  42.433  0.00  0.00    -0.388 OA
ATOM     63  H8  MOL d          38.640  29.410  41.914  0.00  0.00     0.076 H 
ATOM     64  H9  MOL d          40.033  30.539  41.823  0.00  0.00     0.076 H 
ATOM     65  C36 MOL d          39.963  27.299  42.410  0.00  0.00     0.034 C 
ATOM     66  C34 MOL d          40.078  26.692  40.993  0.00  0.00     0.015 C 
ATOM     67  H10 MOL d          38.905  27.314  42.710  0.00  0.00     0.076 H 
ATOM     68  H11 MOL d          40.535  26.679  43.115  0.00  0.00     0.076 H 
ATOM     69  H12 MOL d          41.100  26.306  40.863  0.00  0.00     0.067 H 
ATOM     70  H13 MOL d          39.360  25.863  40.911  0.00  0.00     0.067 H 
ENDBRANCH  49  57
ENDBRANCH  45  47
ENDBRANCH   1  43
TORSDOF 6
ENDMDL
MODEL 2
REMARK VINA RESULT:     -10.8      2.515      3.153
REMARK  6 active torsions:
REMARK  status: ('A' for Active; 'I' for Inactive)
REMARK       I    between atoms: C22_2  and  N24_3 
REMARK    1  A    between atoms: C22_2  and  C19_16 
REMARK    2  A    between atoms: N24_3  and  C26_4 
REMARK    3  A    between atoms: C29_6  and  N31_10 
REMARK    4  A    between atoms: C18_19  and  C21_20 
REMARK    5  A    between atoms: C15_21  and  C12_23 
REMARK    6  A    between atoms: C2_30  and  C5_32 
ROOT
ATOM      1  C19 MOL d          39.896  30.499  33.561  0.00  0.00     0.033 A 
ATOM      2  C23 MOL d          38.986  31.333  32.898  0.00  0.00    -0.067 A 
ATOM      3  C20 MOL d          39.350  31.939  31.693  0.00  0.00    -0.075 A 
ATOM      4  C18 MOL d          40.611  31.722  31.137  0.00  0.00    -0.051 A 
ATOM      5  C15 MOL d          41.512  30.894  31.812  0.00  0.00    -0.019 A 
ATOM      6  C17 MOL d          41.170  30.291  33.007  0.00  0.00    -0.057 A 
ATOM      7  H14 MOL d          38.002  31.508  33.319  0.00  0.00     0.085 H 
ATOM      8  H15 MOL d          38.644  32.585  31.183  0.00  0.00     0.084 H 
ATOM      9  H19 MOL d          41.886  29.658  33.517  0.00  0.00     0.086 H 
ENDROOT
BRANCH   5  10
ATOM     10  C12 MOL d          42.843  30.654  31.232  0.00  0.00    -0.023 A 
ATOM     11  C9  MOL d          43.320  29.347  31.155  0.00  0.00    -0.071 A 
ATOM     12  C4  MOL d          44.571  29.105  30.584  0.00  0.00    -0.067 A 
ATOM     13  H20 MOL d          42.724  28.525  31.536  0.00  0.00     0.084 H 
ATOM     14  C1  MOL d          45.319  30.203  30.099  0.00  0.00     0.027 A 
ATOM     15  H21 MOL d          44.961  28.096  30.514  0.00  0.00     0.085 H 
ATOM     16  C3  MOL d          44.821  31.473  30.189  0.00  0.00     0.114 A 
ATOM     17  C2  MOL d          46.578  30.261  29.494  0.00  0.00     0.079 A 
ATOM     18  O8  MOL d          45.746  32.319  29.649  0.00  0.00    -0.212 OA
ATOM     19  C7  MOL d          43.595  31.721  30.740  0.00  0.00    -0.037 A 
ATOM     20  N6  MOL d          46.779  31.593  29.239  0.00  0.00    -0.131 NA
ATOM     21  H22 MOL d          43.211  32.734  30.793  0.00  0.00     0.089 H 
BRANCH  17  22
ATOM     22  C5  MOL d          47.522  29.116  29.200  0.00  0.00    -0.006 C 
ATOM     23  C10 MOL d          46.898  28.088  28.225  0.00  0.00    -0.034 C 
ATOM     24  C13 MOL d          47.983  27.139  27.719  0.00  0.00     0.082 C 
ATOM     25  H24 MOL d          46.448  28.617  27.373  0.00  0.00     0.036 H 
ATOM     26  H25 MOL d          46.122  27.510  28.749  0.00  0.00     0.036 H 
ATOM     27  N16 MOL d          48.658  26.414  28.807  0.00  0.00    -0.075 N 
ATOM     28  H26 MOL d          48.734  27.725  27.169  0.00  0.00     0.075 H 
ATOM     29  H27 MOL d          47.521  26.405  27.042  0.00  0.00     0.075 H 
ATOM     30  C14 MOL d          48.958  27.186  30.036  0.00  0.00     0.082 C 
ATOM     31  H28 MOL d          49.531  26.065  28.446  0.00  0.00     0.277 HD
ATOM     32  H29 MOL d          48.070  25.640  29.069  0.00  0.00     0.277 HD
ATOM     33  C11 MOL d          47.951  28.302  30.434  0.00  0.00    -0.034 C 
ATOM     34  H30 MOL d          49.941  27.660  29.898  0.00  0.00     0.075 H 
ATOM     35  H31 MOL d          49.009  26.473  30.872  0.00  0.00     0.075 H 
ATOM     36  H32 MOL d          47.063  27.840  30.890  0.00  0.00     0.036 H 
ATOM     37  H33 MOL d          48.428  28.975  31.162  0.00  0.00     0.036 H 
ATOM     38  H23 MOL d          48.422  29.547  28.737  0.00  0.00     0.050 H 
ENDBRANCH  17  22
ENDBRANCH   5  10
BRANCH   4  39
ATOM     39  C21 MOL d          40.979  32.391  29.817  0.00  0.00    -0.050 C 
ATOM     40  H16 MOL d          41.915  32.957  29.940  0.00  0.00     0.033 H 
ATOM     41  H17 MOL d          40.174  33.077  29.516  0.00  0.00     0.033 H 
ATOM     42  H18 MOL d          41.116  31.622  29.041  0.00  0.00     0.033 H 
ENDBRANCH   4  39
BRANCH   1  43
ATOM     43  C22 MOL d          39.618  29.841  34.860  0.00  0.00     0.256 C 
ATOM     44  O25 MOL d          39.164  30.526  35.772  0.00  0.00    -0.267 OA
ATOM     45  N24 MOL d          39.792  28.492  34.974  0.00  0.00    -0.323 N 
ATOM     46  H1  MOL d          40.136  28.004  34.172  0.00  0.00     0.169 HD
BRANCH  45  47
ATOM     47  C26 MOL d          39.526  27.735  36.121  0.00  0.00     0.037 A 
ATOM     48  C27 MOL d          39.787  28.162  37.458  0.00  0.00    -0.032 A 
ATOM     49  C29 MOL d          39.516  27.352  38.591  0.00  0.00     0.032 A 
ATOM     50  H2  MOL d          40.211  29.148  37.614  0.00  0.00     0.090 H 
ATOM     51  C32 MOL d          38.963  26.076  38.326  0.00  0.00    -0.057 A 
ATOM     52  C30 MOL d          38.693  25.647  37.021  0.00  0.00    -0.079 A 
ATOM     53  H3  MOL d          38.743  25.414  39.156  0.00  0.00     0.086 H 
ATOM     54  C28 MOL d          38.976  26.471  35.923  0.00  0.00    -0.057 A 
ATOM     55  H4  MOL d          38.261  24.666  36.858  0.00  0.00     0.083 H 
ATOM     56  H5  MOL d          38.766  26.125  34.918  0.00  0.00     0.086 H 
BRANCH  49  57
ATOM     57  N31 MOL d          39.838  27.763  39.902  0.00  0.00    -0.377 N 
ATOM     58  C33 MOL d          40.173  29.193  40.139  0.00  0.00     0.015 C 
ATOM     59  C35 MOL d          40.024  29.650  41.604  0.00  0.00     0.034 C 
ATOM     60  H6  MOL d          39.507  29.809  39.517  0.00  0.00     0.067 H 
ATOM     61  H7  MOL d          41.217  29.356  39.832  0.00  0.00     0.067 H 
ATOM     62  O37 MOL d          40.653  28.687  42.415  0.00  0.00    -0.388 OA
ATOM     63  H8  MOL d          38.959  29.724  41.868  0.00  0.00     0.076 H 
ATOM     64  H9  MOL d          40.505  30.629  41.742  0.00  0.00     0.076 H 
ATOM     65  C36 MOL d          39.954  27.456  42.433  0.00  0.00     0.034 C 
ATOM     66  C34 MOL d          39.972  26.793  41.037  0.00  0.00     0.015 C 
ATOM     67  H10 MOL d          38.911  27.639  42.732  0.00  0.00     0.076 H 
ATOM     68  H11 MOL d          40.430  26.781  43.160  0.00  0.00     0.076 H 
ATOM     69  H12 MOL d          40.925  26.255  40.921  0.00  0.00     0.067 H 
ATOM     70  H13 MOL d          39.138  26.079  40.982  0.00  0.00     0.067 H 
ENDBRANCH  49  57
ENDBRANCH  45  47
ENDBRANCH   1  43
TORSDOF 6
ENDMDL
MODEL 3
REMARK VINA RESULT:     -10.1      3.499     11.037
REMARK  6 active torsions:
REMARK  status: ('A' for Active; 'I' for Inactive)
REMARK       I    between atoms: C22_2  and  N24_3 
REMARK    1  A    between atoms: C22_2  and  C19_16 
REMARK    2  A    between atoms: N24_3  and  C26_4 
REMARK    3  A    between atoms: C29_6  and  N31_10 
REMARK    4  A    between atoms: C18_19  and  C21_20 
REMARK    5  A    between atoms: C15_21  and  C12_23 
REMARK    6  A    between atoms: C2_30  and  C5_32 
ROOT
ATOM      1  C19 MOL d          41.790  31.768  31.409  0.00  0.00     0.033 A 
ATOM      2  C23 MOL d          40.681  32.352  30.783  0.00  0.00    -0.067 A 
ATOM      3  C20 MOL d          39.418  32.249  31.371  0.00  0.00    -0.075 A 
ATOM      4  C18 MOL d          39.246  31.573  32.579  0.00  0.00    -0.051 A 
ATOM      5  C15 MOL d          40.359  30.989  33.189  0.00  0.00    -0.019 A 
ATOM      6  C17 MOL d          41.614  31.076  32.620  0.00  0.00    -0.057 A 
ATOM      7  H14 MOL d          40.803  32.882  29.845  0.00  0.00     0.085 H 
ATOM      8  H15 MOL d          38.562  32.701  30.883  0.00  0.00     0.084 H 
ATOM      9  H19 MOL d          42.463  30.611  33.106  0.00  0.00     0.086 H 
ENDROOT
BRANCH   5  10
ATOM     10  C12 MOL d          40.189  30.277  34.467  0.00  0.00    -0.023 A 
ATOM     11  C9  MOL d          40.613  30.894  35.643  0.00  0.00    -0.071 A 
ATOM     12  C4  MOL d          40.435  30.238  36.864  0.00  0.00    -0.067 A 
ATOM     13  H20 MOL d          41.077  31.873  35.611  0.00  0.00     0.084 H 
ATOM     14  C1  MOL d          39.826  28.962  36.865  0.00  0.00     0.027 A 
ATOM     15  H21 MOL d          40.757  30.699  37.790  0.00  0.00     0.085 H 
ATOM     16  C3  MOL d          39.420  28.387  35.693  0.00  0.00     0.114 A 
ATOM     17  C2  MOL d          39.528  28.088  37.915  0.00  0.00     0.079 A 
ATOM     18  O8  MOL d          38.875  27.173  35.996  0.00  0.00    -0.212 OA
ATOM     19  C7  MOL d          39.584  29.021  34.493  0.00  0.00    -0.037 A 
ATOM     20  N6  MOL d          38.941  27.006  37.310  0.00  0.00    -0.131 NA
ATOM     21  H22 MOL d          39.247  28.555  33.575  0.00  0.00     0.089 H 
BRANCH  17  22
ATOM     22  C5  MOL d          39.806  28.278  39.390  0.00  0.00    -0.006 C 
ATOM     23  C10 MOL d          39.534  26.988  40.201  0.00  0.00    -0.034 C 
ATOM     24  C13 MOL d          40.122  27.130  41.604  0.00  0.00     0.082 C 
ATOM     25  H24 MOL d          40.000  26.131  39.694  0.00  0.00     0.036 H 
ATOM     26  H25 MOL d          38.448  26.823  40.274  0.00  0.00     0.036 H 
ATOM     27  N16 MOL d          39.569  28.280  42.338  0.00  0.00    -0.075 N 
ATOM     28  H26 MOL d          41.211  27.259  41.517  0.00  0.00     0.075 H 
ATOM     29  H27 MOL d          39.905  26.214  42.171  0.00  0.00     0.075 H 
ATOM     30  C14 MOL d          39.361  29.526  41.564  0.00  0.00     0.082 C 
ATOM     31  H28 MOL d          40.201  28.492  43.093  0.00  0.00     0.277 HD
ATOM     32  H29 MOL d          38.677  28.001  42.714  0.00  0.00     0.277 HD
ATOM     33  C11 MOL d          38.965  29.374  40.069  0.00  0.00    -0.034 C 
ATOM     34  H30 MOL d          40.299  30.100  41.602  0.00  0.00     0.075 H 
ATOM     35  H31 MOL d          38.562  30.096  42.063  0.00  0.00     0.075 H 
ATOM     36  H32 MOL d          37.900  29.105  40.004  0.00  0.00     0.036 H 
ATOM     37  H33 MOL d          39.133  30.330  39.552  0.00  0.00     0.036 H 
ATOM     38  H23 MOL d          40.870  28.544  39.489  0.00  0.00     0.050 H 
ENDBRANCH  17  22
ENDBRANCH   5  10
BRANCH   4  39
ATOM     39  C21 MOL d          37.856  31.482  33.202  0.00  0.00    -0.050 C 
ATOM     40  H16 MOL d          37.940  31.103  34.232  0.00  0.00     0.033 H 
ATOM     41  H17 MOL d          37.234  30.797  32.609  0.00  0.00     0.033 H 
ATOM     42  H18 MOL d          37.394  32.480  33.215  0.00  0.00     0.033 H 
ENDBRANCH   4  39
BRANCH   1  43
ATOM     43  C22 MOL d          43.162  31.791  30.848  0.00  0.00     0.256 C 
ATOM     44  O25 MOL d          43.754  32.866  30.808  0.00  0.00    -0.267 OA
ATOM     45  N24 MOL d          43.752  30.616  30.479  0.00  0.00    -0.323 N 
ATOM     46  H1  MOL d          43.209  29.781  30.575  0.00  0.00     0.169 HD
BRANCH  45  47
ATOM     47  C26 MOL d          45.052  30.484  29.979  0.00  0.00     0.037 A 
ATOM     48  C27 MOL d          45.672  29.244  29.639  0.00  0.00    -0.032 A 
ATOM     49  C29 MOL d          47.001  29.158  29.151  0.00  0.00     0.032 A 
ATOM     50  H2  MOL d          45.103  28.329  29.760  0.00  0.00     0.090 H 
ATOM     51  C32 MOL d          47.695  30.383  29.013  0.00  0.00    -0.057 A 
ATOM     52  C30 MOL d          47.097  31.608  29.334  0.00  0.00    -0.079 A 
ATOM     53  H3  MOL d          48.717  30.373  28.650  0.00  0.00     0.086 H 
ATOM     54  C28 MOL d          45.782  31.658  29.818  0.00  0.00    -0.057 A 
ATOM     55  H4  MOL d          47.657  32.528  29.207  0.00  0.00     0.083 H 
ATOM     56  H5  MOL d          45.333  32.613  30.066  0.00  0.00     0.086 H 
BRANCH  49  57
ATOM     57  N31 MOL d          47.622  27.919  28.878  0.00  0.00    -0.377 N 
ATOM     58  C33 MOL d          47.505  26.828  29.881  0.00  0.00     0.015 C 
ATOM     59  C35 MOL d          47.760  25.414  29.320  0.00  0.00     0.034 C 
ATOM     60  H6  MOL d          46.488  26.853  30.299  0.00  0.00     0.067 H 
ATOM     61  H7  MOL d          48.235  27.017  30.681  0.00  0.00     0.067 H 
ATOM     62  O37 MOL d          48.935  25.471  28.547  0.00  0.00    -0.388 OA
ATOM     63  H8  MOL d          46.913  25.101  28.692  0.00  0.00     0.076 H 
ATOM     64  H9  MOL d          47.887  24.700  30.146  0.00  0.00     0.076 H 
ATOM     65  C36 MOL d          48.764  26.217  27.357  0.00  0.00     0.034 C 
ATOM     66  C34 MOL d          48.492  27.705  27.677  0.00  0.00     0.015 C 
ATOM     67  H10 MOL d          47.912  25.808  26.795  0.00  0.00     0.076 H 
ATOM     68  H11 MOL d          49.676  26.140  26.748  0.00  0.00     0.076 H 
ATOM     69  H12 MOL d          49.457  28.203  27.855  0.00  0.00     0.067 H 
ATOM     70  H13 MOL d          47.999  28.162  26.807  0.00  0.00     0.067 H 
ENDBRANCH  49  57
ENDBRANCH  45  47
ENDBRANCH   1  43
TORSDOF 6
ENDMDL
