MODEL 1
REMARK VINA RESULT:      -6.5      0.000      0.000
REMARK  6 active torsions:
REMARK  status: ('A' for Active; 'I' for Inactive)
REMARK    1  A    between atoms: P_2  and  O5'_5 
REMARK    2  A    between atoms: O5'_5  and  C5'_6 
REMARK    3  A    between atoms: C5'_6  and  C4'_7 
REMARK    4  A    between atoms: C3'_9  and  O3'_10 
REMARK    5  A    between atoms: C2'_11  and  O2'_12 
REMARK    6  A    between atoms: C1'_13  and  N1_14 
ROOT
ATOM      1  C4' MOL d          40.598  41.089  36.555  0.00  0.00     0.089 C 
ATOM      2  O4' MOL d          39.863  39.901  36.888  0.00  0.00    -0.353 OA
ATOM      3  C3' MOL d          42.058  40.689  36.608  0.00  0.00     0.091 C 
ATOM      4  C2' MOL d          41.999  39.189  36.293  0.00  0.00     0.105 C 
ATOM      5  C1' MOL d          40.654  38.769  36.839  0.00  0.00     0.141 C 
ATOM      6  H3  MOL d          40.440  41.846  37.338  0.00  0.00     0.090 H 
ATOM      7  H4  MOL d          42.650  41.237  35.861  0.00  0.00     0.091 H 
ATOM      8  H6  MOL d          42.036  39.041  35.203  0.00  0.00     0.093 H 
ATOM      9  H8  MOL d          40.837  38.453  37.876  0.00  0.00     0.123 H 
ENDROOT
BRANCH   5  10
ATOM     10  N1  MOL d          39.955  37.636  36.216  0.00  0.00    -0.280 N 
ATOM     11  C2  MOL d          40.252  36.335  36.614  0.00  0.00     0.331 A 
ATOM     12  O2  MOL d          41.076  36.129  37.469  0.00  0.00    -0.246 OA
ATOM     13  N3  MOL d          39.547  35.335  35.963  0.00  0.00    -0.275 N 
ATOM     14  C4  MOL d          38.584  35.503  34.965  0.00  0.00     0.250 A 
ATOM     15  H9  MOL d          39.749  34.395  36.236  0.00  0.00     0.173 HD
ATOM     16  O4  MOL d          38.069  34.509  34.498  0.00  0.00    -0.268 OA
ATOM     17  C5  MOL d          38.339  36.872  34.615  0.00  0.00    -0.002 A 
ATOM     18  C6  MOL d          38.999  37.863  35.222  0.00  0.00    -0.008 A 
ATOM     19  H10 MOL d          37.606  37.107  33.845  0.00  0.00     0.094 H 
ATOM     20  H11 MOL d          38.782  38.889  34.930  0.00  0.00     0.112 H 
ENDBRANCH   5  10
BRANCH   4  21
ATOM     21  O2' MOL d          43.047  38.398  36.893  0.00  0.00    -0.388 OA
ATOM     22  H7  MOL d          43.584  38.953  37.446  0.00  0.00     0.210 HD
ENDBRANCH   4  21
BRANCH   1  23
ATOM     23  C5' MOL d          40.040  41.669  35.278  0.00  0.00     0.059 C 
ATOM     24  H1  MOL d          40.837  42.175  34.714  0.00  0.00     0.079 H 
ATOM     25  H2  MOL d          39.604  40.870  34.660  0.00  0.00     0.079 H 
BRANCH  23  26
ATOM     26  O5' MOL d          39.022  42.616  35.651  0.00  0.00    -0.280 OA
BRANCH  26  27
ATOM     27  P   MOL d          37.473  42.230  35.725  0.00  0.00     0.422 P 
ATOM     28  O3P MOL d          37.067  42.169  37.275  0.00  0.00    -0.617 OA
ATOM     29  O1P MOL d          37.177  40.935  34.980  0.00  0.00    -0.617 OA
ATOM     30  O2P MOL d          36.767  43.366  35.093  0.00  0.00    -0.617 OA
ENDBRANCH  26  27
ENDBRANCH  23  26
ENDBRANCH   1  23
BRANCH   3  31
ATOM     31  O3' MOL d          42.609  40.890  37.904  0.00  0.00    -0.390 OA
ATOM     32  H5  MOL d          42.364  40.164  38.467  0.00  0.00     0.210 HD
ENDBRANCH   3  31
TORSDOF 6
ENDMDL
MODEL 2
REMARK VINA RESULT:      -6.2      2.714      5.863
REMARK  6 active torsions:
REMARK  status: ('A' for Active; 'I' for Inactive)
REMARK    1  A    between atoms: P_2  and  O5'_5 
REMARK    2  A    between atoms: O5'_5  and  C5'_6 
REMARK    3  A    between atoms: C5'_6  and  C4'_7 
REMARK    4  A    between atoms: C3'_9  and  O3'_10 
REMARK    5  A    between atoms: C2'_11  and  O2'_12 
REMARK    6  A    between atoms: C1'_13  and  N1_14 
ROOT
ATOM      1  C4' MOL d          38.351  39.042  35.385  0.00  0.00     0.089 C 
ATOM      2  O4' MOL d          39.236  39.304  36.486  0.00  0.00    -0.353 OA
ATOM      3  C3' MOL d          38.003  40.401  34.815  0.00  0.00     0.091 C 
ATOM      4  C2' MOL d          39.230  41.240  35.192  0.00  0.00     0.105 C 
ATOM      5  C1' MOL d          39.711  40.601  36.474  0.00  0.00     0.141 C 
ATOM      6  H3  MOL d          37.418  38.601  35.766  0.00  0.00     0.090 H 
ATOM      7  H4  MOL d          37.863  40.354  33.725  0.00  0.00     0.091 H 
ATOM      8  H6  MOL d          39.994  41.147  34.405  0.00  0.00     0.093 H 
ATOM      9  H8  MOL d          39.203  41.142  37.287  0.00  0.00     0.123 H 
ENDROOT
BRANCH   5  10
ATOM     10  N1  MOL d          41.139  40.668  36.812  0.00  0.00    -0.280 N 
ATOM     11  C2  MOL d          41.563  40.353  38.101  0.00  0.00     0.331 A 
ATOM     12  O2  MOL d          40.767  40.022  38.943  0.00  0.00    -0.246 OA
ATOM     13  N3  MOL d          42.927  40.454  38.323  0.00  0.00    -0.275 N 
ATOM     14  C4  MOL d          43.901  40.833  37.395  0.00  0.00     0.250 A 
ATOM     15  H9  MOL d          43.248  40.233  39.244  0.00  0.00     0.173 HD
ATOM     16  O4  MOL d          45.055  40.873  37.767  0.00  0.00    -0.268 OA
ATOM     17  C5  MOL d          43.380  41.139  36.095  0.00  0.00    -0.002 A 
ATOM     18  C6  MOL d          42.071  41.052  35.843  0.00  0.00    -0.008 A 
ATOM     19  H10 MOL d          44.061  41.447  35.303  0.00  0.00     0.094 H 
ATOM     20  H11 MOL d          41.715  41.291  34.842  0.00  0.00     0.112 H 
ENDBRANCH   5  10
BRANCH   4  21
ATOM     21  O2' MOL d          38.968  42.644  35.404  0.00  0.00    -0.388 OA
ATOM     22  H7  MOL d          38.579  43.015  34.620  0.00  0.00     0.210 HD
ENDBRANCH   4  21
BRANCH   1  23
ATOM     23  C5' MOL d          38.981  38.006  34.486  0.00  0.00     0.059 C 
ATOM     24  H1  MOL d          38.218  37.564  33.829  0.00  0.00     0.079 H 
ATOM     25  H2  MOL d          39.770  38.468  33.873  0.00  0.00     0.079 H 
BRANCH  23  26
ATOM     26  O5' MOL d          39.547  36.993  35.337  0.00  0.00    -0.280 OA
BRANCH  26  27
ATOM     27  P   MOL d          39.056  35.473  35.310  0.00  0.00     0.422 P 
ATOM     28  O3P MOL d          40.272  34.586  34.756  0.00  0.00    -0.617 OA
ATOM     29  O1P MOL d          37.779  35.306  34.498  0.00  0.00    -0.617 OA
ATOM     30  O2P MOL d          38.821  35.123  36.728  0.00  0.00    -0.617 OA
ENDBRANCH  26  27
ENDBRANCH  23  26
ENDBRANCH   1  23
BRANCH   3  31
ATOM     31  O3' MOL d          36.839  40.944  35.429  0.00  0.00    -0.390 OA
ATOM     32  H5  MOL d          36.209  41.179  34.757  0.00  0.00     0.210 HD
ENDBRANCH   3  31
TORSDOF 6
ENDMDL
MODEL 3
REMARK VINA RESULT:      -6.1      2.166      4.235
REMARK  6 active torsions:
REMARK  status: ('A' for Active; 'I' for Inactive)
REMARK    1  A    between atoms: P_2  and  O5'_5 
REMARK    2  A    between atoms: O5'_5  and  C5'_6 
REMARK    3  A    between atoms: C5'_6  and  C4'_7 
REMARK    4  A    between atoms: C3'_9  and  O3'_10 
REMARK    5  A    between atoms: C2'_11  and  O2'_12 
REMARK    6  A    between atoms: C1'_13  and  N1_14 
ROOT
ATOM      1  C4' MOL d          40.925  41.014  34.632  0.00  0.00     0.089 C 
ATOM      2  O4' MOL d          40.163  39.797  34.583  0.00  0.00    -0.353 OA
ATOM      3  C3' MOL d          40.288  41.845  35.725  0.00  0.00     0.091 C 
ATOM      4  C2' MOL d          39.681  40.775  36.640  0.00  0.00     0.105 C 
ATOM      5  C1' MOL d          39.350  39.648  35.690  0.00  0.00     0.141 C 
ATOM      6  H3  MOL d          40.793  41.563  33.687  0.00  0.00     0.090 H 
ATOM      7  H4  MOL d          41.037  42.453  36.253  0.00  0.00     0.091 H 
ATOM      8  H6  MOL d          40.432  40.451  37.375  0.00  0.00     0.093 H 
ATOM      9  H8  MOL d          38.315  39.826  35.361  0.00  0.00     0.123 H 
ENDROOT
BRANCH   5  10
ATOM     10  N1  MOL d          39.354  38.267  36.193  0.00  0.00    -0.280 N 
ATOM     11  C2  MOL d          38.666  37.274  35.499  0.00  0.00     0.331 A 
ATOM     12  O2  MOL d          38.070  37.537  34.485  0.00  0.00    -0.246 OA
ATOM     13  N3  MOL d          38.721  36.008  36.058  0.00  0.00    -0.275 N 
ATOM     14  C4  MOL d          39.389  35.636  37.228  0.00  0.00     0.250 A 
ATOM     15  H9  MOL d          38.231  35.283  35.573  0.00  0.00     0.173 HD
ATOM     16  O4  MOL d          39.325  34.475  37.575  0.00  0.00    -0.268 OA
ATOM     17  C5  MOL d          40.070  36.717  37.879  0.00  0.00    -0.002 A 
ATOM     18  C6  MOL d          40.040  37.952  37.369  0.00  0.00    -0.008 A 
ATOM     19  H10 MOL d          40.619  36.528  38.800  0.00  0.00     0.094 H 
ATOM     20  H11 MOL d          40.572  38.745  37.892  0.00  0.00     0.112 H 
ENDBRANCH   5  10
BRANCH   4  21
ATOM     21  O2' MOL d          38.495  41.184  37.356  0.00  0.00    -0.388 OA
ATOM     22  H7  MOL d          38.249  40.506  37.974  0.00  0.00     0.210 HD
ENDBRANCH   4  21
BRANCH   1  23
ATOM     23  C5' MOL d          42.391  40.670  34.728  0.00  0.00     0.059 C 
ATOM     24  H1  MOL d          42.514  39.592  34.908  0.00  0.00     0.079 H 
ATOM     25  H2  MOL d          42.906  40.947  33.796  0.00  0.00     0.079 H 
BRANCH  23  26
ATOM     26  O5' MOL d          42.932  41.420  35.831  0.00  0.00    -0.280 OA
BRANCH  26  27
ATOM     27  P   MOL d          43.579  40.719  37.113  0.00  0.00     0.422 P 
ATOM     28  O3P MOL d          43.219  39.158  37.039  0.00  0.00    -0.617 OA
ATOM     29  O1P MOL d          43.120  41.376  38.409  0.00  0.00    -0.617 OA
ATOM     30  O2P MOL d          45.039  40.879  36.939  0.00  0.00    -0.617 OA
ENDBRANCH  26  27
ENDBRANCH  23  26
ENDBRANCH   1  23
BRANCH   3  31
ATOM     31  O3' MOL d          39.259  42.684  35.213  0.00  0.00    -0.390 OA
ATOM     32  H5  MOL d          38.412  42.328  35.454  0.00  0.00     0.210 HD
ENDBRANCH   3  31
TORSDOF 6
ENDMDL
MODEL 4
REMARK VINA RESULT:      -5.8      1.920      4.675
REMARK  6 active torsions:
REMARK  status: ('A' for Active; 'I' for Inactive)
REMARK    1  A    between atoms: P_2  and  O5'_5 
REMARK    2  A    between atoms: O5'_5  and  C5'_6 
REMARK    3  A    between atoms: C5'_6  and  C4'_7 
REMARK    4  A    between atoms: C3'_9  and  O3'_10 
REMARK    5  A    between atoms: C2'_11  and  O2'_12 
REMARK    6  A    between atoms: C1'_13  and  N1_14 
ROOT
ATOM      1  C4' MOL d          39.247  38.337  34.708  0.00  0.00     0.089 C 
ATOM      2  O4' MOL d          40.471  38.991  35.080  0.00  0.00    -0.353 OA
ATOM      3  C3' MOL d          39.261  37.011  35.439  0.00  0.00     0.091 C 
ATOM      4  C2' MOL d          40.130  37.319  36.663  0.00  0.00     0.105 C 
ATOM      5  C1' MOL d          41.078  38.384  36.162  0.00  0.00     0.141 C 
ATOM      6  H3  MOL d          39.267  38.115  33.631  0.00  0.00     0.090 H 
ATOM      7  H4  MOL d          38.246  36.703  35.728  0.00  0.00     0.091 H 
ATOM      8  H6  MOL d          39.498  37.715  37.472  0.00  0.00     0.093 H 
ATOM      9  H8  MOL d          41.960  37.846  35.783  0.00  0.00     0.123 H 
ENDROOT
BRANCH   5  10
ATOM     10  N1  MOL d          41.615  39.365  37.115  0.00  0.00    -0.280 N 
ATOM     11  C2  MOL d          42.869  39.930  36.896  0.00  0.00     0.331 A 
ATOM     12  O2  MOL d          43.518  39.623  35.928  0.00  0.00    -0.246 OA
ATOM     13  N3  MOL d          43.291  40.837  37.854  0.00  0.00    -0.275 N 
ATOM     14  C4  MOL d          42.593  41.235  38.997  0.00  0.00     0.250 A 
ATOM     15  H9  MOL d          44.191  41.252  37.713  0.00  0.00     0.173 HD
ATOM     16  O4  MOL d          43.120  42.040  39.735  0.00  0.00    -0.268 OA
ATOM     17  C5  MOL d          41.312  40.606  39.146  0.00  0.00    -0.002 A 
ATOM     18  C6  MOL d          40.871  39.727  38.242  0.00  0.00    -0.008 A 
ATOM     19  H10 MOL d          40.692  40.850  40.007  0.00  0.00     0.094 H 
ATOM     20  H11 MOL d          39.893  39.274  38.390  0.00  0.00     0.112 H 
ENDBRANCH   5  10
BRANCH   4  21
ATOM     21  O2' MOL d          40.876  36.195  37.181  0.00  0.00    -0.388 OA
ATOM     22  H7  MOL d          41.279  36.438  38.007  0.00  0.00     0.210 HD
ENDBRANCH   4  21
BRANCH   1  23
ATOM     23  C5' MOL d          38.097  39.288  34.931  0.00  0.00     0.059 C 
ATOM     24  H1  MOL d          37.347  39.164  34.136  0.00  0.00     0.079 H 
ATOM     25  H2  MOL d          37.631  39.094  35.909  0.00  0.00     0.079 H 
BRANCH  23  26
ATOM     26  O5' MOL d          38.636  40.622  34.897  0.00  0.00    -0.280 OA
BRANCH  26  27
ATOM     27  P   MOL d          37.963  41.843  35.678  0.00  0.00     0.422 P 
ATOM     28  O3P MOL d          38.778  43.168  35.290  0.00  0.00    -0.617 OA
ATOM     29  O1P MOL d          37.910  41.593  37.179  0.00  0.00    -0.617 OA
ATOM     30  O2P MOL d          36.597  41.946  35.120  0.00  0.00    -0.617 OA
ENDBRANCH  26  27
ENDBRANCH  23  26
ENDBRANCH   1  23
BRANCH   3  31
ATOM     31  O3' MOL d          39.871  35.989  34.657  0.00  0.00    -0.390 OA
ATOM     32  H5  MOL d          39.408  35.905  33.831  0.00  0.00     0.210 HD
ENDBRANCH   3  31
TORSDOF 6
ENDMDL
MODEL 5
REMARK VINA RESULT:      -5.7      2.133      4.234
REMARK  6 active torsions:
REMARK  status: ('A' for Active; 'I' for Inactive)
REMARK    1  A    between atoms: P_2  and  O5'_5 
REMARK    2  A    between atoms: O5'_5  and  C5'_6 
REMARK    3  A    between atoms: C5'_6  and  C4'_7 
REMARK    4  A    between atoms: C3'_9  and  O3'_10 
REMARK    5  A    between atoms: C2'_11  and  O2'_12 
REMARK    6  A    between atoms: C1'_13  and  N1_14 
ROOT
ATOM      1  C4' MOL d          39.782  41.396  34.558  0.00  0.00     0.089 C 
ATOM      2  O4' MOL d          39.410  40.008  34.525  0.00  0.00    -0.353 OA
ATOM      3  C3' MOL d          38.735  42.073  35.417  0.00  0.00     0.091 C 
ATOM      4  C2' MOL d          38.276  40.934  36.335  0.00  0.00     0.105 C 
ATOM      5  C1' MOL d          38.465  39.700  35.485  0.00  0.00     0.141 C 
ATOM      6  H3  MOL d          39.695  41.819  33.546  0.00  0.00     0.090 H 
ATOM      7  H4  MOL d          39.166  42.907  35.990  0.00  0.00     0.091 H 
ATOM      8  H6  MOL d          38.924  40.894  37.223  0.00  0.00     0.093 H 
ATOM      9  H8  MOL d          37.508  39.546  34.963  0.00  0.00     0.123 H 
ENDROOT
BRANCH   5  10
ATOM     10  N1  MOL d          38.748  38.418  36.143  0.00  0.00    -0.280 N 
ATOM     11  C2  MOL d          39.273  38.401  37.433  0.00  0.00     0.331 A 
ATOM     12  O2  MOL d          39.494  39.432  38.017  0.00  0.00    -0.246 OA
ATOM     13  N3  MOL d          39.513  37.144  37.964  0.00  0.00    -0.275 N 
ATOM     14  C4  MOL d          39.283  35.914  37.343  0.00  0.00     0.250 A 
ATOM     15  H9  MOL d          39.892  37.114  38.890  0.00  0.00     0.173 HD
ATOM     16  O4  MOL d          39.560  34.905  37.958  0.00  0.00    -0.268 OA
ATOM     17  C5  MOL d          38.743  36.021  36.019  0.00  0.00    -0.002 A 
ATOM     18  C6  MOL d          38.497  37.216  35.474  0.00  0.00    -0.008 A 
ATOM     19  H10 MOL d          38.530  35.117  35.451  0.00  0.00     0.094 H 
ATOM     20  H11 MOL d          38.084  37.255  34.468  0.00  0.00     0.112 H 
ENDBRANCH   5  10
BRANCH   4  21
ATOM     21  O2' MOL d          36.905  41.024  36.781  0.00  0.00    -0.388 OA
ATOM     22  H7  MOL d          36.758  40.396  37.479  0.00  0.00     0.210 HD
ENDBRANCH   4  21
BRANCH   1  23
ATOM     23  C5' MOL d          41.236  41.504  34.947  0.00  0.00     0.059 C 
ATOM     24  H1  MOL d          41.826  41.877  34.097  0.00  0.00     0.079 H 
ATOM     25  H2  MOL d          41.348  42.190  35.801  0.00  0.00     0.079 H 
BRANCH  23  26
ATOM     26  O5' MOL d          41.677  40.184  35.313  0.00  0.00    -0.280 OA
BRANCH  26  27
ATOM     27  P   MOL d          42.804  39.928  36.416  0.00  0.00     0.422 P 
ATOM     28  O3P MOL d          44.189  40.475  35.822  0.00  0.00    -0.617 OA
ATOM     29  O1P MOL d          42.869  38.464  36.829  0.00  0.00    -0.617 OA
ATOM     30  O2P MOL d          42.413  40.775  37.565  0.00  0.00    -0.617 OA
ENDBRANCH  26  27
ENDBRANCH  23  26
ENDBRANCH   1  23
BRANCH   3  31
ATOM     31  O3' MOL d          37.638  42.539  34.638  0.00  0.00    -0.390 OA
ATOM     32  H5  MOL d          37.951  43.165  33.996  0.00  0.00     0.210 HD
ENDBRANCH   3  31
TORSDOF 6
ENDMDL
MODEL 6
REMARK VINA RESULT:      -5.1      2.646      5.877
REMARK  6 active torsions:
REMARK  status: ('A' for Active; 'I' for Inactive)
REMARK    1  A    between atoms: P_2  and  O5'_5 
REMARK    2  A    between atoms: O5'_5  and  C5'_6 
REMARK    3  A    between atoms: C5'_6  and  C4'_7 
REMARK    4  A    between atoms: C3'_9  and  O3'_10 
REMARK    5  A    between atoms: C2'_11  and  O2'_12 
REMARK    6  A    between atoms: C1'_13  and  N1_14 
ROOT
ATOM      1  C4' MOL d          38.090  39.395  35.817  0.00  0.00     0.089 C 
ATOM      2  O4' MOL d          39.057  39.699  36.836  0.00  0.00    -0.353 OA
ATOM      3  C3' MOL d          37.818  40.709  35.115  0.00  0.00     0.091 C 
ATOM      4  C2' MOL d          39.128  41.476  35.333  0.00  0.00     0.105 C 
ATOM      5  C1' MOL d          39.631  40.942  36.654  0.00  0.00     0.141 C 
ATOM      6  H3  MOL d          37.149  39.079  36.292  0.00  0.00     0.090 H 
ATOM      7  H4  MOL d          37.611  40.556  34.046  0.00  0.00     0.091 H 
ATOM      8  H6  MOL d          39.834  41.233  34.525  0.00  0.00     0.093 H 
ATOM      9  H8  MOL d          39.216  41.609  37.425  0.00  0.00     0.123 H 
ENDROOT
BRANCH   5  10
ATOM     10  N1  MOL d          41.078  40.923  36.910  0.00  0.00    -0.280 N 
ATOM     11  C2  MOL d          41.971  40.909  35.841  0.00  0.00     0.331 A 
ATOM     12  O2  MOL d          41.567  40.917  34.706  0.00  0.00    -0.246 OA
ATOM     13  N3  MOL d          43.313  40.882  36.185  0.00  0.00    -0.275 N 
ATOM     14  C4  MOL d          43.848  40.869  37.476  0.00  0.00     0.250 A 
ATOM     15  H9  MOL d          43.968  40.871  35.430  0.00  0.00     0.173 HD
ATOM     16  O4  MOL d          45.055  40.838  37.592  0.00  0.00    -0.268 OA
ATOM     17  C5  MOL d          42.860  40.884  38.516  0.00  0.00    -0.002 A 
ATOM     18  C6  MOL d          41.557  40.911  38.223  0.00  0.00    -0.008 A 
ATOM     19  H10 MOL d          43.178  40.874  39.558  0.00  0.00     0.094 H 
ATOM     20  H11 MOL d          40.839  40.925  39.042  0.00  0.00     0.112 H 
ENDBRANCH   5  10
BRANCH   4  21
ATOM     21  O2' MOL d          38.991  42.912  35.398  0.00  0.00    -0.388 OA
ATOM     22  H7  MOL d          39.301  43.221  36.242  0.00  0.00     0.210 HD
ENDBRANCH   4  21
BRANCH   1  23
ATOM     23  C5' MOL d          38.582  38.218  35.011  0.00  0.00     0.059 C 
ATOM     24  H1  MOL d          38.101  38.212  34.022  0.00  0.00     0.079 H 
ATOM     25  H2  MOL d          39.674  38.275  34.888  0.00  0.00     0.079 H 
BRANCH  23  26
ATOM     26  O5' MOL d          38.229  37.028  35.739  0.00  0.00    -0.280 OA
BRANCH  26  27
ATOM     27  P   MOL d          39.321  36.069  36.402  0.00  0.00     0.422 P 
ATOM     28  O3P MOL d          38.703  35.514  37.775  0.00  0.00    -0.617 OA
ATOM     29  O1P MOL d          40.656  36.777  36.593  0.00  0.00    -0.617 OA
ATOM     30  O2P MOL d          39.463  34.940  35.456  0.00  0.00    -0.617 OA
ENDBRANCH  26  27
ENDBRANCH  23  26
ENDBRANCH   1  23
BRANCH   3  31
ATOM     31  O3' MOL d          36.739  41.413  35.720  0.00  0.00    -0.390 OA
ATOM     32  H5  MOL d          37.018  41.757  36.561  0.00  0.00     0.210 HD
ENDBRANCH   3  31
TORSDOF 6
ENDMDL
MODEL 7
REMARK VINA RESULT:      -4.5      2.949      5.731
REMARK  6 active torsions:
REMARK  status: ('A' for Active; 'I' for Inactive)
REMARK    1  A    between atoms: P_2  and  O5'_5 
REMARK    2  A    between atoms: O5'_5  and  C5'_6 
REMARK    3  A    between atoms: C5'_6  and  C4'_7 
REMARK    4  A    between atoms: C3'_9  and  O3'_10 
REMARK    5  A    between atoms: C2'_11  and  O2'_12 
REMARK    6  A    between atoms: C1'_13  and  N1_14 
ROOT
ATOM      1  C4' MOL d          41.828  38.563  36.682  0.00  0.00     0.089 C 
ATOM      2  O4' MOL d          41.266  39.354  35.622  0.00  0.00    -0.353 OA
ATOM      3  C3' MOL d          42.611  39.535  37.539  0.00  0.00     0.091 C 
ATOM      4  C2' MOL d          41.875  40.858  37.292  0.00  0.00     0.105 C 
ATOM      5  C1' MOL d          41.347  40.708  35.884  0.00  0.00     0.141 C 
ATOM      6  H3  MOL d          42.550  37.849  36.258  0.00  0.00     0.090 H 
ATOM      7  H4  MOL d          42.582  39.246  38.599  0.00  0.00     0.091 H 
ATOM      8  H6  MOL d          41.045  40.954  38.007  0.00  0.00     0.093 H 
ATOM      9  H8  MOL d          42.126  41.122  35.226  0.00  0.00     0.123 H 
ENDROOT
BRANCH   5  10
ATOM     10  N1  MOL d          40.117  41.416  35.506  0.00  0.00    -0.280 N 
ATOM     11  C2  MOL d          40.197  42.656  34.874  0.00  0.00     0.331 A 
ATOM     12  O2  MOL d          41.268  43.151  34.632  0.00  0.00    -0.246 OA
ATOM     13  N3  MOL d          38.983  43.248  34.566  0.00  0.00    -0.275 N 
ATOM     14  C4  MOL d          37.709  42.731  34.820  0.00  0.00     0.250 A 
ATOM     15  H9  MOL d          39.021  44.139  34.113  0.00  0.00     0.173 HD
ATOM     16  O4  MOL d          36.749  43.393  34.485  0.00  0.00    -0.268 OA
ATOM     17  C5  MOL d          37.718  41.454  35.471  0.00  0.00    -0.002 A 
ATOM     18  C6  MOL d          38.869  40.851  35.784  0.00  0.00    -0.008 A 
ATOM     19  H10 MOL d          36.774  40.968  35.714  0.00  0.00     0.094 H 
ATOM     20  H11 MOL d          38.833  39.881  36.276  0.00  0.00     0.112 H 
ENDBRANCH   5  10
BRANCH   4  21
ATOM     21  O2' MOL d          42.697  42.041  37.391  0.00  0.00    -0.388 OA
ATOM     22  H7  MOL d          43.236  42.117  36.612  0.00  0.00     0.210 HD
ENDBRANCH   4  21
BRANCH   1  23
ATOM     23  C5' MOL d          40.731  37.742  37.315  0.00  0.00     0.059 C 
ATOM     24  H1  MOL d          41.159  37.049  38.054  0.00  0.00     0.079 H 
ATOM     25  H2  MOL d          40.003  38.403  37.808  0.00  0.00     0.079 H 
BRANCH  23  26
ATOM     26  O5' MOL d          40.091  37.003  36.258  0.00  0.00    -0.280 OA
BRANCH  26  27
ATOM     27  P   MOL d          39.774  35.441  36.371  0.00  0.00     0.422 P 
ATOM     28  O3P MOL d          39.158  34.975  34.965  0.00  0.00    -0.617 OA
ATOM     29  O1P MOL d          38.864  35.132  37.552  0.00  0.00    -0.617 OA
ATOM     30  O2P MOL d          41.094  34.796  36.548  0.00  0.00    -0.617 OA
ENDBRANCH  26  27
ENDBRANCH  23  26
ENDBRANCH   1  23
BRANCH   3  31
ATOM     31  O3' MOL d          43.962  39.646  37.105  0.00  0.00    -0.390 OA
ATOM     32  H5  MOL d          44.157  38.941  36.498  0.00  0.00     0.210 HD
ENDBRANCH   3  31
TORSDOF 6
ENDMDL
MODEL 8
REMARK VINA RESULT:      -4.2      1.791      4.547
REMARK  6 active torsions:
REMARK  status: ('A' for Active; 'I' for Inactive)
REMARK    1  A    between atoms: P_2  and  O5'_5 
REMARK    2  A    between atoms: O5'_5  and  C5'_6 
REMARK    3  A    between atoms: C5'_6  and  C4'_7 
REMARK    4  A    between atoms: C3'_9  and  O3'_10 
REMARK    5  A    between atoms: C2'_11  and  O2'_12 
REMARK    6  A    between atoms: C1'_13  and  N1_14 
ROOT
ATOM      1  C4' MOL d          38.723  38.554  34.485  0.00  0.00     0.089 C 
ATOM      2  O4' MOL d          40.132  38.834  34.486  0.00  0.00    -0.353 OA
ATOM      3  C3' MOL d          38.507  37.571  35.616  0.00  0.00     0.091 C 
ATOM      4  C2' MOL d          39.660  37.907  36.569  0.00  0.00     0.105 C 
ATOM      5  C1' MOL d          40.749  38.397  35.642  0.00  0.00     0.141 C 
ATOM      6  H3  MOL d          38.456  38.038  33.551  0.00  0.00     0.090 H 
ATOM      7  H4  MOL d          37.528  37.721  36.095  0.00  0.00     0.091 H 
ATOM      8  H6  MOL d          39.349  38.707  37.255  0.00  0.00     0.093 H 
ATOM      9  H8  MOL d          41.342  37.508  35.380  0.00  0.00     0.123 H 
ENDROOT
BRANCH   5  10
ATOM     10  N1  MOL d          41.728  39.370  36.145  0.00  0.00    -0.280 N 
ATOM     11  C2  MOL d          42.771  38.944  36.965  0.00  0.00     0.331 A 
ATOM     12  O2  MOL d          42.880  37.781  37.262  0.00  0.00    -0.246 OA
ATOM     13  N3  MOL d          43.636  39.937  37.395  0.00  0.00    -0.275 N 
ATOM     14  C4  MOL d          43.566  41.299  37.092  0.00  0.00     0.250 A 
ATOM     15  H9  MOL d          44.390  39.648  37.986  0.00  0.00     0.173 HD
ATOM     16  O4  MOL d          44.410  42.031  37.564  0.00  0.00    -0.268 OA
ATOM     17  C5  MOL d          42.465  41.651  36.244  0.00  0.00    -0.002 A 
ATOM     18  C6  MOL d          41.610  40.721  35.809  0.00  0.00    -0.008 A 
ATOM     19  H10 MOL d          42.323  42.691  35.952  0.00  0.00     0.094 H 
ATOM     20  H11 MOL d          40.788  41.029  35.165  0.00  0.00     0.112 H 
ENDBRANCH   5  10
BRANCH   4  21
ATOM     21  O2' MOL d          40.143  36.797  37.358  0.00  0.00    -0.388 OA
ATOM     22  H7  MOL d          39.520  36.608  38.050  0.00  0.00     0.210 HD
ENDBRANCH   4  21
BRANCH   1  23
ATOM     23  C5' MOL d          37.964  39.859  34.489  0.00  0.00     0.059 C 
ATOM     24  H1  MOL d          38.606  40.669  34.112  0.00  0.00     0.079 H 
ATOM     25  H2  MOL d          37.068  39.776  33.855  0.00  0.00     0.079 H 
BRANCH  23  26
ATOM     26  O5' MOL d          37.582  40.124  35.851  0.00  0.00    -0.280 OA
BRANCH  26  27
ATOM     27  P   MOL d          37.823  41.540  36.552  0.00  0.00     0.422 P 
ATOM     28  O3P MOL d          38.965  41.338  37.659  0.00  0.00    -0.617 OA
ATOM     29  O1P MOL d          36.534  42.114  37.123  0.00  0.00    -0.617 OA
ATOM     30  O2P MOL d          38.350  42.412  35.479  0.00  0.00    -0.617 OA
ENDBRANCH  26  27
ENDBRANCH  23  26
ENDBRANCH   1  23
BRANCH   3  31
ATOM     31  O3' MOL d          38.624  36.224  35.169  0.00  0.00    -0.390 OA
ATOM     32  H5  MOL d          39.400  35.831  35.553  0.00  0.00     0.210 HD
ENDBRANCH   3  31
TORSDOF 6
ENDMDL
MODEL 9
REMARK VINA RESULT:      -3.9      2.570      5.389
REMARK  6 active torsions:
REMARK  status: ('A' for Active; 'I' for Inactive)
REMARK    1  A    between atoms: P_2  and  O5'_5 
REMARK    2  A    between atoms: O5'_5  and  C5'_6 
REMARK    3  A    between atoms: C5'_6  and  C4'_7 
REMARK    4  A    between atoms: C3'_9  and  O3'_10 
REMARK    5  A    between atoms: C2'_11  and  O2'_12 
REMARK    6  A    between atoms: C1'_13  and  N1_14 
ROOT
ATOM      1  C4' MOL d          40.777  37.630  37.487  0.00  0.00     0.089 C 
ATOM      2  O4' MOL d          39.933  38.780  37.657  0.00  0.00    -0.353 OA
ATOM      3  C3' MOL d          39.892  36.568  36.868  0.00  0.00     0.091 C 
ATOM      4  C2' MOL d          38.845  37.405  36.124  0.00  0.00     0.105 C 
ATOM      5  C1' MOL d          38.749  38.665  36.954  0.00  0.00     0.141 C 
ATOM      6  H3  MOL d          41.088  37.258  38.475  0.00  0.00     0.090 H 
ATOM      7  H4  MOL d          40.460  35.925  36.181  0.00  0.00     0.091 H 
ATOM      8  H6  MOL d          39.211  37.637  35.113  0.00  0.00     0.093 H 
ATOM      9  H8  MOL d          37.950  38.480  37.688  0.00  0.00     0.123 H 
ENDROOT
BRANCH   5  10
ATOM     10  N1  MOL d          38.375  39.924  36.297  0.00  0.00    -0.280 N 
ATOM     11  C2  MOL d          38.895  40.233  35.042  0.00  0.00     0.331 A 
ATOM     12  O2  MOL d          39.649  39.473  34.488  0.00  0.00    -0.246 OA
ATOM     13  N3  MOL d          38.490  41.446  34.509  0.00  0.00    -0.275 N 
ATOM     14  C4  MOL d          37.625  42.373  35.097  0.00  0.00     0.250 A 
ATOM     15  H9  MOL d          38.856  41.684  33.609  0.00  0.00     0.173 HD
ATOM     16  O4  MOL d          37.383  43.393  34.487  0.00  0.00    -0.268 OA
ATOM     17  C5  MOL d          37.136  41.977  36.386  0.00  0.00    -0.002 A 
ATOM     18  C6  MOL d          37.503  40.814  36.931  0.00  0.00    -0.008 A 
ATOM     19  H10 MOL d          36.455  42.633  36.926  0.00  0.00     0.094 H 
ATOM     20  H11 MOL d          37.108  40.549  37.910  0.00  0.00     0.112 H 
ENDBRANCH   5  10
BRANCH   4  21
ATOM     21  O2' MOL d          37.544  36.790  36.005  0.00  0.00    -0.388 OA
ATOM     22  H7  MOL d          37.516  36.261  35.216  0.00  0.00     0.210 HD
ENDBRANCH   4  21
BRANCH   1  23
ATOM     23  C5' MOL d          42.036  38.049  36.769  0.00  0.00     0.059 C 
ATOM     24  H1  MOL d          42.899  37.493  37.166  0.00  0.00     0.079 H 
ATOM     25  H2  MOL d          41.939  37.853  35.690  0.00  0.00     0.079 H 
BRANCH  23  26
ATOM     26  O5' MOL d          42.208  39.459  37.000  0.00  0.00    -0.280 OA
BRANCH  26  27
ATOM     27  P   MOL d          43.186  40.363  36.117  0.00  0.00     0.422 P 
ATOM     28  O3P MOL d          43.359  39.637  34.698  0.00  0.00    -0.617 OA
ATOM     29  O1P MOL d          44.511  40.618  36.822  0.00  0.00    -0.617 OA
ATOM     30  O2P MOL d          42.452  41.632  35.914  0.00  0.00    -0.617 OA
ENDBRANCH  26  27
ENDBRANCH  23  26
ENDBRANCH   1  23
BRANCH   3  31
ATOM     31  O3' MOL d          39.258  35.771  37.862  0.00  0.00    -0.390 OA
ATOM     32  H5  MOL d          38.467  35.386  37.501  0.00  0.00     0.210 HD
ENDBRANCH   3  31
TORSDOF 6
ENDMDL
