MODEL 1
REMARK VINA RESULT:      -5.8      0.000      0.000
REMARK  11 active torsions:
REMARK  status: ('A' for Active; 'I' for Inactive)
REMARK    1  A    between atoms: C24_1  and  C23_2 
REMARK       I    between atoms: C23_2  and  N22_4 
REMARK    2  A    between atoms: N22_4  and  C19_5 
REMARK    3  A    between atoms: C16_10  and  O14_11 
REMARK    4  A    between atoms: O14_11  and  C13_12 
REMARK    5  A    between atoms: C13_12  and  C11_13 
REMARK    6  A    between atoms: C11_13  and  O11_14 
REMARK    7  A    between atoms: C11_13  and  C12_15 
REMARK    8  A    between atoms: C11_13  and  C10_16 
REMARK       I    between atoms: C10_16  and  N9_18 
REMARK    9  A    between atoms: N9_18  and  C6_19 
REMARK   10  A    between atoms: C3_23  and  N8_24 
REMARK   11  A    between atoms: C4_27  and  C7_28 
ROOT
ATOM      1  C11 B68 d          29.561   0.362   3.318  0.00  0.00     0.156 C 
ENDROOT
BRANCH   1   2
ATOM      2  C13 B68 d          28.262  -0.359   2.993  0.00  0.00     0.063 C 
ATOM      3  H9  B68 d          27.826   0.071   2.078  0.00  0.00     0.080 H 
ATOM      4  H10 B68 d          28.469  -1.427   2.833  0.00  0.00     0.080 H 
BRANCH   2   5
ATOM      5  O14 B68 d          27.331  -0.213   4.077  0.00  0.00    -0.348 OA
BRANCH   5   6
ATOM      6  C16 B68 d          26.624   0.947   3.988  0.00  0.00     0.069 A 
ATOM      7  C17 B68 d          25.796   1.190   2.896  0.00  0.00    -0.049 A 
ATOM      8  C18 B68 d          25.038   2.356   2.838  0.00  0.00    -0.054 A 
ATOM      9  H6  B68 d          25.742   0.470   2.088  0.00  0.00     0.087 H 
ATOM     10  C19 B68 d          25.096   3.289   3.873  0.00  0.00     0.034 A 
ATOM     11  H5  B68 d          24.398   2.540   1.983  0.00  0.00     0.087 H 
ATOM     12  C20 B68 d          25.921   3.039   4.965  0.00  0.00    -0.054 A 
ATOM     13  C21 B68 d          26.683   1.876   5.025  0.00  0.00    -0.049 A 
ATOM     14  H7  B68 d          25.971   3.757   5.776  0.00  0.00     0.087 H 
ATOM     15  H8  B68 d          27.323   1.692   5.880  0.00  0.00     0.087 H 
BRANCH  10  16
ATOM     16  N22 B68 d          24.400   4.426   3.845  0.00  0.00    -0.328 N 
ATOM     17  C23 B68 d          24.933   5.642   3.734  0.00  0.00     0.218 C 
ATOM     18  O23 B68 d          26.135   5.871   3.604  0.00  0.00    -0.274 OA
ATOM     19  H4  B68 d          23.405   4.362   3.914  0.00  0.00     0.169 HD
BRANCH  17  20
ATOM     20  C24 B68 d          23.918   6.787   3.741  0.00  0.00    -0.003 C 
ATOM     21  H1  B68 d          23.519   6.919   4.758  0.00  0.00     0.040 H 
ATOM     22  H2  B68 d          23.094   6.551   3.052  0.00  0.00     0.040 H 
ATOM     23  H3  B68 d          24.411   7.716   3.418  0.00  0.00     0.040 H 
ENDBRANCH  17  20
ENDBRANCH  10  16
ENDBRANCH   5   6
ENDBRANCH   2   5
ENDBRANCH   1   2
BRANCH   1  24
ATOM     24  O11 B68 d          30.572  -0.039   2.390  0.00  0.00    -0.378 OA
ATOM     25  H11 B68 d          30.314   0.219   1.513  0.00  0.00     0.211 HD
ENDBRANCH   1  24
BRANCH   1  26
ATOM     26  C12 B68 d          29.339   1.874   3.240  0.00  0.00    -0.037 C 
ATOM     27  H12 B68 d          29.915   2.286   2.399  0.00  0.00     0.032 H 
ATOM     28  H13 B68 d          29.673   2.342   4.177  0.00  0.00     0.032 H 
ATOM     29  H14 B68 d          28.270   2.080   3.088  0.00  0.00     0.032 H 
ENDBRANCH   1  26
BRANCH   1  30
ATOM     30  C10 B68 d          29.994  -0.034   4.730  0.00  0.00     0.258 C 
ATOM     31  O10 B68 d          30.628  -1.071   4.919  0.00  0.00    -0.270 OA
ATOM     32  N9  B68 d          29.654   0.837   5.678  0.00  0.00    -0.325 N 
ATOM     33  H15 B68 d          29.153   1.654   5.390  0.00  0.00     0.169 HD
BRANCH  32  34
ATOM     34  C6  B68 d          29.925   0.713   6.977  0.00  0.00     0.035 A 
ATOM     35  C5  B68 d          29.049   1.127   7.979  0.00  0.00    -0.040 A 
ATOM     36  C4  B68 d          29.314   0.948   9.337  0.00  0.00     0.083 A 
ATOM     37  H16 B68 d          28.121   1.608   7.690  0.00  0.00     0.088 H 
ATOM     38  C3  B68 d          30.512   0.316   9.689  0.00  0.00     0.118 A 
ATOM     39  C2  B68 d          31.401  -0.085   8.695  0.00  0.00    -0.048 A 
ATOM     40  C1  B68 d          31.119   0.106   7.346  0.00  0.00    -0.055 A 
ATOM     41  H18 B68 d          32.334  -0.558   8.979  0.00  0.00     0.087 H 
ATOM     42  H17 B68 d          31.825  -0.216   6.590  0.00  0.00     0.087 H 
BRANCH  36  43
ATOM     43  C7  B68 d          28.295   1.480  10.362  0.00  0.00     0.419 C 
ATOM     44  F2  B68 d          27.320   0.597  10.555  0.00  0.00    -0.166 F 
ATOM     45  F1  B68 d          28.841   1.758  11.543  0.00  0.00    -0.166 F 
ATOM     46  F3  B68 d          27.717   2.606   9.952  0.00  0.00    -0.166 F 
ENDBRANCH  36  43
BRANCH  38  47
ATOM     47  N8  B68 d          30.871   0.039  10.943  0.00  0.00    -0.115 N 
ATOM     48  O1  B68 d          30.099  -0.779  11.809  0.00  0.00    -0.532 OA
ATOM     49  O2  B68 d          32.130   0.489  11.423  0.00  0.00    -0.532 OA
ENDBRANCH  38  47
ENDBRANCH  32  34
ENDBRANCH   1  30
TORSDOF 11
ENDMDL
MODEL 2
REMARK VINA RESULT:      -4.0      1.857      4.589
REMARK  11 active torsions:
REMARK  status: ('A' for Active; 'I' for Inactive)
REMARK    1  A    between atoms: C24_1  and  C23_2 
REMARK       I    between atoms: C23_2  and  N22_4 
REMARK    2  A    between atoms: N22_4  and  C19_5 
REMARK    3  A    between atoms: C16_10  and  O14_11 
REMARK    4  A    between atoms: O14_11  and  C13_12 
REMARK    5  A    between atoms: C13_12  and  C11_13 
REMARK    6  A    between atoms: C11_13  and  O11_14 
REMARK    7  A    between atoms: C11_13  and  C12_15 
REMARK    8  A    between atoms: C11_13  and  C10_16 
REMARK       I    between atoms: C10_16  and  N9_18 
REMARK    9  A    between atoms: N9_18  and  C6_19 
REMARK   10  A    between atoms: C3_23  and  N8_24 
REMARK   11  A    between atoms: C4_27  and  C7_28 
ROOT
ATOM      1  C11 B68 d          26.433   4.474   3.769  0.00  0.00     0.156 C 
ENDROOT
BRANCH   1   2
ATOM      2  C13 B68 d          25.268   3.512   3.942  0.00  0.00     0.063 C 
ATOM      3  H9  B68 d          25.380   2.971   4.894  0.00  0.00     0.080 H 
ATOM      4  H10 B68 d          24.326   4.079   3.952  0.00  0.00     0.080 H 
BRANCH   2   5
ATOM      5  O14 B68 d          25.242   2.568   2.859  0.00  0.00    -0.348 OA
BRANCH   5   6
ATOM      6  C16 B68 d          26.154   1.572   3.030  0.00  0.00     0.069 A 
ATOM      7  C17 B68 d          25.929   0.556   3.954  0.00  0.00    -0.049 A 
ATOM      8  C18 B68 d          26.843  -0.485   4.085  0.00  0.00    -0.054 A 
ATOM      9  H6  B68 d          25.040   0.576   4.573  0.00  0.00     0.087 H 
ATOM     10  C19 B68 d          27.988  -0.525   3.293  0.00  0.00     0.034 A 
ATOM     11  H5  B68 d          26.662  -1.271   4.809  0.00  0.00     0.087 H 
ATOM     12  C20 B68 d          28.207   0.491   2.367  0.00  0.00    -0.054 A 
ATOM     13  C21 B68 d          27.297   1.536   2.234  0.00  0.00    -0.049 A 
ATOM     14  H7  B68 d          29.094   0.468   1.743  0.00  0.00     0.087 H 
ATOM     15  H8  B68 d          27.477   2.322   1.510  0.00  0.00     0.087 H 
BRANCH  10  16
ATOM     16  N22 B68 d          28.897  -1.494   3.402  0.00  0.00    -0.328 N 
ATOM     17  C23 B68 d          30.216  -1.306   3.401  0.00  0.00     0.218 C 
ATOM     18  O23 B68 d          30.767  -0.208   3.335  0.00  0.00    -0.274 OA
ATOM     19  H4  B68 d          28.564  -2.433   3.492  0.00  0.00     0.169 HD
BRANCH  17  20
ATOM     20  C24 B68 d          31.044  -2.586   3.527  0.00  0.00    -0.003 C 
ATOM     21  H1  B68 d          30.371  -3.454   3.592  0.00  0.00     0.040 H 
ATOM     22  H2  B68 d          31.664  -2.534   4.434  0.00  0.00     0.040 H 
ATOM     23  H3  B68 d          31.693  -2.692   2.645  0.00  0.00     0.040 H 
ENDBRANCH  17  20
ENDBRANCH  10  16
ENDBRANCH   5   6
ENDBRANCH   2   5
ENDBRANCH   1   2
BRANCH   1  24
ATOM     24  O11 B68 d          26.853   4.470   2.402  0.00  0.00    -0.378 OA
ATOM     25  H11 B68 d          27.219   3.621   2.187  0.00  0.00     0.211 HD
ENDBRANCH   1  24
BRANCH   1  26
ATOM     26  C12 B68 d          26.000   5.881   4.185  0.00  0.00    -0.037 C 
ATOM     27  H12 B68 d          26.885   6.529   4.264  0.00  0.00     0.032 H 
ATOM     28  H13 B68 d          25.491   5.835   5.159  0.00  0.00     0.032 H 
ATOM     29  H14 B68 d          25.312   6.291   3.431  0.00  0.00     0.032 H 
ENDBRANCH   1  26
BRANCH   1  30
ATOM     30  C10 B68 d          27.589   3.997   4.648  0.00  0.00     0.258 C 
ATOM     31  O10 B68 d          28.655   4.612   4.664  0.00  0.00    -0.270 OA
ATOM     32  N9  B68 d          27.319   2.917   5.379  0.00  0.00    -0.325 N 
ATOM     33  H15 B68 d          26.406   2.520   5.288  0.00  0.00     0.169 HD
BRANCH  32  34
ATOM     34  C6  B68 d          28.163   2.322   6.221  0.00  0.00     0.035 A 
ATOM     35  C5  B68 d          27.925   2.223   7.591  0.00  0.00    -0.040 A 
ATOM     36  C4  B68 d          28.786   1.555   8.462  0.00  0.00     0.083 A 
ATOM     37  H16 B68 d          27.031   2.684   7.997  0.00  0.00     0.088 H 
ATOM     38  C3  B68 d          29.929   0.958   7.918  0.00  0.00     0.118 A 
ATOM     39  C2  B68 d          30.184   1.067   6.553  0.00  0.00    -0.048 A 
ATOM     40  C1  B68 d          29.313   1.741   5.702  0.00  0.00    -0.055 A 
ATOM     41  H18 B68 d          31.080   0.617   6.144  0.00  0.00     0.087 H 
ATOM     42  H17 B68 d          29.531   1.812   4.643  0.00  0.00     0.087 H 
BRANCH  36  43
ATOM     43  C7  B68 d          28.448   1.539   9.965  0.00  0.00     0.419 C 
ATOM     44  F2  B68 d          27.614   0.542  10.247  0.00  0.00    -0.166 F 
ATOM     45  F1  B68 d          29.522   1.412  10.739  0.00  0.00    -0.166 F 
ATOM     46  F3  B68 d          27.848   2.661  10.352  0.00  0.00    -0.166 F 
ENDBRANCH  36  43
BRANCH  38  47
ATOM     47  N8  B68 d          30.812   0.250   8.623  0.00  0.00    -0.115 N 
ATOM     48  O1  B68 d          32.082   0.755   9.008  0.00  0.00    -0.532 OA
ATOM     49  O2  B68 d          30.447  -1.033   9.110  0.00  0.00    -0.532 OA
ENDBRANCH  38  47
ENDBRANCH  32  34
ENDBRANCH   1  30
TORSDOF 11
ENDMDL
