MODEL 1
REMARK VINA RESULT:      -8.6      0.000      0.000
REMARK  6 active torsions:
REMARK  status: ('A' for Active; 'I' for Inactive)
REMARK    1  A    between atoms: C10_10  and  C5_5 
REMARK    2  A    between atoms: C7_7  and  C14_14 
REMARK    3  A    between atoms: C8_8  and  N17_17 
REMARK    4  A    between atoms: N17_17  and  S18_18 
REMARK    5  A    between atoms: S18_18  and  C20_20 
REMARK    6  A    between atoms: C19_19  and  C25_25 
ROOT
ATOM      1  C1  CCT d          10.624  29.437  72.959  0.00  0.00    -0.062 A 
ATOM      2  C2  CCT d          11.900  30.030  73.207  0.00  0.00     0.044 A 
ATOM      3  C3  CCT d          11.976  31.131  74.107  0.00  0.00    -0.062 A 
ATOM      4  C4  CCT d          10.814  31.626  74.744  0.00  0.00    -0.070 A 
ATOM      5  C5  CCT d           9.538  31.036  74.505  0.00  0.00    -0.019 A 
ATOM      6  C6  CCT d           9.461  29.934  73.601  0.00  0.00    -0.070 A 
ATOM      7  C12 CCT d          13.084  29.533  72.573  0.00  0.00     0.099 C 
ATOM      8  N13 CCT d          14.068  29.123  72.069  0.00  0.00    -0.191 NA
ATOM      9  H1  CCT d          10.544  28.600  72.274  0.00  0.00     0.085 H 
ATOM     10  H2  CCT d          12.935  31.596  74.305  0.00  0.00     0.085 H 
ATOM     11  H3  CCT d          10.895  32.465  75.425  0.00  0.00     0.084 H 
ATOM     12  H4  CCT d           8.500  29.471  73.402  0.00  0.00     0.084 H 
ENDROOT
BRANCH   5  13
ATOM     13  C10 CCT d           8.350  31.564  75.200  0.00  0.00     0.018 A 
ATOM     14  C9  CCT d           7.879  32.866  75.266  0.00  0.00    -0.038 A 
ATOM     15  C8  CCT d           6.674  33.003  76.041  0.00  0.00     0.068 A 
ATOM     16  H5  CCT d           8.374  33.705  74.778  0.00  0.00     0.089 H 
ATOM     17  C7  CCT d           6.259  31.780  76.548  0.00  0.00     0.109 A 
ATOM     18  S11 CCT d           7.317  30.534  76.085  0.00  0.00    -0.080 SA
BRANCH  15  19
ATOM     19  N17 CCT d           5.994  34.271  76.264  0.00  0.00    -0.279 N 
ATOM     20  H6  CCT d           5.041  34.378  75.981  0.00  0.00     0.179 HD
BRANCH  19  21
ATOM     21  S18 CCT d           6.803  35.565  76.997  0.00  0.00     0.263 S 
ATOM     22  O26 CCT d           7.369  35.065  78.242  0.00  0.00    -0.200 OA
ATOM     23  O27 CCT d           5.780  36.566  77.214  0.00  0.00    -0.200 OA
BRANCH  21  24
ATOM     24  C20 CCT d           8.091  36.286  75.992  0.00  0.00     0.085 A 
ATOM     25  C19 CCT d           9.479  35.993  76.170  0.00  0.00    -0.039 A 
ATOM     26  C24 CCT d          10.430  36.625  75.305  0.00  0.00    -0.076 A 
ATOM     27  C23 CCT d          10.010  37.524  74.287  0.00  0.00    -0.082 A 
ATOM     28  H10 CCT d          11.486  36.416  75.429  0.00  0.00     0.084 H 
ATOM     29  C22 CCT d           8.628  37.809  74.119  0.00  0.00    -0.081 A 
ATOM     30  H9  CCT d          10.743  37.991  73.640  0.00  0.00     0.083 H 
ATOM     31  C21 CCT d           7.682  37.191  74.965  0.00  0.00    -0.060 A 
ATOM     32  H8  CCT d           8.303  38.497  73.346  0.00  0.00     0.083 H 
ATOM     33  H7  CCT d           6.627  37.407  74.834  0.00  0.00     0.085 H 
BRANCH  25  34
ATOM     34  C25 CCT d           9.989  35.047  77.233  0.00  0.00    -0.050 C 
ATOM     35  H11 CCT d           9.138  34.548  77.719  0.00  0.00     0.033 H 
ATOM     36  H12 CCT d          10.560  35.612  77.984  0.00  0.00     0.033 H 
ATOM     37  H13 CCT d          10.641  34.291  76.769  0.00  0.00     0.033 H 
ENDBRANCH  25  34
ENDBRANCH  21  24
ENDBRANCH  19  21
ENDBRANCH  15  19
BRANCH  17  38
ATOM     38  C14 CCT d           5.045  31.581  77.388  0.00  0.00     0.219 C 
ATOM     39  O15 CCT d           4.058  32.288  77.127  0.00  0.00    -0.643 OA
ATOM     40  O16 CCT d           5.080  30.743  78.324  0.00  0.00    -0.643 OA
ENDBRANCH  17  38
ENDBRANCH   5  13
TORSDOF 6
ENDMDL
MODEL 2
REMARK VINA RESULT:      -6.4      1.266      1.982
REMARK  6 active torsions:
REMARK  status: ('A' for Active; 'I' for Inactive)
REMARK    1  A    between atoms: C10_10  and  C5_5 
REMARK    2  A    between atoms: C7_7  and  C14_14 
REMARK    3  A    between atoms: C8_8  and  N17_17 
REMARK    4  A    between atoms: N17_17  and  S18_18 
REMARK    5  A    between atoms: S18_18  and  C20_20 
REMARK    6  A    between atoms: C19_19  and  C25_25 
ROOT
ATOM      1  C1  CCT d          10.529  28.950  75.380  0.00  0.00    -0.062 A 
ATOM      2  C2  CCT d          11.604  29.618  74.716  0.00  0.00     0.044 A 
ATOM      3  C3  CCT d          11.501  31.021  74.495  0.00  0.00    -0.062 A 
ATOM      4  C4  CCT d          10.362  31.739  74.926  0.00  0.00    -0.070 A 
ATOM      5  C5  CCT d           9.287  31.081  75.593  0.00  0.00    -0.019 A 
ATOM      6  C6  CCT d           9.388  29.673  75.812  0.00  0.00    -0.070 A 
ATOM      7  C12 CCT d          12.766  28.902  74.282  0.00  0.00     0.099 C 
ATOM      8  N13 CCT d          13.733  28.326  73.933  0.00  0.00    -0.191 NA
ATOM      9  H1  CCT d          10.586  27.881  75.554  0.00  0.00     0.085 H 
ATOM     10  H2  CCT d          12.306  31.544  73.991  0.00  0.00     0.085 H 
ATOM     11  H3  CCT d          10.305  32.807  74.748  0.00  0.00     0.084 H 
ATOM     12  H4  CCT d           8.582  29.151  76.315  0.00  0.00     0.084 H 
ENDROOT
BRANCH   5  13
ATOM     13  C10 CCT d           8.123  31.863  76.046  0.00  0.00     0.018 A 
ATOM     14  C9  CCT d           7.741  33.149  75.699  0.00  0.00    -0.038 A 
ATOM     15  C8  CCT d           6.531  33.584  76.344  0.00  0.00     0.068 A 
ATOM     16  H5  CCT d           8.303  33.770  75.004  0.00  0.00     0.089 H 
ATOM     17  C7  CCT d           6.020  32.598  77.176  0.00  0.00     0.109 A 
ATOM     18  S11 CCT d           7.001  31.210  77.154  0.00  0.00    -0.080 SA
BRANCH  15  19
ATOM     19  N17 CCT d           5.935  34.897  76.148  0.00  0.00    -0.279 N 
ATOM     20  H6  CCT d           5.005  34.970  75.788  0.00  0.00     0.179 HD
BRANCH  19  21
ATOM     21  S18 CCT d           6.802  36.302  76.523  0.00  0.00     0.263 S 
ATOM     22  O26 CCT d           6.550  36.597  77.926  0.00  0.00    -0.200 OA
ATOM     23  O27 CCT d           6.267  37.316  75.638  0.00  0.00    -0.200 OA
BRANCH  21  24
ATOM     24  C20 CCT d           8.560  36.175  76.236  0.00  0.00     0.085 A 
ATOM     25  C19 CCT d           9.218  36.793  75.126  0.00  0.00    -0.039 A 
ATOM     26  C24 CCT d          10.635  36.630  74.992  0.00  0.00    -0.076 A 
ATOM     27  C23 CCT d          11.378  35.874  75.940  0.00  0.00    -0.082 A 
ATOM     28  H10 CCT d          11.148  37.090  74.156  0.00  0.00     0.084 H 
ATOM     29  C22 CCT d          10.714  35.264  77.037  0.00  0.00    -0.081 A 
ATOM     30  H9  CCT d          12.450  35.763  75.824  0.00  0.00     0.083 H 
ATOM     31  C21 CCT d           9.317  35.418  77.180  0.00  0.00    -0.060 A 
ATOM     32  H8  CCT d          11.275  34.683  77.760  0.00  0.00     0.083 H 
ATOM     33  H7  CCT d           8.812  34.955  78.020  0.00  0.00     0.085 H 
BRANCH  25  34
ATOM     34  C25 CCT d           8.485  37.609  74.086  0.00  0.00    -0.050 C 
ATOM     35  H11 CCT d           7.785  38.295  74.585  0.00  0.00     0.033 H 
ATOM     36  H12 CCT d           7.927  36.937  73.419  0.00  0.00     0.033 H 
ATOM     37  H13 CCT d           9.211  38.191  73.498  0.00  0.00     0.033 H 
ENDBRANCH  25  34
ENDBRANCH  21  24
ENDBRANCH  19  21
ENDBRANCH  15  19
BRANCH  17  38
ATOM     38  C14 CCT d           4.777  32.733  77.985  0.00  0.00     0.219 C 
ATOM     39  O15 CCT d           4.004  31.761  77.995  0.00  0.00    -0.643 OA
ATOM     40  O16 CCT d           4.552  33.813  78.587  0.00  0.00    -0.643 OA
ENDBRANCH  17  38
ENDBRANCH   5  13
TORSDOF 6
ENDMDL
