MODEL 1
REMARK VINA RESULT:      -6.2      0.000      0.000
REMARK  13 active torsions:
REMARK  status: ('A' for Active; 'I' for Inactive)
REMARK    1  A    between atoms: C_1  and  CH3_3 
REMARK       I    between atoms: N_4  and  C_1 
REMARK    2  A    between atoms: CA_5  and  N_4 
REMARK    3  A    between atoms: C_6  and  CA_5 
REMARK    4  A    between atoms: CA_5  and  CB_8 
REMARK       I    between atoms: N_26  and  C_6 
REMARK    5  A    between atoms: CB_8  and  CG_9 
REMARK    6  A    between atoms: CZ_14  and  OH_15 
REMARK    7  A    between atoms: OH_15  and  P_16 
REMARK    8  A    between atoms: CA_28  and  N_26 
REMARK    9  A    between atoms: C_27  and  CA_28 
REMARK       I    between atoms: C_27  and  N_29 
REMARK   10  A    between atoms: N_29  and  CA_30 
REMARK   11  A    between atoms: CA_30  and  C_31 
REMARK   12  A    between atoms: CA_30  and  CB_33 
REMARK       I    between atoms: C_31  and  N_37 
REMARK   13  A    between atoms: CB_33  and  CG_34 
REMARK       I    between atoms: CG_34  and  ND2_36 
ROOT
ATOM      1  CD  ACE d          11.346  -8.443   4.071  0.00  0.00    -0.065 C 
ATOM      2  CG  ACE d          11.340  -6.891   4.040  0.00  0.00    -0.062 C 
ATOM      3  CE  ACE d          10.205  -8.973   3.183  0.00  0.00    -0.062 C 
ATOM      4  CB  ACE d           9.979  -6.283   4.515  0.00  0.00    -0.033 C 
ATOM      5  CH  ACE d           8.856  -8.347   3.584  0.00  0.00    -0.033 C 
ATOM      6  CA  ACE d           8.810  -6.808   3.661  0.00  0.00     0.114 C 
ATOM      7  H12 ACE d          11.200  -8.790   5.105  0.00  0.00     0.033 H 
ATOM      8  H13 ACE d          12.310  -8.815   3.693  0.00  0.00     0.033 H 
ATOM      9  H14 ACE d          11.534  -6.559   3.010  0.00  0.00     0.033 H 
ATOM     10  H15 ACE d          12.139  -6.523   4.700  0.00  0.00     0.033 H 
ATOM     11  H16 ACE d          10.141 -10.066   3.292  0.00  0.00     0.033 H 
ATOM     12  H17 ACE d          10.420  -8.722   2.133  0.00  0.00     0.033 H 
ATOM     13  H18 ACE d          10.024  -5.188   4.427  0.00  0.00     0.037 H 
ATOM     14  H19 ACE d           9.809  -6.560   5.566  0.00  0.00     0.037 H 
ATOM     15  H20 ACE d           8.587  -8.739   4.576  0.00  0.00     0.037 H 
ATOM     16  H21 ACE d           8.105  -8.668   2.847  0.00  0.00     0.037 H 
ENDROOT
BRANCH   6  17
ATOM     17  N   ACE d           8.915  -6.331   2.277  0.00  0.00    -0.341 N 
ATOM     18  C   ACE d           8.123  -6.747   1.298  0.00  0.00     0.241 C 
ATOM     19  O   ACE d           7.206  -7.540   1.448  0.00  0.00    -0.271 OA
ATOM     20  H22 ACE d           9.621  -5.657   2.061  0.00  0.00     0.163 HD
BRANCH  18  21
ATOM     21  CA  ACE d           8.423  -6.165  -0.076  0.00  0.00     0.093 C 
ATOM     22  H5  ACE d           8.073  -5.124  -0.127  0.00  0.00     0.088 H 
BRANCH  21  23
ATOM     23  N   ACE d           9.894  -6.223  -0.293  0.00  0.00    -0.348 N 
ATOM     24  C   ACE d          10.539  -5.208  -0.896  0.00  0.00     0.214 C 
ATOM     25  O   ACE d           9.990  -4.163  -1.265  0.00  0.00    -0.274 OA
ATOM     26  H4  ACE d          10.408  -7.025   0.012  0.00  0.00     0.163 HD
BRANCH  24  27
ATOM     27  CH3 ACE d          12.064  -5.391  -1.103  0.00  0.00    -0.003 C 
ATOM     28  H1  ACE d          12.441  -6.148  -0.400  0.00  0.00     0.040 H 
ATOM     29  H2  ACE d          12.575  -4.435  -0.921  0.00  0.00     0.040 H 
ATOM     30  H3  ACE d          12.256  -5.720  -2.134  0.00  0.00     0.040 H 
ENDBRANCH  24  27
ENDBRANCH  21  23
BRANCH  21  31
ATOM     31  CB  ACE d           7.719  -7.019  -1.190  0.00  0.00    -0.014 C 
ATOM     32  H6  ACE d           7.331  -6.347  -1.970  0.00  0.00     0.043 H 
ATOM     33  H7  ACE d           6.887  -7.582  -0.743  0.00  0.00     0.043 H 
BRANCH  31  34
ATOM     34  CG  ACE d           8.710  -7.996  -1.816  0.00  0.00    -0.056 A 
ATOM     35  CD1 ACE d           9.078  -9.106  -1.080  0.00  0.00    -0.074 A 
ATOM     36  CE1 ACE d          10.053  -9.955  -1.604  0.00  0.00    -0.050 A 
ATOM     37  H8  ACE d           8.621  -9.312  -0.119  0.00  0.00     0.084 H 
ATOM     38  CZ  ACE d          10.618  -9.700  -2.873  0.00  0.00     0.082 A 
ATOM     39  H10 ACE d          10.379 -10.817  -1.034  0.00  0.00     0.087 H 
ATOM     40  CE2 ACE d          10.261  -8.583  -3.615  0.00  0.00    -0.050 A 
ATOM     41  CD2 ACE d           9.258  -7.727  -3.101  0.00  0.00    -0.074 A 
ATOM     42  H11 ACE d          10.739  -8.372  -4.565  0.00  0.00     0.087 H 
ATOM     43  H9  ACE d           8.912  -6.877  -3.679  0.00  0.00     0.084 H 
BRANCH  38  44
ATOM     44  OH  ACE d          11.560 -10.639  -3.229  0.00  0.00    -0.240 OA
BRANCH  44  45
ATOM     45  P   ACE d          11.511 -11.495  -4.642  0.00  0.00     0.427 P 
ATOM     46  O1P ACE d          10.197 -12.352  -4.468  0.00  0.00    -0.617 OA
ATOM     47  O2P ACE d          11.391 -10.623  -5.817  0.00  0.00    -0.617 OA
ATOM     48  O3P ACE d          12.673 -12.411  -4.632  0.00  0.00    -0.617 OA
ENDBRANCH  44  45
ENDBRANCH  38  44
ENDBRANCH  31  34
ENDBRANCH  21  31
ENDBRANCH  18  21
ENDBRANCH   6  17
BRANCH   6  49
ATOM     49  C   ACE d           7.502  -6.240   4.286  0.00  0.00     0.246 C 
ATOM     50  O   ACE d           7.303  -5.002   4.482  0.00  0.00    -0.271 OA
ATOM     51  N   ACE d           6.539  -7.167   4.482  0.00  0.00    -0.345 N 
ATOM     52  H23 ACE d           6.729  -8.125   4.268  0.00  0.00     0.163 HD
BRANCH  51  53
ATOM     53  CA  ACE d           5.216  -6.792   5.003  0.00  0.00     0.097 C 
ATOM     54  H24 ACE d           5.187  -5.695   5.074  0.00  0.00     0.088 H 
BRANCH  53  55
ATOM     55  C   ACE d           4.961  -7.329   6.408  0.00  0.00     0.238 C 
ATOM     56  O   ACE d           5.449  -6.763   7.370  0.00  0.00    -0.271 OA
ATOM     57  N   ACE d           4.320  -8.474   6.530  0.00  0.00    -0.368 N 
ATOM     58  H29 ACE d           4.138  -8.852   7.438  0.00  0.00     0.159 HD
ATOM     59  H30 ACE d           4.015  -8.966   5.714  0.00  0.00     0.159 HD
ENDBRANCH  53  55
BRANCH  53  60
ATOM     60  CB  ACE d           4.123  -7.221   3.983  0.00  0.00     0.036 C 
ATOM     61  H25 ACE d           3.855  -6.354   3.362  0.00  0.00     0.051 H 
ATOM     62  H26 ACE d           3.235  -7.565   4.534  0.00  0.00     0.051 H 
BRANCH  60  63
ATOM     63  CG  ACE d           4.621  -8.369   3.060  0.00  0.00     0.217 C 
ATOM     64  OD1 ACE d           5.131  -9.397   3.564  0.00  0.00    -0.274 OA
ATOM     65  ND2 ACE d           4.458  -8.160   1.762  0.00  0.00    -0.370 N 
ATOM     66  H27 ACE d           4.753  -8.851   1.103  0.00  0.00     0.159 HD
ATOM     67  H28 ACE d           4.039  -7.310   1.442  0.00  0.00     0.159 HD
ENDBRANCH  60  63
ENDBRANCH  53  60
ENDBRANCH  51  53
ENDBRANCH   6  49
TORSDOF 13
ENDMDL
MODEL 2
REMARK VINA RESULT:      -5.2      3.350      8.150
REMARK  13 active torsions:
REMARK  status: ('A' for Active; 'I' for Inactive)
REMARK    1  A    between atoms: C_1  and  CH3_3 
REMARK       I    between atoms: N_4  and  C_1 
REMARK    2  A    between atoms: CA_5  and  N_4 
REMARK    3  A    between atoms: C_6  and  CA_5 
REMARK    4  A    between atoms: CA_5  and  CB_8 
REMARK       I    between atoms: N_26  and  C_6 
REMARK    5  A    between atoms: CB_8  and  CG_9 
REMARK    6  A    between atoms: CZ_14  and  OH_15 
REMARK    7  A    between atoms: OH_15  and  P_16 
REMARK    8  A    between atoms: CA_28  and  N_26 
REMARK    9  A    between atoms: C_27  and  CA_28 
REMARK       I    between atoms: C_27  and  N_29 
REMARK   10  A    between atoms: N_29  and  CA_30 
REMARK   11  A    between atoms: CA_30  and  C_31 
REMARK   12  A    between atoms: CA_30  and  CB_33 
REMARK       I    between atoms: C_31  and  N_37 
REMARK   13  A    between atoms: CB_33  and  CG_34 
REMARK       I    between atoms: CG_34  and  ND2_36 
ROOT
ATOM      1  CD  ACE d          12.659  -4.172  -2.843  0.00  0.00    -0.065 C 
ATOM      2  CG  ACE d          12.297  -4.990  -1.575  0.00  0.00    -0.062 C 
ATOM      3  CE  ACE d          11.454  -4.162  -3.802  0.00  0.00    -0.062 C 
ATOM      4  CB  ACE d          11.876  -6.461  -1.904  0.00  0.00    -0.033 C 
ATOM      5  CH  ACE d          10.974  -5.595  -4.101  0.00  0.00    -0.033 C 
ATOM      6  CA  ACE d          10.685  -6.490  -2.879  0.00  0.00     0.114 C 
ATOM      7  H12 ACE d          13.524  -4.633  -3.343  0.00  0.00     0.033 H 
ATOM      8  H13 ACE d          12.909  -3.140  -2.556  0.00  0.00     0.033 H 
ATOM      9  H14 ACE d          11.462  -4.492  -1.061  0.00  0.00     0.033 H 
ATOM     10  H15 ACE d          13.173  -5.016  -0.910  0.00  0.00     0.033 H 
ATOM     11  H16 ACE d          11.748  -3.678  -4.745  0.00  0.00     0.033 H 
ATOM     12  H17 ACE d          10.631  -3.597  -3.340  0.00  0.00     0.033 H 
ATOM     13  H18 ACE d          11.590  -6.970  -0.972  0.00  0.00     0.037 H 
ATOM     14  H19 ACE d          12.728  -6.984  -2.362  0.00  0.00     0.037 H 
ATOM     15  H20 ACE d          11.751  -6.090  -4.701  0.00  0.00     0.037 H 
ATOM     16  H21 ACE d          10.048  -5.522  -4.689  0.00  0.00     0.037 H 
ENDROOT
BRANCH   6  17
ATOM     17  N   ACE d           9.478  -5.939  -2.251  0.00  0.00    -0.341 N 
ATOM     18  C   ACE d           8.818  -6.549  -1.275  0.00  0.00     0.241 C 
ATOM     19  O   ACE d           9.160  -7.610  -0.775  0.00  0.00    -0.271 OA
ATOM     20  H22 ACE d           9.136  -5.057  -2.575  0.00  0.00     0.163 HD
BRANCH  18  21
ATOM     21  CA  ACE d           7.565  -5.834  -0.789  0.00  0.00     0.093 C 
ATOM     22  H5  ACE d           7.028  -5.398  -1.643  0.00  0.00     0.088 H 
BRANCH  21  23
ATOM     23  N   ACE d           6.704  -6.828  -0.094  0.00  0.00    -0.348 N 
ATOM     24  C   ACE d           5.618  -7.339  -0.702  0.00  0.00     0.214 C 
ATOM     25  O   ACE d           5.284  -7.067  -1.861  0.00  0.00    -0.274 OA
ATOM     26  H4  ACE d           6.935  -7.120   0.835  0.00  0.00     0.163 HD
BRANCH  24  27
ATOM     27  CH3 ACE d           4.774  -8.338   0.129  0.00  0.00    -0.003 C 
ATOM     28  H1  ACE d           4.574  -9.237  -0.472  0.00  0.00     0.040 H 
ATOM     29  H2  ACE d           3.821  -7.866   0.411  0.00  0.00     0.040 H 
ATOM     30  H3  ACE d           5.327  -8.619   1.037  0.00  0.00     0.040 H 
ENDBRANCH  24  27
ENDBRANCH  21  23
BRANCH  21  31
ATOM     31  CB  ACE d           7.949  -4.704   0.232  0.00  0.00    -0.014 C 
ATOM     32  H6  ACE d           7.047  -4.134   0.498  0.00  0.00     0.043 H 
ATOM     33  H7  ACE d           8.685  -4.032  -0.233  0.00  0.00     0.043 H 
BRANCH  31  34
ATOM     34  CG  ACE d           8.550  -5.312   1.495  0.00  0.00    -0.056 A 
ATOM     35  CD1 ACE d           9.926  -5.294   1.632  0.00  0.00    -0.074 A 
ATOM     36  CE1 ACE d          10.490  -5.930   2.738  0.00  0.00    -0.050 A 
ATOM     37  H8  ACE d          10.550  -4.798   0.899  0.00  0.00     0.084 H 
ATOM     38  CZ  ACE d           9.667  -6.543   3.708  0.00  0.00     0.082 A 
ATOM     39  H10 ACE d          11.567  -5.954   2.854  0.00  0.00     0.087 H 
ATOM     40  CE2 ACE d           8.286  -6.574   3.575  0.00  0.00    -0.050 A 
ATOM     41  CD2 ACE d           7.703  -5.914   2.467  0.00  0.00    -0.074 A 
ATOM     42  H11 ACE d           7.670  -7.092   4.302  0.00  0.00     0.087 H 
ATOM     43  H9  ACE d           6.625  -5.868   2.360  0.00  0.00     0.084 H 
BRANCH  38  44
ATOM     44  OH  ACE d          10.393  -7.119   4.727  0.00  0.00    -0.240 OA
BRANCH  44  45
ATOM     45  P   ACE d          11.092  -8.613   4.622  0.00  0.00     0.427 P 
ATOM     46  O1P ACE d          12.622  -8.257   4.472  0.00  0.00    -0.617 OA
ATOM     47  O2P ACE d          10.879  -9.413   5.835  0.00  0.00    -0.617 OA
ATOM     48  O3P ACE d          10.625  -9.220   3.356  0.00  0.00    -0.617 OA
ENDBRANCH  44  45
ENDBRANCH  38  44
ENDBRANCH  31  34
ENDBRANCH  21  31
ENDBRANCH  18  21
ENDBRANCH   6  17
BRANCH   6  49
ATOM     49  C   ACE d          10.425  -7.985  -3.231  0.00  0.00     0.246 C 
ATOM     50  O   ACE d           9.614  -8.357  -4.133  0.00  0.00    -0.271 OA
ATOM     51  N   ACE d          11.237  -8.850  -2.585  0.00  0.00    -0.345 N 
ATOM     52  H23 ACE d          11.894  -8.502  -1.917  0.00  0.00     0.163 HD
BRANCH  51  53
ATOM     53  CA  ACE d          11.173 -10.296  -2.849  0.00  0.00     0.097 C 
ATOM     54  H24 ACE d          10.624 -10.436  -3.792  0.00  0.00     0.088 H 
BRANCH  53  55
ATOM     55  C   ACE d          10.401 -11.058  -1.776  0.00  0.00     0.238 C 
ATOM     56  O   ACE d          10.426 -12.275  -1.763  0.00  0.00    -0.271 OA
ATOM     57  N   ACE d           9.620 -10.371  -0.966  0.00  0.00    -0.368 N 
ATOM     58  H29 ACE d           9.101 -10.843  -0.253  0.00  0.00     0.159 HD
ATOM     59  H30 ACE d           9.546  -9.379  -1.065  0.00  0.00     0.159 HD
ENDBRANCH  53  55
BRANCH  53  60
ATOM     60  CB  ACE d          12.613 -10.842  -3.062  0.00  0.00     0.036 C 
ATOM     61  H25 ACE d          12.693 -11.831  -2.590  0.00  0.00     0.051 H 
ATOM     62  H26 ACE d          13.330 -10.152  -2.593  0.00  0.00     0.051 H 
BRANCH  60  63
ATOM     63  CG  ACE d          12.956 -10.976  -4.574  0.00  0.00     0.217 C 
ATOM     64  OD1 ACE d          12.662 -12.028  -5.188  0.00  0.00    -0.274 OA
ATOM     65  ND2 ACE d          13.552  -9.922  -5.112  0.00  0.00    -0.370 N 
ATOM     66  H27 ACE d          13.805  -9.931  -6.080  0.00  0.00     0.159 HD
ATOM     67  H28 ACE d          13.749  -9.119  -4.550  0.00  0.00     0.159 HD
ENDBRANCH  60  63
ENDBRANCH  53  60
ENDBRANCH  51  53
ENDBRANCH   6  49
TORSDOF 13
ENDMDL
MODEL 3
REMARK VINA RESULT:      -4.8      3.832      7.427
REMARK  13 active torsions:
REMARK  status: ('A' for Active; 'I' for Inactive)
REMARK    1  A    between atoms: C_1  and  CH3_3 
REMARK       I    between atoms: N_4  and  C_1 
REMARK    2  A    between atoms: CA_5  and  N_4 
REMARK    3  A    between atoms: C_6  and  CA_5 
REMARK    4  A    between atoms: CA_5  and  CB_8 
REMARK       I    between atoms: N_26  and  C_6 
REMARK    5  A    between atoms: CB_8  and  CG_9 
REMARK    6  A    between atoms: CZ_14  and  OH_15 
REMARK    7  A    between atoms: OH_15  and  P_16 
REMARK    8  A    between atoms: CA_28  and  N_26 
REMARK    9  A    between atoms: C_27  and  CA_28 
REMARK       I    between atoms: C_27  and  N_29 
REMARK   10  A    between atoms: N_29  and  CA_30 
REMARK   11  A    between atoms: CA_30  and  C_31 
REMARK   12  A    between atoms: CA_30  and  CB_33 
REMARK       I    between atoms: C_31  and  N_37 
REMARK   13  A    between atoms: CB_33  and  CG_34 
REMARK       I    between atoms: CG_34  and  ND2_36 
ROOT
ATOM      1  CD  ACE d          10.699  -9.746  -2.890  0.00  0.00    -0.065 C 
ATOM      2  CG  ACE d          10.591  -8.203  -3.007  0.00  0.00    -0.062 C 
ATOM      3  CE  ACE d           9.775 -10.236  -1.759  0.00  0.00    -0.062 C 
ATOM      4  CB  ACE d          10.957  -7.469  -1.674  0.00  0.00    -0.033 C 
ATOM      5  CH  ACE d          10.068  -9.489  -0.444  0.00  0.00    -0.033 C 
ATOM      6  CA  ACE d          10.066  -7.950  -0.515  0.00  0.00     0.114 C 
ATOM      7  H12 ACE d          11.739 -10.026  -2.663  0.00  0.00     0.033 H 
ATOM      8  H13 ACE d          10.395 -10.210  -3.840  0.00  0.00     0.033 H 
ATOM      9  H14 ACE d           9.558  -7.942  -3.280  0.00  0.00     0.033 H 
ATOM     10  H15 ACE d          11.276  -7.861  -3.797  0.00  0.00     0.033 H 
ATOM     11  H16 ACE d           9.935 -11.313  -1.604  0.00  0.00     0.033 H 
ATOM     12  H17 ACE d           8.728 -10.058  -2.047  0.00  0.00     0.033 H 
ATOM     13  H18 ACE d          10.818  -6.386  -1.810  0.00  0.00     0.037 H 
ATOM     14  H19 ACE d          12.010  -7.675  -1.429  0.00  0.00     0.037 H 
ATOM     15  H20 ACE d          11.061  -9.806  -0.093  0.00  0.00     0.037 H 
ATOM     16  H21 ACE d           9.307  -9.792   0.290  0.00  0.00     0.037 H 
ENDROOT
BRANCH   6  17
ATOM     17  N   ACE d           8.668  -7.557  -0.729  0.00  0.00    -0.341 N 
ATOM     18  C   ACE d           8.306  -6.371  -1.201  0.00  0.00     0.241 C 
ATOM     19  O   ACE d           9.092  -5.497  -1.537  0.00  0.00    -0.271 OA
ATOM     20  H22 ACE d           7.951  -8.217  -0.508  0.00  0.00     0.163 HD
BRANCH  18  21
ATOM     21  CA  ACE d           6.805  -6.142  -1.308  0.00  0.00     0.093 C 
ATOM     22  H5  ACE d           6.549  -5.802  -2.321  0.00  0.00     0.088 H 
BRANCH  21  23
ATOM     23  N   ACE d           6.117  -7.426  -1.007  0.00  0.00    -0.348 N 
ATOM     24  C   ACE d           5.064  -7.827  -1.741  0.00  0.00     0.214 C 
ATOM     25  O   ACE d           4.625  -7.207  -2.717  0.00  0.00    -0.274 OA
ATOM     26  H4  ACE d           6.441  -7.996  -0.252  0.00  0.00     0.163 HD
BRANCH  24  27
ATOM     27  CH3 ACE d           4.402  -9.163  -1.317  0.00  0.00    -0.003 C 
ATOM     28  H1  ACE d           3.364  -8.975  -1.007  0.00  0.00     0.040 H 
ATOM     29  H2  ACE d           4.962  -9.599  -0.477  0.00  0.00     0.040 H 
ATOM     30  H3  ACE d           4.411  -9.862  -2.165  0.00  0.00     0.040 H 
ENDBRANCH  24  27
ENDBRANCH  21  23
BRANCH  21  31
ATOM     31  CB  ACE d           6.346  -5.070  -0.255  0.00  0.00    -0.014 C 
ATOM     32  H6  ACE d           5.592  -4.413  -0.713  0.00  0.00     0.043 H 
ATOM     33  H7  ACE d           7.215  -4.472   0.055  0.00  0.00     0.043 H 
BRANCH  31  34
ATOM     34  CG  ACE d           5.743  -5.752   0.968  0.00  0.00    -0.056 A 
ATOM     35  CD1 ACE d           4.403  -5.540   1.234  0.00  0.00    -0.074 A 
ATOM     36  CE1 ACE d           3.865  -6.084   2.401  0.00  0.00    -0.050 A 
ATOM     37  H8  ACE d           3.785  -4.966   0.553  0.00  0.00     0.084 H 
ATOM     38  CZ  ACE d           4.667  -6.861   3.265  0.00  0.00     0.082 A 
ATOM     39  H10 ACE d           2.823  -5.908   2.646  0.00  0.00     0.087 H 
ATOM     40  CE2 ACE d           6.014  -7.072   3.011  0.00  0.00    -0.050 A 
ATOM     41  CD2 ACE d           6.565  -6.542   1.820  0.00  0.00    -0.074 A 
ATOM     42  H11 ACE d           6.630  -7.629   3.709  0.00  0.00     0.087 H 
ATOM     43  H9  ACE d           7.599  -6.736   1.559  0.00  0.00     0.084 H 
BRANCH  38  44
ATOM     44  OH  ACE d           3.971  -7.315   4.364  0.00  0.00    -0.240 OA
BRANCH  44  45
ATOM     45  P   ACE d           4.660  -7.563   5.845  0.00  0.00     0.427 P 
ATOM     46  O1P ACE d           3.755  -8.706   6.448  0.00  0.00    -0.617 OA
ATOM     47  O2P ACE d           6.050  -8.023   5.742  0.00  0.00    -0.617 OA
ATOM     48  O3P ACE d           4.445  -6.329   6.634  0.00  0.00    -0.617 OA
ENDBRANCH  44  45
ENDBRANCH  38  44
ENDBRANCH  31  34
ENDBRANCH  21  31
ENDBRANCH  18  21
ENDBRANCH   6  17
BRANCH   6  49
ATOM     49  C   ACE d          10.588  -7.251   0.776  0.00  0.00     0.246 C 
ATOM     50  O   ACE d          11.005  -6.053   0.800  0.00  0.00    -0.271 OA
ATOM     51  N   ACE d          10.434  -7.987   1.899  0.00  0.00    -0.345 N 
ATOM     52  H23 ACE d          10.056  -8.911   1.833  0.00  0.00     0.163 HD
BRANCH  51  53
ATOM     53  CA  ACE d          10.813  -7.454   3.216  0.00  0.00     0.097 C 
ATOM     54  H24 ACE d          11.491  -6.605   3.046  0.00  0.00     0.088 H 
BRANCH  53  55
ATOM     55  C   ACE d          11.578  -8.464   4.065  0.00  0.00     0.238 C 
ATOM     56  O   ACE d          11.726  -9.604   3.661  0.00  0.00    -0.271 OA
ATOM     57  N   ACE d          11.947  -8.105   5.277  0.00  0.00    -0.368 N 
ATOM     58  H29 ACE d          12.450  -8.745   5.858  0.00  0.00     0.159 HD
ATOM     59  H30 ACE d          11.725  -7.191   5.618  0.00  0.00     0.159 HD
ENDBRANCH  53  55
BRANCH  53  60
ATOM     60  CB  ACE d           9.546  -6.901   3.928  0.00  0.00     0.036 C 
ATOM     61  H25 ACE d           9.300  -7.554   4.778  0.00  0.00     0.051 H 
ATOM     62  H26 ACE d           8.708  -6.897   3.215  0.00  0.00     0.051 H 
BRANCH  60  63
ATOM     63  CG  ACE d           9.769  -5.453   4.452  0.00  0.00     0.217 C 
ATOM     64  OD1 ACE d          10.934  -5.003   4.559  0.00  0.00    -0.274 OA
ATOM     65  ND2 ACE d           8.664  -4.786   4.751  0.00  0.00    -0.370 N 
ATOM     66  H27 ACE d           8.724  -3.849   5.095  0.00  0.00     0.159 HD
ATOM     67  H28 ACE d           7.771  -5.220   4.634  0.00  0.00     0.159 HD
ENDBRANCH  60  63
ENDBRANCH  53  60
ENDBRANCH  51  53
ENDBRANCH   6  49
TORSDOF 13
ENDMDL
MODEL 4
REMARK VINA RESULT:      -4.7      2.621      3.937
REMARK  13 active torsions:
REMARK  status: ('A' for Active; 'I' for Inactive)
REMARK    1  A    between atoms: C_1  and  CH3_3 
REMARK       I    between atoms: N_4  and  C_1 
REMARK    2  A    between atoms: CA_5  and  N_4 
REMARK    3  A    between atoms: C_6  and  CA_5 
REMARK    4  A    between atoms: CA_5  and  CB_8 
REMARK       I    between atoms: N_26  and  C_6 
REMARK    5  A    between atoms: CB_8  and  CG_9 
REMARK    6  A    between atoms: CZ_14  and  OH_15 
REMARK    7  A    between atoms: OH_15  and  P_16 
REMARK    8  A    between atoms: CA_28  and  N_26 
REMARK    9  A    between atoms: C_27  and  CA_28 
REMARK       I    between atoms: C_27  and  N_29 
REMARK   10  A    between atoms: N_29  and  CA_30 
REMARK   11  A    between atoms: CA_30  and  C_31 
REMARK   12  A    between atoms: CA_30  and  CB_33 
REMARK       I    between atoms: C_31  and  N_37 
REMARK   13  A    between atoms: CB_33  and  CG_34 
REMARK       I    between atoms: CG_34  and  ND2_36 
ROOT
ATOM      1  CD  ACE d          11.766  -8.640   4.921  0.00  0.00    -0.065 C 
ATOM      2  CG  ACE d          11.989  -7.143   4.576  0.00  0.00    -0.062 C 
ATOM      3  CE  ACE d          10.627  -9.198   4.047  0.00  0.00    -0.062 C 
ATOM      4  CB  ACE d          10.701  -6.279   4.778  0.00  0.00    -0.033 C 
ATOM      5  CH  ACE d           9.359  -8.333   4.175  0.00  0.00    -0.033 C 
ATOM      6  CA  ACE d           9.533  -6.821   3.934  0.00  0.00     0.114 C 
ATOM      7  H12 ACE d          11.496  -8.736   5.983  0.00  0.00     0.033 H 
ATOM      8  H13 ACE d          12.690  -9.204   4.725  0.00  0.00     0.033 H 
ATOM      9  H14 ACE d          12.303  -7.067   3.525  0.00  0.00     0.033 H 
ATOM     10  H15 ACE d          12.784  -6.747   5.225  0.00  0.00     0.033 H 
ATOM     11  H16 ACE d          10.396 -10.224   4.369  0.00  0.00     0.033 H 
ATOM     12  H17 ACE d          10.951  -9.207   2.996  0.00  0.00     0.033 H 
ATOM     13  H18 ACE d          10.913  -5.242   4.475  0.00  0.00     0.037 H 
ATOM     14  H19 ACE d          10.417  -6.299   5.841  0.00  0.00     0.037 H 
ATOM     15  H20 ACE d           8.964  -8.466   5.193  0.00  0.00     0.037 H 
ATOM     16  H21 ACE d           8.624  -8.705   3.446  0.00  0.00     0.037 H 
ENDROOT
BRANCH   6  17
ATOM     17  N   ACE d           9.806  -6.668   2.500  0.00  0.00    -0.341 N 
ATOM     18  C   ACE d          10.367  -5.588   1.973  0.00  0.00     0.241 C 
ATOM     19  O   ACE d          10.744  -4.624   2.623  0.00  0.00    -0.271 OA
ATOM     20  H22 ACE d           9.557  -7.419   1.888  0.00  0.00     0.163 HD
BRANCH  18  21
ATOM     21  CA  ACE d          10.523  -5.606   0.459  0.00  0.00     0.093 C 
ATOM     22  H5  ACE d          11.567  -5.392   0.188  0.00  0.00     0.088 H 
BRANCH  21  23
ATOM     23  N   ACE d          10.132  -6.955  -0.031  0.00  0.00    -0.348 N 
ATOM     24  C   ACE d          10.696  -7.474  -1.136  0.00  0.00     0.214 C 
ATOM     25  O   ACE d          11.586  -6.912  -1.786  0.00  0.00    -0.274 OA
ATOM     26  H4  ACE d           9.441  -7.481   0.466  0.00  0.00     0.163 HD
BRANCH  24  27
ATOM     27  CH3 ACE d          10.186  -8.869  -1.576  0.00  0.00    -0.003 C 
ATOM     28  H1  ACE d          10.353  -8.997  -2.656  0.00  0.00     0.040 H 
ATOM     29  H2  ACE d           9.112  -8.952  -1.359  0.00  0.00     0.040 H 
ATOM     30  H3  ACE d          10.733  -9.649  -1.026  0.00  0.00     0.040 H 
ENDBRANCH  24  27
ENDBRANCH  21  23
BRANCH  21  31
ATOM     31  CB  ACE d           9.574  -4.541  -0.196  0.00  0.00    -0.014 C 
ATOM     32  H6  ACE d          10.047  -4.144  -1.106  0.00  0.00     0.043 H 
ATOM     33  H7  ACE d           9.404  -3.720   0.517  0.00  0.00     0.043 H 
BRANCH  31  34
ATOM     34  CG  ACE d           8.235  -5.175  -0.560  0.00  0.00    -0.056 A 
ATOM     35  CD1 ACE d           7.385  -5.531   0.470  0.00  0.00    -0.074 A 
ATOM     36  CE1 ACE d           6.200  -6.197   0.151  0.00  0.00    -0.050 A 
ATOM     37  H8  ACE d           7.631  -5.299   1.499  0.00  0.00     0.084 H 
ATOM     38  CZ  ACE d           5.869  -6.463  -1.195  0.00  0.00     0.082 A 
ATOM     39  H10 ACE d           5.530  -6.511   0.942  0.00  0.00     0.087 H 
ATOM     40  CE2 ACE d           6.720  -6.117  -2.235  0.00  0.00    -0.050 A 
ATOM     41  CD2 ACE d           7.914  -5.424  -1.924  0.00  0.00    -0.074 A 
ATOM     42  H11 ACE d           6.476  -6.372  -3.260  0.00  0.00     0.087 H 
ATOM     43  H9  ACE d           8.575  -5.087  -2.714  0.00  0.00     0.084 H 
BRANCH  38  44
ATOM     44  OH  ACE d           4.667  -7.124  -1.322  0.00  0.00    -0.240 OA
BRANCH  44  45
ATOM     45  P   ACE d           4.523  -8.770  -1.311  0.00  0.00     0.427 P 
ATOM     46  O1P ACE d           6.005  -9.238  -1.584  0.00  0.00    -0.617 OA
ATOM     47  O2P ACE d           4.065  -9.280  -0.013  0.00  0.00    -0.617 OA
ATOM     48  O3P ACE d           3.692  -9.138  -2.479  0.00  0.00    -0.617 OA
ENDBRANCH  44  45
ENDBRANCH  38  44
ENDBRANCH  31  34
ENDBRANCH  21  31
ENDBRANCH  18  21
ENDBRANCH   6  17
BRANCH   6  49
ATOM     49  C   ACE d           8.280  -5.969   4.296  0.00  0.00     0.246 C 
ATOM     50  O   ACE d           8.277  -4.700   4.299  0.00  0.00    -0.271 OA
ATOM     51  N   ACE d           7.156  -6.696   4.478  0.00  0.00    -0.345 N 
ATOM     52  H23 ACE d           7.201  -7.693   4.419  0.00  0.00     0.163 HD
BRANCH  51  53
ATOM     53  CA  ACE d           5.867  -6.046   4.761  0.00  0.00     0.097 C 
ATOM     54  H24 ACE d           6.045  -4.961   4.799  0.00  0.00     0.088 H 
BRANCH  53  55
ATOM     55  C   ACE d           5.290  -6.443   6.116  0.00  0.00     0.238 C 
ATOM     56  O   ACE d           4.940  -5.580   6.901  0.00  0.00    -0.271 OA
ATOM     57  N   ACE d           5.309  -7.718   6.451  0.00  0.00    -0.368 N 
ATOM     58  H29 ACE d           4.938  -8.009   7.333  0.00  0.00     0.159 HD
ATOM     59  H30 ACE d           5.694  -8.394   5.823  0.00  0.00     0.159 HD
ENDBRANCH  53  55
BRANCH  53  60
ATOM     60  CB  ACE d           4.888  -6.316   3.584  0.00  0.00     0.036 C 
ATOM     61  H25 ACE d           5.176  -5.688   2.728  0.00  0.00     0.051 H 
ATOM     62  H26 ACE d           3.867  -6.058   3.901  0.00  0.00     0.051 H 
BRANCH  60  63
ATOM     63  CG  ACE d           4.918  -7.809   3.145  0.00  0.00     0.217 C 
ATOM     64  OD1 ACE d           6.007  -8.342   2.827  0.00  0.00    -0.274 OA
ATOM     65  ND2 ACE d           3.743  -8.420   3.146  0.00  0.00    -0.370 N 
ATOM     66  H27 ACE d           3.679  -9.381   2.876  0.00  0.00     0.159 HD
ATOM     67  H28 ACE d           2.920  -7.920   3.416  0.00  0.00     0.159 HD
ENDBRANCH  60  63
ENDBRANCH  53  60
ENDBRANCH  51  53
ENDBRANCH   6  49
TORSDOF 13
ENDMDL
MODEL 5
REMARK VINA RESULT:      -4.7      3.952      7.646
REMARK  13 active torsions:
REMARK  status: ('A' for Active; 'I' for Inactive)
REMARK    1  A    between atoms: C_1  and  CH3_3 
REMARK       I    between atoms: N_4  and  C_1 
REMARK    2  A    between atoms: CA_5  and  N_4 
REMARK    3  A    between atoms: C_6  and  CA_5 
REMARK    4  A    between atoms: CA_5  and  CB_8 
REMARK       I    between atoms: N_26  and  C_6 
REMARK    5  A    between atoms: CB_8  and  CG_9 
REMARK    6  A    between atoms: CZ_14  and  OH_15 
REMARK    7  A    between atoms: OH_15  and  P_16 
REMARK    8  A    between atoms: CA_28  and  N_26 
REMARK    9  A    between atoms: C_27  and  CA_28 
REMARK       I    between atoms: C_27  and  N_29 
REMARK   10  A    between atoms: N_29  and  CA_30 
REMARK   11  A    between atoms: CA_30  and  C_31 
REMARK   12  A    between atoms: CA_30  and  CB_33 
REMARK       I    between atoms: C_31  and  N_37 
REMARK   13  A    between atoms: CB_33  and  CG_34 
REMARK       I    between atoms: CG_34  and  ND2_36 
ROOT
ATOM      1  CD  ACE d          10.992  -8.434  -2.356  0.00  0.00    -0.065 C 
ATOM      2  CG  ACE d          10.670  -6.977  -1.928  0.00  0.00    -0.062 C 
ATOM      3  CE  ACE d           9.896  -9.374  -1.820  0.00  0.00    -0.062 C 
ATOM      4  CB  ACE d          10.552  -6.815  -0.377  0.00  0.00    -0.033 C 
ATOM      5  CH  ACE d           9.710  -9.196  -0.301  0.00  0.00    -0.033 C 
ATOM      6  CA  ACE d           9.478  -7.757   0.198  0.00  0.00     0.114 C 
ATOM      7  H12 ACE d          11.967  -8.731  -1.942  0.00  0.00     0.033 H 
ATOM      8  H13 ACE d          11.026  -8.496  -3.454  0.00  0.00     0.033 H 
ATOM      9  H14 ACE d           9.717  -6.678  -2.388  0.00  0.00     0.033 H 
ATOM     10  H15 ACE d          11.474  -6.318  -2.291  0.00  0.00     0.033 H 
ATOM     11  H16 ACE d          10.181 -10.416  -2.028  0.00  0.00     0.033 H 
ATOM     12  H17 ACE d           8.946  -9.145  -2.328  0.00  0.00     0.033 H 
ATOM     13  H18 ACE d          10.280  -5.775  -0.144  0.00  0.00     0.037 H 
ATOM     14  H19 ACE d          11.522  -7.052   0.084  0.00  0.00     0.037 H 
ATOM     15  H20 ACE d          10.614  -9.580   0.193  0.00  0.00     0.037 H 
ATOM     16  H21 ACE d           8.842  -9.800   0.003  0.00  0.00     0.037 H 
ENDROOT
BRANCH   6  17
ATOM     17  N   ACE d           8.141  -7.376  -0.273  0.00  0.00    -0.341 N 
ATOM     18  C   ACE d           7.586  -6.197  -0.026  0.00  0.00     0.241 C 
ATOM     19  O   ACE d           8.138  -5.294   0.586  0.00  0.00    -0.271 OA
ATOM     20  H22 ACE d           7.620  -8.042  -0.808  0.00  0.00     0.163 HD
BRANCH  18  21
ATOM     21  CA  ACE d           6.174  -6.014  -0.562  0.00  0.00     0.093 C 
ATOM     22  H5  ACE d           6.208  -5.791  -1.639  0.00  0.00     0.088 H 
BRANCH  21  23
ATOM     23  N   ACE d           5.420  -7.274  -0.322  0.00  0.00    -0.348 N 
ATOM     24  C   ACE d           4.778  -7.892  -1.330  0.00  0.00     0.214 C 
ATOM     25  O   ACE d           4.798  -7.502  -2.504  0.00  0.00    -0.274 OA
ATOM     26  H4  ACE d           5.390  -7.665   0.598  0.00  0.00     0.163 HD
BRANCH  24  27
ATOM     27  CH3 ACE d           3.995  -9.176  -0.959  0.00  0.00    -0.003 C 
ATOM     28  H1  ACE d           4.607 -10.060  -1.192  0.00  0.00     0.040 H 
ATOM     29  H2  ACE d           3.060  -9.215  -1.537  0.00  0.00     0.040 H 
ATOM     30  H3  ACE d           3.761  -9.165   0.116  0.00  0.00     0.040 H 
ENDBRANCH  24  27
ENDBRANCH  21  23
BRANCH  21  31
ATOM     31  CB  ACE d           5.453  -4.846   0.200  0.00  0.00    -0.014 C 
ATOM     32  H6  ACE d           4.617  -4.475  -0.411  0.00  0.00     0.043 H 
ATOM     33  H7  ACE d           6.170  -4.031   0.376  0.00  0.00     0.043 H 
BRANCH  31  34
ATOM     34  CG  ACE d           4.915  -5.340   1.540  0.00  0.00    -0.056 A 
ATOM     35  CD1 ACE d           5.288  -4.655   2.681  0.00  0.00    -0.074 A 
ATOM     36  CE1 ACE d           4.877  -5.153   3.917  0.00  0.00    -0.050 A 
ATOM     37  H8  ACE d           5.884  -3.752   2.617  0.00  0.00     0.084 H 
ATOM     38  CZ  ACE d           4.070  -6.309   3.991  0.00  0.00     0.082 A 
ATOM     39  H10 ACE d           5.180  -4.650   4.828  0.00  0.00     0.087 H 
ATOM     40  CE2 ACE d           3.697  -7.009   2.852  0.00  0.00    -0.050 A 
ATOM     41  CD2 ACE d           4.091  -6.500   1.591  0.00  0.00    -0.074 A 
ATOM     42  H11 ACE d           3.119  -7.923   2.926  0.00  0.00     0.087 H 
ATOM     43  H9  ACE d           3.771  -6.986   0.678  0.00  0.00     0.084 H 
BRANCH  38  44
ATOM     44  OH  ACE d           3.761  -6.655   5.288  0.00  0.00    -0.240 OA
BRANCH  44  45
ATOM     45  P   ACE d           4.784  -7.491   6.281  0.00  0.00     0.427 P 
ATOM     46  O1P ACE d           4.009  -8.849   6.494  0.00  0.00    -0.617 OA
ATOM     47  O2P ACE d           6.085  -7.747   5.650  0.00  0.00    -0.617 OA
ATOM     48  O3P ACE d           4.823  -6.765   7.570  0.00  0.00    -0.617 OA
ENDBRANCH  44  45
ENDBRANCH  38  44
ENDBRANCH  31  34
ENDBRANCH  21  31
ENDBRANCH  18  21
ENDBRANCH   6  17
BRANCH   6  49
ATOM     49  C   ACE d           9.524  -7.603   1.747  0.00  0.00     0.246 C 
ATOM     50  O   ACE d           8.792  -8.276   2.535  0.00  0.00    -0.271 OA
ATOM     51  N   ACE d          10.505  -6.786   2.189  0.00  0.00    -0.345 N 
ATOM     52  H23 ACE d          11.086  -6.314   1.527  0.00  0.00     0.163 HD
BRANCH  51  53
ATOM     53  CA  ACE d          10.733  -6.580   3.627  0.00  0.00     0.097 C 
ATOM     54  H24 ACE d          10.386  -7.483   4.150  0.00  0.00     0.088 H 
BRANCH  53  55
ATOM     55  C   ACE d           9.931  -5.411   4.191  0.00  0.00     0.238 C 
ATOM     56  O   ACE d          10.509  -4.412   4.579  0.00  0.00    -0.271 OA
ATOM     57  N   ACE d           8.634  -5.572   4.360  0.00  0.00    -0.368 N 
ATOM     58  H29 ACE d           8.081  -4.824   4.728  0.00  0.00     0.159 HD
ATOM     59  H30 ACE d           8.202  -6.442   4.121  0.00  0.00     0.159 HD
ENDBRANCH  53  55
BRANCH  53  60
ATOM     60  CB  ACE d          12.260  -6.449   3.889  0.00  0.00     0.036 C 
ATOM     61  H25 ACE d          12.503  -5.391   4.066  0.00  0.00     0.051 H 
ATOM     62  H26 ACE d          12.807  -6.808   3.005  0.00  0.00     0.051 H 
BRANCH  60  63
ATOM     63  CG  ACE d          12.702  -7.282   5.127  0.00  0.00     0.217 C 
ATOM     64  OD1 ACE d          12.817  -6.724   6.243  0.00  0.00    -0.274 OA
ATOM     65  ND2 ACE d          12.927  -8.566   4.892  0.00  0.00    -0.370 N 
ATOM     66  H27 ACE d          13.215  -9.168   5.636  0.00  0.00     0.159 HD
ATOM     67  H28 ACE d          12.809  -8.933   3.969  0.00  0.00     0.159 HD
ENDBRANCH  60  63
ENDBRANCH  53  60
ENDBRANCH  51  53
ENDBRANCH   6  49
TORSDOF 13
ENDMDL
MODEL 6
REMARK VINA RESULT:      -4.1      3.319      5.774
REMARK  13 active torsions:
REMARK  status: ('A' for Active; 'I' for Inactive)
REMARK    1  A    between atoms: C_1  and  CH3_3 
REMARK       I    between atoms: N_4  and  C_1 
REMARK    2  A    between atoms: CA_5  and  N_4 
REMARK    3  A    between atoms: C_6  and  CA_5 
REMARK    4  A    between atoms: CA_5  and  CB_8 
REMARK       I    between atoms: N_26  and  C_6 
REMARK    5  A    between atoms: CB_8  and  CG_9 
REMARK    6  A    between atoms: CZ_14  and  OH_15 
REMARK    7  A    between atoms: OH_15  and  P_16 
REMARK    8  A    between atoms: CA_28  and  N_26 
REMARK    9  A    between atoms: C_27  and  CA_28 
REMARK       I    between atoms: C_27  and  N_29 
REMARK   10  A    between atoms: N_29  and  CA_30 
REMARK   11  A    between atoms: CA_30  and  C_31 
REMARK   12  A    between atoms: CA_30  and  CB_33 
REMARK       I    between atoms: C_31  and  N_37 
REMARK   13  A    between atoms: CB_33  and  CG_34 
REMARK       I    between atoms: CG_34  and  ND2_36 
ROOT
ATOM      1  CD  ACE d           3.697  -8.429  -2.193  0.00  0.00    -0.065 C 
ATOM      2  CG  ACE d           5.026  -8.945  -1.581  0.00  0.00    -0.062 C 
ATOM      3  CE  ACE d           3.690  -6.889  -2.167  0.00  0.00    -0.062 C 
ATOM      4  CB  ACE d           5.251  -8.444  -0.116  0.00  0.00    -0.033 C 
ATOM      5  CH  ACE d           3.969  -6.360  -0.747  0.00  0.00    -0.033 C 
ATOM      6  CA  ACE d           5.229  -6.906  -0.048  0.00  0.00     0.114 C 
ATOM      7  H12 ACE d           2.849  -8.812  -1.605  0.00  0.00     0.033 H 
ATOM      8  H13 ACE d           3.610  -8.780  -3.232  0.00  0.00     0.033 H 
ATOM      9  H14 ACE d           5.861  -8.594  -2.206  0.00  0.00     0.033 H 
ATOM     10  H15 ACE d           5.009 -10.046  -1.578  0.00  0.00     0.033 H 
ATOM     11  H16 ACE d           2.705  -6.528  -2.498  0.00  0.00     0.033 H 
ATOM     12  H17 ACE d           4.467  -6.514  -2.850  0.00  0.00     0.033 H 
ATOM     13  H18 ACE d           6.227  -8.806   0.241  0.00  0.00     0.037 H 
ATOM     14  H19 ACE d           4.453  -8.844   0.527  0.00  0.00     0.037 H 
ATOM     15  H20 ACE d           3.103  -6.612  -0.120  0.00  0.00     0.037 H 
ATOM     16  H21 ACE d           4.069  -5.267  -0.811  0.00  0.00     0.037 H 
ENDROOT
BRANCH   6  17
ATOM     17  N   ACE d           6.372  -6.333  -0.768  0.00  0.00    -0.341 N 
ATOM     18  C   ACE d           7.621  -6.754  -0.612  0.00  0.00     0.241 C 
ATOM     19  O   ACE d           7.947  -7.680   0.115  0.00  0.00    -0.271 OA
ATOM     20  H22 ACE d           6.201  -5.584  -1.409  0.00  0.00     0.163 HD
BRANCH  18  21
ATOM     21  CA  ACE d           8.669  -5.998  -1.416  0.00  0.00     0.093 C 
ATOM     22  H5  ACE d           9.507  -6.666  -1.661  0.00  0.00     0.088 H 
BRANCH  21  23
ATOM     23  N   ACE d           8.028  -5.500  -2.663  0.00  0.00    -0.348 N 
ATOM     24  C   ACE d           8.607  -5.703  -3.860  0.00  0.00     0.214 C 
ATOM     25  O   ACE d           9.658  -6.335  -4.021  0.00  0.00    -0.274 OA
ATOM     26  H4  ACE d           7.158  -5.009  -2.610  0.00  0.00     0.163 HD
BRANCH  24  27
ATOM     27  CH3 ACE d           7.870  -5.109  -5.087  0.00  0.00    -0.003 C 
ATOM     28  H1  ACE d           8.098  -5.711  -5.978  0.00  0.00     0.040 H 
ATOM     29  H2  ACE d           8.204  -4.074  -5.249  0.00  0.00     0.040 H 
ATOM     30  H3  ACE d           6.786  -5.120  -4.903  0.00  0.00     0.040 H 
ENDBRANCH  24  27
ENDBRANCH  21  23
BRANCH  21  31
ATOM     31  CB  ACE d           9.194  -4.765  -0.596  0.00  0.00    -0.014 C 
ATOM     32  H6  ACE d           8.344  -4.120  -0.329  0.00  0.00     0.043 H 
ATOM     33  H7  ACE d           9.907  -4.198  -1.212  0.00  0.00     0.043 H 
BRANCH  31  34
ATOM     34  CG  ACE d           9.890  -5.233   0.678  0.00  0.00    -0.056 A 
ATOM     35  CD1 ACE d          10.869  -6.202   0.563  0.00  0.00    -0.074 A 
ATOM     36  CE1 ACE d          11.446  -6.703   1.731  0.00  0.00    -0.050 A 
ATOM     37  H8  ACE d          11.182  -6.563  -0.410  0.00  0.00     0.084 H 
ATOM     38  CZ  ACE d          11.059  -6.201   2.993  0.00  0.00     0.082 A 
ATOM     39  H10 ACE d          12.196  -7.483   1.669  0.00  0.00     0.087 H 
ATOM     40  CE2 ACE d          10.071  -5.235   3.118  0.00  0.00    -0.050 A 
ATOM     41  CD2 ACE d           9.494  -4.706   1.939  0.00  0.00    -0.074 A 
ATOM     42  H11 ACE d           9.749  -4.895   4.096  0.00  0.00     0.087 H 
ATOM     43  H9  ACE d           8.762  -3.909   1.996  0.00  0.00     0.084 H 
BRANCH  38  44
ATOM     44  OH  ACE d          11.731  -6.809   4.030  0.00  0.00    -0.240 OA
BRANCH  44  45
ATOM     45  P   ACE d          11.716  -8.440   4.299  0.00  0.00     0.427 P 
ATOM     46  O1P ACE d          11.215  -8.528   5.793  0.00  0.00    -0.617 OA
ATOM     47  O2P ACE d          10.780  -9.141   3.412  0.00  0.00    -0.617 OA
ATOM     48  O3P ACE d          13.122  -8.898   4.247  0.00  0.00    -0.617 OA
ENDBRANCH  44  45
ENDBRANCH  38  44
ENDBRANCH  31  34
ENDBRANCH  21  31
ENDBRANCH  18  21
ENDBRANCH   6  17
BRANCH   6  49
ATOM     49  C   ACE d           5.342  -6.519   1.456  0.00  0.00     0.246 C 
ATOM     50  O   ACE d           5.091  -5.356   1.897  0.00  0.00    -0.271 OA
ATOM     51  N   ACE d           5.603  -7.563   2.274  0.00  0.00    -0.345 N 
ATOM     52  H23 ACE d           5.748  -8.470   1.881  0.00  0.00     0.163 HD
BRANCH  51  53
ATOM     53  CA  ACE d           5.677  -7.387   3.733  0.00  0.00     0.097 C 
ATOM     54  H24 ACE d           5.185  -6.434   3.976  0.00  0.00     0.088 H 
BRANCH  53  55
ATOM     55  C   ACE d           7.111  -7.282   4.243  0.00  0.00     0.238 C 
ATOM     56  O   ACE d           7.457  -6.302   4.876  0.00  0.00    -0.271 OA
ATOM     57  N   ACE d           7.973  -8.206   3.868  0.00  0.00    -0.368 N 
ATOM     58  H29 ACE d           8.920  -8.164   4.186  0.00  0.00     0.159 HD
ATOM     59  H30 ACE d           7.680  -8.949   3.266  0.00  0.00     0.159 HD
ENDBRANCH  53  55
BRANCH  53  60
ATOM     60  CB  ACE d           4.868  -8.519   4.426  0.00  0.00     0.036 C 
ATOM     61  H25 ACE d           5.515  -9.400   4.543  0.00  0.00     0.051 H 
ATOM     62  H26 ACE d           4.005  -8.779   3.796  0.00  0.00     0.051 H 
BRANCH  60  63
ATOM     63  CG  ACE d           4.356  -8.080   5.828  0.00  0.00     0.217 C 
ATOM     64  OD1 ACE d           3.748  -8.902   6.554  0.00  0.00    -0.274 OA
ATOM     65  ND2 ACE d           4.615  -6.823   6.155  0.00  0.00    -0.370 N 
ATOM     66  H27 ACE d           4.318  -6.465   7.040  0.00  0.00     0.159 HD
ATOM     67  H28 ACE d           5.108  -6.232   5.516  0.00  0.00     0.159 HD
ENDBRANCH  60  63
ENDBRANCH  53  60
ENDBRANCH  51  53
ENDBRANCH   6  49
TORSDOF 13
ENDMDL
MODEL 7
REMARK VINA RESULT:      -4.1      3.377      8.050
REMARK  13 active torsions:
REMARK  status: ('A' for Active; 'I' for Inactive)
REMARK    1  A    between atoms: C_1  and  CH3_3 
REMARK       I    between atoms: N_4  and  C_1 
REMARK    2  A    between atoms: CA_5  and  N_4 
REMARK    3  A    between atoms: C_6  and  CA_5 
REMARK    4  A    between atoms: CA_5  and  CB_8 
REMARK       I    between atoms: N_26  and  C_6 
REMARK    5  A    between atoms: CB_8  and  CG_9 
REMARK    6  A    between atoms: CZ_14  and  OH_15 
REMARK    7  A    between atoms: OH_15  and  P_16 
REMARK    8  A    between atoms: CA_28  and  N_26 
REMARK    9  A    between atoms: C_27  and  CA_28 
REMARK       I    between atoms: C_27  and  N_29 
REMARK   10  A    between atoms: N_29  and  CA_30 
REMARK   11  A    between atoms: CA_30  and  C_31 
REMARK   12  A    between atoms: CA_30  and  CB_33 
REMARK       I    between atoms: C_31  and  N_37 
REMARK   13  A    between atoms: CB_33  and  CG_34 
REMARK       I    between atoms: CG_34  and  ND2_36 
ROOT
ATOM      1  CD  ACE d           9.027  -4.162  -3.745  0.00  0.00    -0.065 C 
ATOM      2  CG  ACE d           9.601  -4.680  -2.399  0.00  0.00    -0.062 C 
ATOM      3  CE  ACE d           7.612  -4.736  -3.949  0.00  0.00    -0.062 C 
ATOM      4  CB  ACE d           9.651  -6.242  -2.326  0.00  0.00    -0.033 C 
ATOM      5  CH  ACE d           7.616  -6.271  -3.822  0.00  0.00    -0.033 C 
ATOM      6  CA  ACE d           8.255  -6.852  -2.546  0.00  0.00     0.114 C 
ATOM      7  H12 ACE d           9.678  -4.486  -4.571  0.00  0.00     0.033 H 
ATOM      8  H13 ACE d           8.979  -3.063  -3.726  0.00  0.00     0.033 H 
ATOM      9  H14 ACE d           8.966  -4.309  -1.581  0.00  0.00     0.033 H 
ATOM     10  H15 ACE d          10.621  -4.288  -2.278  0.00  0.00     0.033 H 
ATOM     11  H16 ACE d           7.252  -4.458  -4.951  0.00  0.00     0.033 H 
ATOM     12  H17 ACE d           6.940  -4.313  -3.187  0.00  0.00     0.033 H 
ATOM     13  H18 ACE d          10.023  -6.543  -1.335  0.00  0.00     0.037 H 
ATOM     14  H19 ACE d          10.335  -6.616  -3.103  0.00  0.00     0.037 H 
ATOM     15  H20 ACE d           8.163  -6.677  -4.685  0.00  0.00     0.037 H 
ATOM     16  H21 ACE d           6.571  -6.612  -3.858  0.00  0.00     0.037 H 
ENDROOT
BRANCH   6  17
ATOM     17  N   ACE d           7.350  -6.504  -1.445  0.00  0.00    -0.341 N 
ATOM     18  C   ACE d           7.485  -6.972  -0.211  0.00  0.00     0.241 C 
ATOM     19  O   ACE d           8.389  -7.712   0.147  0.00  0.00    -0.271 OA
ATOM     20  H22 ACE d           6.592  -5.880  -1.634  0.00  0.00     0.163 HD
BRANCH  18  21
ATOM     21  CA  ACE d           6.416  -6.526   0.777  0.00  0.00     0.093 C 
ATOM     22  H5  ACE d           5.535  -6.154   0.233  0.00  0.00     0.088 H 
BRANCH  21  23
ATOM     23  N   ACE d           6.044  -7.696   1.617  0.00  0.00    -0.348 N 
ATOM     24  C   ACE d           4.763  -7.909   1.967  0.00  0.00     0.214 C 
ATOM     25  O   ACE d           3.818  -7.202   1.596  0.00  0.00    -0.274 OA
ATOM     26  H4  ACE d           6.753  -8.330   1.925  0.00  0.00     0.163 HD
BRANCH  24  27
ATOM     27  CH3 ACE d           4.495  -9.136   2.874  0.00  0.00    -0.003 C 
ATOM     28  H1  ACE d           3.779  -9.809   2.380  0.00  0.00     0.040 H 
ATOM     29  H2  ACE d           4.078  -8.798   3.834  0.00  0.00     0.040 H 
ATOM     30  H3  ACE d           5.438  -9.673   3.053  0.00  0.00     0.040 H 
ENDBRANCH  24  27
ENDBRANCH  21  23
BRANCH  21  31
ATOM     31  CB  ACE d           6.981  -5.398   1.711  0.00  0.00    -0.014 C 
ATOM     32  H6  ACE d           6.158  -4.975   2.306  0.00  0.00     0.043 H 
ATOM     33  H7  ACE d           7.431  -4.608   1.093  0.00  0.00     0.043 H 
BRANCH  31  34
ATOM     34  CG  ACE d           8.039  -5.967   2.650  0.00  0.00    -0.056 A 
ATOM     35  CD1 ACE d           9.347  -5.553   2.480  0.00  0.00    -0.074 A 
ATOM     36  CE1 ACE d          10.336  -6.137   3.272  0.00  0.00    -0.050 A 
ATOM     37  H8  ACE d           9.598  -4.792   1.750  0.00  0.00     0.084 H 
ATOM     38  CZ  ACE d           9.996  -7.101   4.246  0.00  0.00     0.082 A 
ATOM     39  H10 ACE d          11.372  -5.850   3.138  0.00  0.00     0.087 H 
ATOM     40  CE2 ACE d           8.688  -7.530   4.418  0.00  0.00    -0.050 A 
ATOM     41  CD2 ACE d           7.674  -6.928   3.634  0.00  0.00    -0.074 A 
ATOM     42  H11 ACE d           8.448  -8.306   5.136  0.00  0.00     0.087 H 
ATOM     43  H9  ACE d           6.635  -7.195   3.782  0.00  0.00     0.084 H 
BRANCH  38  44
ATOM     44  OH  ACE d          11.096  -7.568   4.932  0.00  0.00    -0.240 OA
BRANCH  44  45
ATOM     45  P   ACE d          11.801  -9.034   4.642  0.00  0.00     0.427 P 
ATOM     46  O1P ACE d          11.286  -9.372   3.189  0.00  0.00    -0.617 OA
ATOM     47  O2P ACE d          13.267  -8.957   4.650  0.00  0.00    -0.617 OA
ATOM     48  O3P ACE d          11.198  -9.998   5.590  0.00  0.00    -0.617 OA
ENDBRANCH  44  45
ENDBRANCH  38  44
ENDBRANCH  31  34
ENDBRANCH  21  31
ENDBRANCH  18  21
ENDBRANCH   6  17
BRANCH   6  49
ATOM     49  C   ACE d           8.437  -8.399  -2.572  0.00  0.00     0.246 C 
ATOM     50  O   ACE d           7.475  -9.215  -2.441  0.00  0.00    -0.271 OA
ATOM     51  N   ACE d           9.691  -8.800  -2.878  0.00  0.00    -0.345 N 
ATOM     52  H23 ACE d          10.405  -8.114  -3.017  0.00  0.00     0.163 HD
BRANCH  51  53
ATOM     53  CA  ACE d          10.023 -10.226  -3.010  0.00  0.00     0.097 C 
ATOM     54  H24 ACE d           9.115 -10.747  -3.350  0.00  0.00     0.088 H 
BRANCH  53  55
ATOM     55  C   ACE d          10.424 -10.864  -1.684  0.00  0.00     0.238 C 
ATOM     56  O   ACE d          10.212 -10.273  -0.640  0.00  0.00    -0.271 OA
ATOM     57  N   ACE d          11.109 -11.989  -1.717  0.00  0.00    -0.368 N 
ATOM     58  H29 ACE d          11.387 -12.431  -0.864  0.00  0.00     0.159 HD
ATOM     59  H30 ACE d          11.353 -12.401  -2.595  0.00  0.00     0.159 HD
ENDBRANCH  53  55
BRANCH  53  60
ATOM     60  CB  ACE d          11.101 -10.401  -4.117  0.00  0.00     0.036 C 
ATOM     61  H25 ACE d          10.655 -10.151  -5.091  0.00  0.00     0.051 H 
ATOM     62  H26 ACE d          11.438 -11.447  -4.125  0.00  0.00     0.051 H 
BRANCH  60  63
ATOM     63  CG  ACE d          12.327  -9.476  -3.871  0.00  0.00     0.217 C 
ATOM     64  OD1 ACE d          13.299  -9.896  -3.199  0.00  0.00    -0.274 OA
ATOM     65  ND2 ACE d          12.244  -8.272  -4.417  0.00  0.00    -0.370 N 
ATOM     66  H27 ACE d          12.993  -7.619  -4.304  0.00  0.00     0.159 HD
ATOM     67  H28 ACE d          11.432  -8.016  -4.942  0.00  0.00     0.159 HD
ENDBRANCH  60  63
ENDBRANCH  53  60
ENDBRANCH  51  53
ENDBRANCH   6  49
TORSDOF 13
ENDMDL
MODEL 8
REMARK VINA RESULT:      -4.1      2.969      4.271
REMARK  13 active torsions:
REMARK  status: ('A' for Active; 'I' for Inactive)
REMARK    1  A    between atoms: C_1  and  CH3_3 
REMARK       I    between atoms: N_4  and  C_1 
REMARK    2  A    between atoms: CA_5  and  N_4 
REMARK    3  A    between atoms: C_6  and  CA_5 
REMARK    4  A    between atoms: CA_5  and  CB_8 
REMARK       I    between atoms: N_26  and  C_6 
REMARK    5  A    between atoms: CB_8  and  CG_9 
REMARK    6  A    between atoms: CZ_14  and  OH_15 
REMARK    7  A    between atoms: OH_15  and  P_16 
REMARK    8  A    between atoms: CA_28  and  N_26 
REMARK    9  A    between atoms: C_27  and  CA_28 
REMARK       I    between atoms: C_27  and  N_29 
REMARK   10  A    between atoms: N_29  and  CA_30 
REMARK   11  A    between atoms: CA_30  and  C_31 
REMARK   12  A    between atoms: CA_30  and  CB_33 
REMARK       I    between atoms: C_31  and  N_37 
REMARK   13  A    between atoms: CB_33  and  CG_34 
REMARK       I    between atoms: CG_34  and  ND2_36 
ROOT
ATOM      1  CD  ACE d          12.317  -8.063   5.263  0.00  0.00    -0.065 C 
ATOM      2  CG  ACE d          12.080  -6.681   4.598  0.00  0.00    -0.062 C 
ATOM      3  CE  ACE d          11.471  -9.127   4.539  0.00  0.00    -0.062 C 
ATOM      4  CB  ACE d          10.575  -6.254   4.612  0.00  0.00    -0.033 C 
ATOM      5  CH  ACE d           9.989  -8.709   4.481  0.00  0.00    -0.033 C 
ATOM      6  CA  ACE d           9.695  -7.306   3.914  0.00  0.00     0.114 C 
ATOM      7  H12 ACE d          12.022  -8.017   6.322  0.00  0.00     0.033 H 
ATOM      8  H13 ACE d          13.382  -8.329   5.191  0.00  0.00     0.033 H 
ATOM      9  H14 ACE d          12.423  -6.730   3.554  0.00  0.00     0.033 H 
ATOM     10  H15 ACE d          12.667  -5.925   5.140  0.00  0.00     0.033 H 
ATOM     11  H16 ACE d          11.554 -10.082   5.078  0.00  0.00     0.033 H 
ATOM     12  H17 ACE d          11.849  -9.251   3.513  0.00  0.00     0.033 H 
ATOM     13  H18 ACE d          10.470  -5.293   4.088  0.00  0.00     0.037 H 
ATOM     14  H19 ACE d          10.244  -6.142   5.655  0.00  0.00     0.037 H 
ATOM     15  H20 ACE d           9.591  -8.745   5.505  0.00  0.00     0.037 H 
ATOM     16  H21 ACE d           9.459  -9.441   3.855  0.00  0.00     0.037 H 
ENDROOT
BRANCH   6  17
ATOM     17  N   ACE d           9.999  -7.378   2.480  0.00  0.00    -0.341 N 
ATOM     18  C   ACE d          10.071  -6.312   1.693  0.00  0.00     0.241 C 
ATOM     19  O   ACE d           9.925  -5.162   2.081  0.00  0.00    -0.271 OA
ATOM     20  H22 ACE d          10.162  -8.277   2.075  0.00  0.00     0.163 HD
BRANCH  18  21
ATOM     21  CA  ACE d          10.354  -6.602   0.226  0.00  0.00     0.093 C 
ATOM     22  H5  ACE d          11.292  -7.166   0.130  0.00  0.00     0.088 H 
BRANCH  21  23
ATOM     23  N   ACE d           9.219  -7.395  -0.318  0.00  0.00    -0.348 N 
ATOM     24  C   ACE d           9.440  -8.419  -1.161  0.00  0.00     0.214 C 
ATOM     25  O   ACE d          10.565  -8.799  -1.507  0.00  0.00    -0.274 OA
ATOM     26  H4  ACE d           8.282  -7.165  -0.053  0.00  0.00     0.163 HD
BRANCH  24  27
ATOM     27  CH3 ACE d           8.183  -9.152  -1.694  0.00  0.00    -0.003 C 
ATOM     28  H1  ACE d           7.301  -8.832  -1.121  0.00  0.00     0.040 H 
ATOM     29  H2  ACE d           8.318 -10.238  -1.584  0.00  0.00     0.040 H 
ATOM     30  H3  ACE d           8.039  -8.907  -2.756  0.00  0.00     0.040 H 
ENDBRANCH  24  27
ENDBRANCH  21  23
BRANCH  21  31
ATOM     31  CB  ACE d          10.457  -5.258  -0.580  0.00  0.00    -0.014 C 
ATOM     32  H6  ACE d          11.404  -5.242  -1.138  0.00  0.00     0.043 H 
ATOM     33  H7  ACE d          10.429  -4.412   0.122  0.00  0.00     0.043 H 
BRANCH  31  34
ATOM     34  CG  ACE d           9.294  -5.137  -1.560  0.00  0.00    -0.056 A 
ATOM     35  CD1 ACE d           9.556  -5.320  -2.904  0.00  0.00    -0.074 A 
ATOM     36  CE1 ACE d           8.519  -5.119  -3.816  0.00  0.00    -0.050 A 
ATOM     37  H8  ACE d          10.543  -5.614  -3.242  0.00  0.00     0.084 H 
ATOM     38  CZ  ACE d           7.227  -4.773  -3.364  0.00  0.00     0.082 A 
ATOM     39  H10 ACE d           8.706  -5.230  -4.877  0.00  0.00     0.087 H 
ATOM     40  CE2 ACE d           6.955  -4.578  -2.018  0.00  0.00    -0.050 A 
ATOM     41  CD2 ACE d           7.995  -4.799  -1.084  0.00  0.00    -0.074 A 
ATOM     42  H11 ACE d           5.971  -4.264  -1.690  0.00  0.00     0.087 H 
ATOM     43  H9  ACE d           7.806  -4.713  -0.020  0.00  0.00     0.084 H 
BRANCH  38  44
ATOM     44  OH  ACE d           6.331  -4.616  -4.400  0.00  0.00    -0.240 OA
BRANCH  44  45
ATOM     45  P   ACE d           5.226  -5.764  -4.837  0.00  0.00     0.427 P 
ATOM     46  O1P ACE d           4.264  -4.956  -5.791  0.00  0.00    -0.617 OA
ATOM     47  O2P ACE d           5.842  -6.878  -5.570  0.00  0.00    -0.617 OA
ATOM     48  O3P ACE d           4.477  -6.130  -3.614  0.00  0.00    -0.617 OA
ENDBRANCH  44  45
ENDBRANCH  38  44
ENDBRANCH  31  34
ENDBRANCH  21  31
ENDBRANCH  18  21
ENDBRANCH   6  17
BRANCH   6  49
ATOM     49  C   ACE d           8.217  -6.846   4.087  0.00  0.00     0.246 C 
ATOM     50  O   ACE d           7.884  -5.645   4.324  0.00  0.00    -0.271 OA
ATOM     51  N   ACE d           7.307  -7.812   3.831  0.00  0.00    -0.345 N 
ATOM     52  H23 ACE d           7.621  -8.734   3.603  0.00  0.00     0.163 HD
BRANCH  51  53
ATOM     53  CA  ACE d           5.864  -7.532   3.883  0.00  0.00     0.097 C 
ATOM     54  H24 ACE d           5.738  -6.441   3.829  0.00  0.00     0.088 H 
BRANCH  53  55
ATOM     55  C   ACE d           5.221  -7.984   5.190  0.00  0.00     0.238 C 
ATOM     56  O   ACE d           4.288  -8.766   5.166  0.00  0.00    -0.271 OA
ATOM     57  N   ACE d           5.616  -7.410   6.308  0.00  0.00    -0.368 N 
ATOM     58  H29 ACE d           5.213  -7.685   7.181  0.00  0.00     0.159 HD
ATOM     59  H30 ACE d           6.320  -6.699   6.284  0.00  0.00     0.159 HD
ENDBRANCH  53  55
BRANCH  53  60
ATOM     60  CB  ACE d           5.179  -8.143   2.628  0.00  0.00     0.036 C 
ATOM     61  H25 ACE d           4.094  -8.186   2.799  0.00  0.00     0.051 H 
ATOM     62  H26 ACE d           5.566  -9.160   2.469  0.00  0.00     0.051 H 
BRANCH  60  63
ATOM     63  CG  ACE d           5.456  -7.293   1.354  0.00  0.00     0.217 C 
ATOM     64  OD1 ACE d           6.527  -7.448   0.723  0.00  0.00    -0.274 OA
ATOM     65  ND2 ACE d           4.496  -6.441   1.026  0.00  0.00    -0.370 N 
ATOM     66  H27 ACE d           4.599  -5.858   0.219  0.00  0.00     0.159 HD
ATOM     67  H28 ACE d           3.668  -6.381   1.584  0.00  0.00     0.159 HD
ENDBRANCH  60  63
ENDBRANCH  53  60
ENDBRANCH  51  53
ENDBRANCH   6  49
TORSDOF 13
ENDMDL
MODEL 9
REMARK VINA RESULT:      -3.9      3.037      4.448
REMARK  13 active torsions:
REMARK  status: ('A' for Active; 'I' for Inactive)
REMARK    1  A    between atoms: C_1  and  CH3_3 
REMARK       I    between atoms: N_4  and  C_1 
REMARK    2  A    between atoms: CA_5  and  N_4 
REMARK    3  A    between atoms: C_6  and  CA_5 
REMARK    4  A    between atoms: CA_5  and  CB_8 
REMARK       I    between atoms: N_26  and  C_6 
REMARK    5  A    between atoms: CB_8  and  CG_9 
REMARK    6  A    between atoms: CZ_14  and  OH_15 
REMARK    7  A    between atoms: OH_15  and  P_16 
REMARK    8  A    between atoms: CA_28  and  N_26 
REMARK    9  A    between atoms: C_27  and  CA_28 
REMARK       I    between atoms: C_27  and  N_29 
REMARK   10  A    between atoms: N_29  and  CA_30 
REMARK   11  A    between atoms: CA_30  and  C_31 
REMARK   12  A    between atoms: CA_30  and  CB_33 
REMARK       I    between atoms: C_31  and  N_37 
REMARK   13  A    between atoms: CB_33  and  CG_34 
REMARK       I    between atoms: CG_34  and  ND2_36 
ROOT
ATOM      1  CD  ACE d          12.688  -7.516   5.272  0.00  0.00    -0.065 C 
ATOM      2  CG  ACE d          12.006  -6.206   4.795  0.00  0.00    -0.062 C 
ATOM      3  CE  ACE d          12.323  -8.660   4.308  0.00  0.00    -0.062 C 
ATOM      4  CB  ACE d          10.450  -6.336   4.699  0.00  0.00    -0.033 C 
ATOM      5  CH  ACE d          10.796  -8.777   4.143  0.00  0.00    -0.033 C 
ATOM      6  CA  ACE d          10.047  -7.486   3.758  0.00  0.00     0.114 C 
ATOM      7  H12 ACE d          12.340  -7.763   6.286  0.00  0.00     0.033 H 
ATOM      8  H13 ACE d          13.780  -7.379   5.284  0.00  0.00     0.033 H 
ATOM      9  H14 ACE d          12.399  -5.947   3.801  0.00  0.00     0.033 H 
ATOM     10  H15 ACE d          12.249  -5.403   5.506  0.00  0.00     0.033 H 
ATOM     11  H16 ACE d          12.715  -9.607   4.707  0.00  0.00     0.033 H 
ATOM     12  H17 ACE d          12.776  -8.460   3.325  0.00  0.00     0.033 H 
ATOM     13  H18 ACE d          10.034  -5.394   4.314  0.00  0.00     0.037 H 
ATOM     14  H19 ACE d          10.044  -6.534   5.703  0.00  0.00     0.037 H 
ATOM     15  H20 ACE d          10.383  -9.131   5.099  0.00  0.00     0.037 H 
ATOM     16  H21 ACE d          10.600  -9.524   3.360  0.00  0.00     0.037 H 
ENDROOT
BRANCH   6  17
ATOM     17  N   ACE d          10.434  -7.191   2.374  0.00  0.00    -0.341 N 
ATOM     18  C   ACE d          10.159  -6.045   1.766  0.00  0.00     0.241 C 
ATOM     19  O   ACE d           9.589  -5.105   2.299  0.00  0.00    -0.271 OA
ATOM     20  H22 ACE d          10.932  -7.892   1.862  0.00  0.00     0.163 HD
BRANCH  18  21
ATOM     21  CA  ACE d          10.607  -5.953   0.314  0.00  0.00     0.093 C 
ATOM     22  H5  ACE d          11.704  -6.010   0.256  0.00  0.00     0.088 H 
BRANCH  21  23
ATOM     23  N   ACE d           9.994  -7.083  -0.434  0.00  0.00    -0.348 N 
ATOM     24  C   ACE d          10.606  -7.604  -1.512  0.00  0.00     0.214 C 
ATOM     25  O   ACE d          11.709  -7.231  -1.929  0.00  0.00    -0.274 OA
ATOM     26  H4  ACE d           9.118  -7.459  -0.132  0.00  0.00     0.163 HD
BRANCH  24  27
ATOM     27  CH3 ACE d           9.859  -8.754  -2.235  0.00  0.00    -0.003 C 
ATOM     28  H1  ACE d           9.551  -8.418  -3.236  0.00  0.00     0.040 H 
ATOM     29  H2  ACE d           8.970  -9.036  -1.653  0.00  0.00     0.040 H 
ATOM     30  H3  ACE d          10.527  -9.622  -2.329  0.00  0.00     0.040 H 
ENDBRANCH  24  27
ENDBRANCH  21  23
BRANCH  21  31
ATOM     31  CB  ACE d          10.110  -4.605  -0.320  0.00  0.00    -0.014 C 
ATOM     32  H6  ACE d          10.840  -4.266  -1.070  0.00  0.00     0.043 H 
ATOM     33  H7  ACE d          10.016  -3.846   0.470  0.00  0.00     0.043 H 
BRANCH  31  34
ATOM     34  CG  ACE d           8.755  -4.802  -0.992  0.00  0.00    -0.056 A 
ATOM     35  CD1 ACE d           8.639  -4.472  -2.329  0.00  0.00    -0.074 A 
ATOM     36  CE1 ACE d           7.382  -4.561  -2.927  0.00  0.00    -0.050 A 
ATOM     37  H8  ACE d           9.503  -4.151  -2.899  0.00  0.00     0.084 H 
ATOM     38  CZ  ACE d           6.267  -5.014  -2.188  0.00  0.00     0.082 A 
ATOM     39  H10 ACE d           7.259  -4.280  -3.967  0.00  0.00     0.087 H 
ATOM     40  CE2 ACE d           6.372  -5.340  -0.843  0.00  0.00    -0.050 A 
ATOM     41  CD2 ACE d           7.647  -5.272  -0.232  0.00  0.00    -0.074 A 
ATOM     42  H11 ACE d           5.498  -5.638  -0.275  0.00  0.00     0.087 H 
ATOM     43  H9  ACE d           7.778  -5.575   0.801  0.00  0.00     0.084 H 
BRANCH  38  44
ATOM     44  OH  ACE d           5.112  -5.037  -2.937  0.00  0.00    -0.240 OA
BRANCH  44  45
ATOM     45  P   ACE d           4.629  -6.339  -3.834  0.00  0.00     0.427 P 
ATOM     46  O1P ACE d           5.974  -6.783  -4.531  0.00  0.00    -0.617 OA
ATOM     47  O2P ACE d           4.112  -7.429  -2.998  0.00  0.00    -0.617 OA
ATOM     48  O3P ACE d           3.707  -5.828  -4.874  0.00  0.00    -0.617 OA
ENDBRANCH  44  45
ENDBRANCH  38  44
ENDBRANCH  31  34
ENDBRANCH  21  31
ENDBRANCH  18  21
ENDBRANCH   6  17
BRANCH   6  49
ATOM     49  C   ACE d           8.495  -7.605   3.827  0.00  0.00     0.246 C 
ATOM     50  O   ACE d           7.859  -8.642   3.469  0.00  0.00    -0.271 OA
ATOM     51  N   ACE d           7.891  -6.555   4.427  0.00  0.00    -0.345 N 
ATOM     52  H23 ACE d           8.443  -5.780   4.734  0.00  0.00     0.163 HD
BRANCH  51  53
ATOM     53  CA  ACE d           6.435  -6.533   4.635  0.00  0.00     0.097 C 
ATOM     54  H24 ACE d           5.961  -6.830   3.688  0.00  0.00     0.088 H 
BRANCH  53  55
ATOM     55  C   ACE d           5.908  -5.142   4.973  0.00  0.00     0.238 C 
ATOM     56  O   ACE d           6.505  -4.448   5.776  0.00  0.00    -0.271 OA
ATOM     57  N   ACE d           4.741  -4.783   4.478  0.00  0.00    -0.368 N 
ATOM     58  H29 ACE d           4.368  -3.877   4.682  0.00  0.00     0.159 HD
ATOM     59  H30 ACE d           4.227  -5.415   3.899  0.00  0.00     0.159 HD
ENDBRANCH  53  55
BRANCH  53  60
ATOM     60  CB  ACE d           6.054  -7.601   5.700  0.00  0.00     0.036 C 
ATOM     61  H25 ACE d           6.059  -7.131   6.694  0.00  0.00     0.051 H 
ATOM     62  H26 ACE d           6.797  -8.412   5.674  0.00  0.00     0.051 H 
BRANCH  60  63
ATOM     63  CG  ACE d           4.644  -8.200   5.431  0.00  0.00     0.217 C 
ATOM     64  OD1 ACE d           3.965  -8.645   6.386  0.00  0.00    -0.274 OA
ATOM     65  ND2 ACE d           4.258  -8.187   4.164  0.00  0.00    -0.370 N 
ATOM     66  H27 ACE d           3.364  -8.555   3.910  0.00  0.00     0.159 HD
ATOM     67  H28 ACE d           4.862  -7.810   3.461  0.00  0.00     0.159 HD
ENDBRANCH  60  63
ENDBRANCH  53  60
ENDBRANCH  51  53
ENDBRANCH   6  49
TORSDOF 13
ENDMDL
MODEL 10
REMARK VINA RESULT:      -3.4      1.783      2.512
REMARK  13 active torsions:
REMARK  status: ('A' for Active; 'I' for Inactive)
REMARK    1  A    between atoms: C_1  and  CH3_3 
REMARK       I    between atoms: N_4  and  C_1 
REMARK    2  A    between atoms: CA_5  and  N_4 
REMARK    3  A    between atoms: C_6  and  CA_5 
REMARK    4  A    between atoms: CA_5  and  CB_8 
REMARK       I    between atoms: N_26  and  C_6 
REMARK    5  A    between atoms: CB_8  and  CG_9 
REMARK    6  A    between atoms: CZ_14  and  OH_15 
REMARK    7  A    between atoms: OH_15  and  P_16 
REMARK    8  A    between atoms: CA_28  and  N_26 
REMARK    9  A    between atoms: C_27  and  CA_28 
REMARK       I    between atoms: C_27  and  N_29 
REMARK   10  A    between atoms: N_29  and  CA_30 
REMARK   11  A    between atoms: CA_30  and  C_31 
REMARK   12  A    between atoms: CA_30  and  CB_33 
REMARK       I    between atoms: C_31  and  N_37 
REMARK   13  A    between atoms: CB_33  and  CG_34 
REMARK       I    between atoms: CG_34  and  ND2_36 
ROOT
ATOM      1  CD  ACE d          11.306  -8.563   4.140  0.00  0.00    -0.065 C 
ATOM      2  CG  ACE d          10.758  -7.208   4.661  0.00  0.00    -0.062 C 
ATOM      3  CE  ACE d          10.713  -8.849   2.748  0.00  0.00    -0.062 C 
ATOM      4  CB  ACE d           9.196  -7.179   4.740  0.00  0.00    -0.033 C 
ATOM      5  CH  ACE d           9.175  -8.768   2.776  0.00  0.00    -0.033 C 
ATOM      6  CA  ACE d           8.566  -7.482   3.368  0.00  0.00     0.114 C 
ATOM      7  H12 ACE d          11.020  -9.367   4.835  0.00  0.00     0.033 H 
ATOM      8  H13 ACE d          12.403  -8.514   4.069  0.00  0.00     0.033 H 
ATOM      9  H14 ACE d          11.091  -6.409   3.983  0.00  0.00     0.033 H 
ATOM     10  H15 ACE d          11.165  -7.027   5.668  0.00  0.00     0.033 H 
ATOM     11  H16 ACE d          11.014  -9.858   2.428  0.00  0.00     0.033 H 
ATOM     12  H17 ACE d          11.099  -8.107   2.033  0.00  0.00     0.033 H 
ATOM     13  H18 ACE d           8.871  -6.181   5.072  0.00  0.00     0.037 H 
ATOM     14  H19 ACE d           8.858  -7.934   5.465  0.00  0.00     0.037 H 
ATOM     15  H20 ACE d           8.806  -9.617   3.370  0.00  0.00     0.037 H 
ATOM     16  H21 ACE d           8.816  -8.863   1.741  0.00  0.00     0.037 H 
ENDROOT
BRANCH   6  17
ATOM     17  N   ACE d           8.864  -6.414   2.407  0.00  0.00    -0.341 N 
ATOM     18  C   ACE d           8.165  -6.213   1.297  0.00  0.00     0.241 C 
ATOM     19  O   ACE d           7.184  -6.867   0.976  0.00  0.00    -0.271 OA
ATOM     20  H22 ACE d           9.635  -5.806   2.598  0.00  0.00     0.163 HD
BRANCH  18  21
ATOM     21  CA  ACE d           8.662  -5.081   0.409  0.00  0.00     0.093 C 
ATOM     22  H5  ACE d           8.258  -4.122   0.763  0.00  0.00     0.088 H 
BRANCH  21  23
ATOM     23  N   ACE d          10.149  -5.065   0.466  0.00  0.00    -0.348 N 
ATOM     24  C   ACE d          10.788  -4.659   1.578  0.00  0.00     0.214 C 
ATOM     25  O   ACE d          10.214  -4.320   2.620  0.00  0.00    -0.274 OA
ATOM     26  H4  ACE d          10.678  -5.359  -0.330  0.00  0.00     0.163 HD
BRANCH  24  27
ATOM     27  CH3 ACE d          12.336  -4.648   1.513  0.00  0.00    -0.003 C 
ATOM     28  H1  ACE d          12.725  -3.862   2.176  0.00  0.00     0.040 H 
ATOM     29  H2  ACE d          12.658  -4.450   0.481  0.00  0.00     0.040 H 
ATOM     30  H3  ACE d          12.722  -5.625   1.837  0.00  0.00     0.040 H 
ENDBRANCH  24  27
ENDBRANCH  21  23
BRANCH  21  31
ATOM     31  CB  ACE d           8.222  -5.328  -1.078  0.00  0.00    -0.014 C 
ATOM     32  H6  ACE d           8.449  -4.434  -1.677  0.00  0.00     0.043 H 
ATOM     33  H7  ACE d           7.140  -5.525  -1.107  0.00  0.00     0.043 H 
BRANCH  31  34
ATOM     34  CG  ACE d           8.966  -6.525  -1.660  0.00  0.00    -0.056 A 
ATOM     35  CD1 ACE d           8.325  -7.282  -2.623  0.00  0.00    -0.074 A 
ATOM     36  CE1 ACE d           8.960  -8.433  -3.093  0.00  0.00    -0.050 A 
ATOM     37  H8  ACE d           7.353  -6.990  -3.003  0.00  0.00     0.084 H 
ATOM     38  CZ  ACE d          10.241  -8.787  -2.619  0.00  0.00     0.082 A 
ATOM     39  H10 ACE d           8.465  -9.058  -3.827  0.00  0.00     0.087 H 
ATOM     40  CE2 ACE d          10.889  -8.039  -1.647  0.00  0.00    -0.050 A 
ATOM     41  CD2 ACE d          10.263  -6.859  -1.178  0.00  0.00    -0.074 A 
ATOM     42  H11 ACE d          11.851  -8.350  -1.256  0.00  0.00     0.087 H 
ATOM     43  H9  ACE d          10.764  -6.219  -0.462  0.00  0.00     0.084 H 
BRANCH  38  44
ATOM     44  OH  ACE d          10.712  -9.948  -3.192  0.00  0.00    -0.240 OA
BRANCH  44  45
ATOM     45  P   ACE d          10.697 -11.416  -2.432  0.00  0.00     0.427 P 
ATOM     46  O1P ACE d          10.084 -11.057  -1.023  0.00  0.00    -0.617 OA
ATOM     47  O2P ACE d           9.840 -12.389  -3.120  0.00  0.00    -0.617 OA
ATOM     48  O3P ACE d          12.109 -11.818  -2.241  0.00  0.00    -0.617 OA
ENDBRANCH  44  45
ENDBRANCH  38  44
ENDBRANCH  31  34
ENDBRANCH  21  31
ENDBRANCH  18  21
ENDBRANCH   6  17
BRANCH   6  49
ATOM     49  C   ACE d           7.025  -7.545   3.581  0.00  0.00     0.246 C 
ATOM     50  O   ACE d           6.351  -8.616   3.484  0.00  0.00    -0.271 OA
ATOM     51  N   ACE d           6.482  -6.385   4.012  0.00  0.00    -0.345 N 
ATOM     52  H23 ACE d           7.065  -5.579   4.117  0.00  0.00     0.163 HD
BRANCH  51  53
ATOM     53  CA  ACE d           5.049  -6.286   4.326  0.00  0.00     0.097 C 
ATOM     54  H24 ACE d           4.536  -7.098   3.791  0.00  0.00     0.088 H 
BRANCH  53  55
ATOM     55  C   ACE d           4.427  -4.980   3.842  0.00  0.00     0.238 C 
ATOM     56  O   ACE d           3.945  -4.204   4.648  0.00  0.00    -0.271 OA
ATOM     57  N   ACE d           4.314  -4.788   2.543  0.00  0.00    -0.368 N 
ATOM     58  H29 ACE d           3.910  -3.942   2.195  0.00  0.00     0.159 HD
ATOM     59  H30 ACE d           4.633  -5.490   1.905  0.00  0.00     0.159 HD
ENDBRANCH  53  55
BRANCH  53  60
ATOM     60  CB  ACE d           4.842  -6.528   5.848  0.00  0.00     0.036 C 
ATOM     61  H25 ACE d           4.041  -5.866   6.209  0.00  0.00     0.051 H 
ATOM     62  H26 ACE d           5.777  -6.295   6.378  0.00  0.00     0.051 H 
BRANCH  60  63
ATOM     63  CG  ACE d           4.448  -8.004   6.144  0.00  0.00     0.217 C 
ATOM     64  OD1 ACE d           3.740  -8.635   5.325  0.00  0.00    -0.274 OA
ATOM     65  ND2 ACE d           4.914  -8.494   7.283  0.00  0.00    -0.370 N 
ATOM     66  H27 ACE d           4.704  -9.436   7.545  0.00  0.00     0.159 HD
ATOM     67  H28 ACE d           5.475  -7.921   7.881  0.00  0.00     0.159 HD
ENDBRANCH  60  63
ENDBRANCH  53  60
ENDBRANCH  51  53
ENDBRANCH   6  49
TORSDOF 13
ENDMDL
