MODEL 1
REMARK VINA RESULT:      -6.6      0.000      0.000
REMARK  6 active torsions:
REMARK  status: ('A' for Active; 'I' for Inactive)
REMARK    1  A    between atoms: C1_1  and  O1_7 
REMARK    2  A    between atoms: C2_2  and  O2_8 
REMARK    3  A    between atoms: C3_3  and  O3_9 
REMARK    4  A    between atoms: C4_4  and  O4_10 
REMARK    5  A    between atoms: C5_5  and  C6_6 
REMARK    6  A    between atoms: O1_7  and  CM_12 
ROOT
ATOM      1  C1  MFU d         -40.052  20.473  11.010  0.00  0.00     0.158 C 
ATOM      2  C2  MFU d         -38.669  19.932  11.214  0.00  0.00     0.110 C 
ATOM      3  C3  MFU d         -38.156  20.305  12.618  0.00  0.00     0.092 C 
ATOM      4  C4  MFU d         -39.101  19.936  13.755  0.00  0.00     0.087 C 
ATOM      5  C5  MFU d         -40.455  20.551  13.441  0.00  0.00     0.065 C 
ATOM      6  O5  MFU d         -40.892  20.078  12.138  0.00  0.00    -0.351 OA
ATOM      7  H1  MFU d         -40.474  20.077  10.075  0.00  0.00     0.133 H 
ATOM      8  H2  MFU d         -38.726  18.835  11.145  0.00  0.00     0.094 H 
ATOM      9  H3  MFU d         -37.981  21.391  12.651  0.00  0.00     0.091 H 
ATOM     10  H4  MFU d         -38.731  20.350  14.704  0.00  0.00     0.091 H 
ATOM     11  H5  MFU d         -40.309  21.638  13.358  0.00  0.00     0.086 H 
ENDROOT
BRANCH   1  12
ATOM     12  O1  MFU d         -39.988  21.914  10.948  0.00  0.00    -0.363 OA
BRANCH  12  13
ATOM     13  CM  MFU d         -41.083  22.406  10.121  0.00  0.00     0.007 C 
ATOM     14  H12 MFU d         -41.269  21.697   9.300  0.00  0.00     0.066 H 
ATOM     15  H13 MFU d         -40.815  23.388   9.703  0.00  0.00     0.066 H 
ATOM     16  H14 MFU d         -41.991  22.504  10.735  0.00  0.00     0.066 H 
ENDBRANCH  12  13
ENDBRANCH   1  12
BRANCH   2  17
ATOM     17  O2  MFU d         -37.720  20.391  10.212  0.00  0.00    -0.388 OA
ATOM     18  H9  MFU d         -37.242  19.647   9.866  0.00  0.00     0.210 HD
ENDBRANCH   2  17
BRANCH   3  19
ATOM     19  O3  MFU d         -36.910  19.602  12.811  0.00  0.00    -0.390 OA
ATOM     20  H10 MFU d         -36.257  19.946  12.213  0.00  0.00     0.210 HD
ENDBRANCH   3  19
BRANCH   5  21
ATOM     21  C6  MFU d         -41.489  20.340  14.567  0.00  0.00    -0.050 C 
ATOM     22  H6  MFU d         -41.845  21.317  14.926  0.00  0.00     0.031 H 
ATOM     23  H7  MFU d         -41.020  19.791  15.397  0.00  0.00     0.031 H 
ATOM     24  H8  MFU d         -42.340  19.760  14.180  0.00  0.00     0.031 H 
ENDBRANCH   5  21
BRANCH   4  25
ATOM     25  O4  MFU d         -39.136  18.494  13.853  0.00  0.00    -0.390 OA
ATOM     26  H11 MFU d         -39.163  18.240  14.769  0.00  0.00     0.210 HD
ENDBRANCH   4  25
TORSDOF 6
ENDMDL
MODEL 2
REMARK VINA RESULT:      -5.1      1.220      3.444
REMARK  6 active torsions:
REMARK  status: ('A' for Active; 'I' for Inactive)
REMARK    1  A    between atoms: C1_1  and  O1_7 
REMARK    2  A    between atoms: C2_2  and  O2_8 
REMARK    3  A    between atoms: C3_3  and  O3_9 
REMARK    4  A    between atoms: C4_4  and  O4_10 
REMARK    5  A    between atoms: C5_5  and  C6_6 
REMARK    6  A    between atoms: O1_7  and  CM_12 
ROOT
ATOM      1  C1  MFU d         -39.212  21.086  13.214  0.00  0.00     0.158 C 
ATOM      2  C2  MFU d         -38.036  20.808  12.325  0.00  0.00     0.110 C 
ATOM      3  C3  MFU d         -38.503  20.645  10.866  0.00  0.00     0.092 C 
ATOM      4  C4  MFU d         -39.370  21.787  10.348  0.00  0.00     0.087 C 
ATOM      5  C5  MFU d         -40.527  21.957  11.319  0.00  0.00     0.065 C 
ATOM      6  O5  MFU d         -39.989  22.186  12.650  0.00  0.00    -0.351 OA
ATOM      7  H1  MFU d         -38.864  21.353  14.222  0.00  0.00     0.133 H 
ATOM      8  H2  MFU d         -37.364  21.677  12.380  0.00  0.00     0.094 H 
ATOM      9  H3  MFU d         -39.075  19.709  10.782  0.00  0.00     0.091 H 
ATOM     10  H4  MFU d         -39.771  21.537   9.355  0.00  0.00     0.091 H 
ATOM     11  H5  MFU d         -41.072  21.002  11.350  0.00  0.00     0.086 H 
ENDROOT
BRANCH   1  12
ATOM     12  O1  MFU d         -40.040  19.904  13.279  0.00  0.00    -0.363 OA
BRANCH  12  13
ATOM     13  CM  MFU d         -40.963  20.030  14.399  0.00  0.00     0.007 C 
ATOM     14  H12 MFU d         -41.184  21.093  14.576  0.00  0.00     0.066 H 
ATOM     15  H13 MFU d         -40.507  19.595  15.301  0.00  0.00     0.066 H 
ATOM     16  H14 MFU d         -41.897  19.495  14.167  0.00  0.00     0.066 H 
ENDBRANCH  12  13
ENDBRANCH   1  12
BRANCH   2  17
ATOM     17  O2  MFU d         -37.279  19.635  12.727  0.00  0.00    -0.388 OA
ATOM     18  H9  MFU d         -37.879  18.942  12.976  0.00  0.00     0.210 HD
ENDBRANCH   2  17
BRANCH   3  19
ATOM     19  O3  MFU d         -37.314  20.568  10.051  0.00  0.00    -0.390 OA
ATOM     20  H10 MFU d         -36.546  20.587  10.609  0.00  0.00     0.210 HD
ENDBRANCH   3  19
BRANCH   5  21
ATOM     21  C6  MFU d         -41.547  23.021  10.861  0.00  0.00    -0.050 C 
ATOM     22  H6  MFU d         -41.347  23.294   9.814  0.00  0.00     0.031 H 
ATOM     23  H7  MFU d         -41.457  23.914  11.497  0.00  0.00     0.031 H 
ATOM     24  H8  MFU d         -42.566  22.613  10.944  0.00  0.00     0.031 H 
ENDBRANCH   5  21
BRANCH   4  25
ATOM     25  O4  MFU d         -38.537  22.963  10.237  0.00  0.00    -0.390 OA
ATOM     26  H11 MFU d         -38.327  23.115   9.323  0.00  0.00     0.210 HD
ENDBRANCH   4  25
TORSDOF 6
ENDMDL
MODEL 3
REMARK VINA RESULT:      -5.1      1.165      3.429
REMARK  6 active torsions:
REMARK  status: ('A' for Active; 'I' for Inactive)
REMARK    1  A    between atoms: C1_1  and  O1_7 
REMARK    2  A    between atoms: C2_2  and  O2_8 
REMARK    3  A    between atoms: C3_3  and  O3_9 
REMARK    4  A    between atoms: C4_4  and  O4_10 
REMARK    5  A    between atoms: C5_5  and  C6_6 
REMARK    6  A    between atoms: O1_7  and  CM_12 
ROOT
ATOM      1  C1  MFU d         -40.143  21.356  13.732  0.00  0.00     0.158 C 
ATOM      2  C2  MFU d         -38.739  20.834  13.800  0.00  0.00     0.110 C 
ATOM      3  C3  MFU d         -38.438  19.963  12.564  0.00  0.00     0.092 C 
ATOM      4  C4  MFU d         -38.749  20.631  11.230  0.00  0.00     0.087 C 
ATOM      5  C5  MFU d         -40.194  21.100  11.280  0.00  0.00     0.065 C 
ATOM      6  O5  MFU d         -40.361  21.976  12.427  0.00  0.00    -0.351 OA
ATOM      7  H1  MFU d         -40.305  22.097  14.528  0.00  0.00     0.133 H 
ATOM      8  H2  MFU d         -38.060  21.699  13.789  0.00  0.00     0.094 H 
ATOM      9  H3  MFU d         -39.027  19.037  12.635  0.00  0.00     0.091 H 
ATOM     10  H4  MFU d         -38.636  19.907  10.409  0.00  0.00     0.091 H 
ATOM     11  H5  MFU d         -40.820  20.212  11.458  0.00  0.00     0.086 H 
ENDROOT
BRANCH   1  12
ATOM     12  O1  MFU d         -41.062  20.254  13.893  0.00  0.00    -0.363 OA
BRANCH  12  13
ATOM     13  CM  MFU d         -41.864  20.472  15.090  0.00  0.00     0.007 C 
ATOM     14  H12 MFU d         -41.202  20.551  15.965  0.00  0.00     0.066 H 
ATOM     15  H13 MFU d         -42.554  19.626  15.228  0.00  0.00     0.066 H 
ATOM     16  H14 MFU d         -42.441  21.402  14.981  0.00  0.00     0.066 H 
ENDBRANCH  12  13
ENDBRANCH   1  12
BRANCH   2  17
ATOM     17  O2  MFU d         -38.469  20.072  15.008  0.00  0.00    -0.388 OA
ATOM     18  H9  MFU d         -39.204  19.499  15.191  0.00  0.00     0.210 HD
ENDBRANCH   2  17
BRANCH   3  19
ATOM     19  O3  MFU d         -37.029  19.652  12.603  0.00  0.00    -0.390 OA
ATOM     20  H10 MFU d         -36.552  20.390  12.963  0.00  0.00     0.210 HD
ENDBRANCH   3  19
BRANCH   5  21
ATOM     21  C6  MFU d         -40.677  21.709   9.947  0.00  0.00    -0.050 C 
ATOM     22  H6  MFU d         -41.379  22.530  10.152  0.00  0.00     0.031 H 
ATOM     23  H7  MFU d         -41.182  20.934   9.351  0.00  0.00     0.031 H 
ATOM     24  H8  MFU d         -39.814  22.097   9.386  0.00  0.00     0.031 H 
ENDBRANCH   5  21
BRANCH   4  25
ATOM     25  O4  MFU d         -37.803  21.708  11.040  0.00  0.00    -0.390 OA
ATOM     26  H11 MFU d         -37.389  21.914  11.871  0.00  0.00     0.210 HD
ENDBRANCH   4  25
TORSDOF 6
ENDMDL
MODEL 4
REMARK VINA RESULT:      -4.9      1.371      1.442
REMARK  6 active torsions:
REMARK  status: ('A' for Active; 'I' for Inactive)
REMARK    1  A    between atoms: C1_1  and  O1_7 
REMARK    2  A    between atoms: C2_2  and  O2_8 
REMARK    3  A    between atoms: C3_3  and  O3_9 
REMARK    4  A    between atoms: C4_4  and  O4_10 
REMARK    5  A    between atoms: C5_5  and  C6_6 
REMARK    6  A    between atoms: O1_7  and  CM_12 
ROOT
ATOM      1  C1  MFU d         -39.798  21.243  11.511  0.00  0.00     0.158 C 
ATOM      2  C2  MFU d         -38.892  20.204  12.102  0.00  0.00     0.110 C 
ATOM      3  C3  MFU d         -38.706  20.460  13.610  0.00  0.00     0.092 C 
ATOM      4  C4  MFU d         -40.007  20.613  14.390  0.00  0.00     0.087 C 
ATOM      5  C5  MFU d         -40.824  21.697  13.706  0.00  0.00     0.065 C 
ATOM      6  O5  MFU d         -41.015  21.329  12.313  0.00  0.00    -0.351 OA
ATOM      7  H1  MFU d         -40.051  20.973  10.476  0.00  0.00     0.133 H 
ATOM      8  H2  MFU d         -39.377  19.226  11.972  0.00  0.00     0.094 H 
ATOM      9  H3  MFU d         -38.113  21.377  13.741  0.00  0.00     0.091 H 
ATOM     10  H4  MFU d         -39.794  20.923  15.423  0.00  0.00     0.091 H 
ATOM     11  H5  MFU d         -40.221  22.617  13.718  0.00  0.00     0.086 H 
ENDROOT
BRANCH   1  12
ATOM     12  O1  MFU d         -39.124  22.520  11.533  0.00  0.00    -0.363 OA
BRANCH  12  13
ATOM     13  CM  MFU d         -39.119  23.080  10.187  0.00  0.00     0.007 C 
ATOM     14  H12 MFU d         -40.097  23.535   9.975  0.00  0.00     0.066 H 
ATOM     15  H13 MFU d         -38.921  22.280   9.458  0.00  0.00     0.066 H 
ATOM     16  H14 MFU d         -38.333  23.847  10.112  0.00  0.00     0.066 H 
ENDBRANCH  12  13
ENDBRANCH   1  12
BRANCH   2  17
ATOM     17  O2  MFU d         -37.591  20.144  11.456  0.00  0.00    -0.388 OA
ATOM     18  H9  MFU d         -37.069  20.889  11.728  0.00  0.00     0.210 HD
ENDBRANCH   2  17
BRANCH   3  19
ATOM     19  O3  MFU d         -37.984  19.329  14.142  0.00  0.00    -0.390 OA
ATOM     20  H10 MFU d         -37.503  18.904  13.442  0.00  0.00     0.210 HD
ENDBRANCH   3  19
BRANCH   5  21
ATOM     21  C6  MFU d         -42.132  22.029  14.455  0.00  0.00    -0.050 C 
ATOM     22  H6  MFU d         -42.034  21.737  15.511  0.00  0.00     0.031 H 
ATOM     23  H7  MFU d         -42.967  21.477  13.998  0.00  0.00     0.031 H 
ATOM     24  H8  MFU d         -42.329  23.110  14.390  0.00  0.00     0.031 H 
ENDBRANCH   5  21
BRANCH   4  25
ATOM     25  O4  MFU d         -40.666  19.326  14.412  0.00  0.00    -0.390 OA
ATOM     26  H11 MFU d         -40.980  19.147  15.291  0.00  0.00     0.210 HD
ENDBRANCH   4  25
TORSDOF 6
ENDMDL
MODEL 5
REMARK VINA RESULT:      -4.6      1.862      2.053
REMARK  6 active torsions:
REMARK  status: ('A' for Active; 'I' for Inactive)
REMARK    1  A    between atoms: C1_1  and  O1_7 
REMARK    2  A    between atoms: C2_2  and  O2_8 
REMARK    3  A    between atoms: C3_3  and  O3_9 
REMARK    4  A    between atoms: C4_4  and  O4_10 
REMARK    5  A    between atoms: C5_5  and  C6_6 
REMARK    6  A    between atoms: O1_7  and  CM_12 
ROOT
ATOM      1  C1  MFU d         -39.756  21.604  11.720  0.00  0.00     0.158 C 
ATOM      2  C2  MFU d         -39.620  20.136  11.994  0.00  0.00     0.110 C 
ATOM      3  C3  MFU d         -38.692  19.907  13.202  0.00  0.00     0.092 C 
ATOM      4  C4  MFU d         -39.069  20.701  14.447  0.00  0.00     0.087 C 
ATOM      5  C5  MFU d         -39.159  22.164  14.045  0.00  0.00     0.065 C 
ATOM      6  O5  MFU d         -40.115  22.291  12.957  0.00  0.00    -0.351 OA
ATOM      7  H1  MFU d         -40.534  21.772  10.961  0.00  0.00     0.133 H 
ATOM      8  H2  MFU d         -40.619  19.749  12.244  0.00  0.00     0.094 H 
ATOM      9  H3  MFU d         -37.666  20.179  12.914  0.00  0.00     0.091 H 
ATOM     10  H4  MFU d         -38.291  20.589  15.217  0.00  0.00     0.091 H 
ATOM     11  H5  MFU d         -38.176  22.455  13.647  0.00  0.00     0.086 H 
ENDROOT
BRANCH   1  12
ATOM     12  O1  MFU d         -38.491  22.111  11.244  0.00  0.00    -0.363 OA
BRANCH  12  13
ATOM     13  CM  MFU d         -38.720  22.939  10.067  0.00  0.00     0.007 C 
ATOM     14  H12 MFU d         -38.278  22.453   9.185  0.00  0.00     0.066 H 
ATOM     15  H13 MFU d         -38.254  23.925  10.215  0.00  0.00     0.066 H 
ATOM     16  H14 MFU d         -39.802  23.066   9.913  0.00  0.00     0.066 H 
ENDBRANCH  12  13
ENDBRANCH   1  12
BRANCH   2  17
ATOM     17  O2  MFU d         -39.126  19.383  10.853  0.00  0.00    -0.388 OA
ATOM     18  H9  MFU d         -39.272  19.883  10.058  0.00  0.00     0.210 HD
ENDBRANCH   2  17
BRANCH   3  19
ATOM     19  O3  MFU d         -38.756  18.500  13.520  0.00  0.00    -0.390 OA
ATOM     20  H10 MFU d         -39.562  18.318  13.988  0.00  0.00     0.210 HD
ENDBRANCH   3  19
BRANCH   5  21
ATOM     21  C6  MFU d         -39.436  23.102  15.239  0.00  0.00    -0.050 C 
ATOM     22  H6  MFU d         -38.636  22.991  15.986  0.00  0.00     0.031 H 
ATOM     23  H7  MFU d         -40.403  22.840  15.694  0.00  0.00     0.031 H 
ATOM     24  H8  MFU d         -39.467  24.145  14.888  0.00  0.00     0.031 H 
ENDBRANCH   5  21
BRANCH   4  25
ATOM     25  O4  MFU d         -40.313  20.168  14.955  0.00  0.00    -0.390 OA
ATOM     26  H11 MFU d         -40.202  19.246  15.158  0.00  0.00     0.210 HD
ENDBRANCH   4  25
TORSDOF 6
ENDMDL
MODEL 6
REMARK VINA RESULT:      -4.1      1.728      3.365
REMARK  6 active torsions:
REMARK  status: ('A' for Active; 'I' for Inactive)
REMARK    1  A    between atoms: C1_1  and  O1_7 
REMARK    2  A    between atoms: C2_2  and  O2_8 
REMARK    3  A    between atoms: C3_3  and  O3_9 
REMARK    4  A    between atoms: C4_4  and  O4_10 
REMARK    5  A    between atoms: C5_5  and  C6_6 
REMARK    6  A    between atoms: O1_7  and  CM_12 
ROOT
ATOM      1  C1  MFU d         -39.751  22.600  13.114  0.00  0.00     0.158 C 
ATOM      2  C2  MFU d         -38.544  21.755  13.398  0.00  0.00     0.110 C 
ATOM      3  C3  MFU d         -38.639  20.423  12.630  0.00  0.00     0.092 C 
ATOM      4  C4  MFU d         -38.911  20.571  11.137  0.00  0.00     0.087 C 
ATOM      5  C5  MFU d         -40.157  21.428  10.984  0.00  0.00     0.065 C 
ATOM      6  O5  MFU d         -39.942  22.692  11.669  0.00  0.00    -0.351 OA
ATOM      7  H1  MFU d         -39.610  23.606  13.536  0.00  0.00     0.133 H 
ATOM      8  H2  MFU d         -37.661  22.303  13.036  0.00  0.00     0.094 H 
ATOM      9  H3  MFU d         -39.446  19.819  13.071  0.00  0.00     0.091 H 
ATOM     10  H4  MFU d         -39.097  19.586  10.687  0.00  0.00     0.091 H 
ATOM     11  H5  MFU d         -40.976  20.911  11.506  0.00  0.00     0.086 H 
ENDROOT
BRANCH   1  12
ATOM     12  O1  MFU d         -40.910  21.977  13.709  0.00  0.00    -0.363 OA
BRANCH  12  13
ATOM     13  CM  MFU d         -41.852  23.012  14.116  0.00  0.00     0.007 C 
ATOM     14  H12 MFU d         -41.744  23.203  15.194  0.00  0.00     0.066 H 
ATOM     15  H13 MFU d         -42.878  22.677  13.904  0.00  0.00     0.066 H 
ATOM     16  H14 MFU d         -41.645  23.937  13.557  0.00  0.00     0.066 H 
ENDBRANCH  12  13
ENDBRANCH   1  12
BRANCH   2  17
ATOM     17  O2  MFU d         -38.352  21.488  14.813  0.00  0.00    -0.388 OA
ATOM     18  H9  MFU d         -38.504  22.284  15.308  0.00  0.00     0.210 HD
ENDBRANCH   2  17
BRANCH   3  19
ATOM     19  O3  MFU d         -37.374  19.749  12.800  0.00  0.00    -0.390 OA
ATOM     20  H10 MFU d         -36.701  20.387  13.005  0.00  0.00     0.210 HD
ENDBRANCH   3  19
BRANCH   5  21
ATOM     21  C6  MFU d         -40.609  21.577   9.515  0.00  0.00    -0.050 C 
ATOM     22  H6  MFU d         -39.794  21.263   8.847  0.00  0.00     0.031 H 
ATOM     23  H7  MFU d         -40.864  22.628   9.315  0.00  0.00     0.031 H 
ATOM     24  H8  MFU d         -41.492  20.945   9.337  0.00  0.00     0.031 H 
ENDBRANCH   5  21
BRANCH   4  25
ATOM     25  O4  MFU d         -37.737  21.153  10.527  0.00  0.00    -0.390 OA
ATOM     26  H11 MFU d         -37.012  20.541  10.591  0.00  0.00     0.210 HD
ENDBRANCH   4  25
TORSDOF 6
ENDMDL
MODEL 7
REMARK VINA RESULT:      -3.7      1.612      3.513
REMARK  6 active torsions:
REMARK  status: ('A' for Active; 'I' for Inactive)
REMARK    1  A    between atoms: C1_1  and  O1_7 
REMARK    2  A    between atoms: C2_2  and  O2_8 
REMARK    3  A    between atoms: C3_3  and  O3_9 
REMARK    4  A    between atoms: C4_4  and  O4_10 
REMARK    5  A    between atoms: C5_5  and  C6_6 
REMARK    6  A    between atoms: O1_7  and  CM_12 
ROOT
ATOM      1  C1  MFU d         -38.389  21.436  12.626  0.00  0.00     0.158 C 
ATOM      2  C2  MFU d         -38.574  21.263  11.148  0.00  0.00     0.110 C 
ATOM      3  C3  MFU d         -40.035  20.886  10.838  0.00  0.00     0.092 C 
ATOM      4  C4  MFU d         -41.072  21.819  11.451  0.00  0.00     0.087 C 
ATOM      5  C5  MFU d         -40.790  21.898  12.943  0.00  0.00     0.065 C 
ATOM      6  O5  MFU d         -39.418  22.339  13.135  0.00  0.00    -0.351 OA
ATOM      7  H1  MFU d         -37.392  21.853  12.832  0.00  0.00     0.133 H 
ATOM      8  H2  MFU d         -38.355  22.229  10.670  0.00  0.00     0.094 H 
ATOM      9  H3  MFU d         -40.222  19.867  11.210  0.00  0.00     0.091 H 
ATOM     10  H4  MFU d         -42.083  21.413  11.300  0.00  0.00     0.091 H 
ATOM     11  H5  MFU d         -40.861  20.876  13.344  0.00  0.00     0.086 H 
ENDROOT
BRANCH   1  12
ATOM     12  O1  MFU d         -38.524  20.151  13.270  0.00  0.00    -0.363 OA
BRANCH  12  13
ATOM     13  CM  MFU d         -38.041  20.249  14.641  0.00  0.00     0.007 C 
ATOM     14  H12 MFU d         -37.074  20.773  14.652  0.00  0.00     0.066 H 
ATOM     15  H13 MFU d         -37.915  19.240  15.059  0.00  0.00     0.066 H 
ATOM     16  H14 MFU d         -38.768  20.810  15.247  0.00  0.00     0.066 H 
ENDBRANCH  12  13
ENDBRANCH   1  12
BRANCH   2  17
ATOM     17  O2  MFU d         -37.683  20.270  10.572  0.00  0.00    -0.388 OA
ATOM     18  H9  MFU d         -38.028  19.401  10.739  0.00  0.00     0.210 HD
ENDBRANCH   2  17
BRANCH   3  19
ATOM     19  O3  MFU d         -40.182  20.918   9.402  0.00  0.00    -0.390 OA
ATOM     20  H10 MFU d         -39.801  21.720   9.064  0.00  0.00     0.210 HD
ENDBRANCH   3  19
BRANCH   5  21
ATOM     21  C6  MFU d         -41.834  22.736  13.711  0.00  0.00    -0.050 C 
ATOM     22  H6  MFU d         -41.832  23.767  13.326  0.00  0.00     0.031 H 
ATOM     23  H7  MFU d         -41.583  22.743  14.782  0.00  0.00     0.031 H 
ATOM     24  H8  MFU d         -42.833  22.295  13.572  0.00  0.00     0.031 H 
ENDBRANCH   5  21
BRANCH   4  25
ATOM     25  O4  MFU d         -40.974  23.096  10.781  0.00  0.00    -0.390 OA
ATOM     26  H11 MFU d         -41.565  23.716  11.193  0.00  0.00     0.210 HD
ENDBRANCH   4  25
TORSDOF 6
ENDMDL
