MODEL 1
REMARK VINA RESULT:      -6.1      0.000      0.000
REMARK  16 active torsions:
REMARK  status: ('A' for Active; 'I' for Inactive)
REMARK    1  A    between atoms: C1_1  and  C2_4 
REMARK    2  A    between atoms: C2_4  and  O2_16 
REMARK    3  A    between atoms: C4_6  and  O4_7 
REMARK    4  A    between atoms: C5_8  and  O5_9 
REMARK    5  A    between atoms: C6_10  and  C7_12 
REMARK    6  A    between atoms: C7_12  and  O7_13 
REMARK    7  A    between atoms: C7_12  and  C8_14 
REMARK    8  A    between atoms: C8_14  and  O8_15 
REMARK    9  A    between atoms: O8_15  and  C2_20 
REMARK   10  A    between atoms: O2_16  and  C9_17 
REMARK   11  A    between atoms: C10_18  and  C11_19 
REMARK   12  A    between atoms: C2_20  and  C1_21 
REMARK   13  A    between atoms: C6_27  and  C7_29 
REMARK   14  A    between atoms: C7_29  and  O7_30 
REMARK   15  A    between atoms: C7_29  and  C8_31 
REMARK   16  A    between atoms: C8_31  and  O8_32 
ROOT
ATOM      1  C7  KDA d          29.585  -5.174   1.859  0.00  0.00     0.083 C 
ATOM      2  H8  KDA d          30.631  -5.300   1.542  0.00  0.00     0.090 H 
ENDROOT
BRANCH   1   3
ATOM      3  C6  KDA d          29.014  -3.898   1.253  0.00  0.00     0.096 C 
ATOM      4  C5  KDA d          28.207  -4.080  -0.050  0.00  0.00     0.088 C 
ATOM      5  C4  KDA d          27.774  -2.701  -0.589  0.00  0.00     0.068 C 
ATOM      6  H5  KDA d          27.308  -4.682   0.146  0.00  0.00     0.091 H 
ATOM      7  C3  KDA d          28.922  -1.675  -0.698  0.00  0.00     0.024 C 
ATOM      8  H3  KDA d          27.021  -2.298   0.103  0.00  0.00     0.087 H 
ATOM      9  C2  KDA d          29.792  -1.701   0.581  0.00  0.00     0.262 C 
ATOM     10  H1  KDA d          29.549  -1.924  -1.567  0.00  0.00     0.045 H 
ATOM     11  H2  KDA d          28.498  -0.669  -0.828  0.00  0.00     0.045 H 
ATOM     12  O6  KDA d          30.144  -3.027   0.974  0.00  0.00    -0.335 OA
ATOM     13  H7  KDA d          28.355  -3.427   1.997  0.00  0.00     0.091 H 
BRANCH   4  14
ATOM     14  O5  KDA d          29.074  -4.793  -0.981  0.00  0.00    -0.390 OA
ATOM     15  H6  KDA d          28.609  -5.542  -1.335  0.00  0.00     0.210 HD
ENDBRANCH   4  14
BRANCH   5  16
ATOM     16  O4  KDA d          27.189  -2.825  -1.886  0.00  0.00    -0.393 OA
ATOM     17  H4  KDA d          27.045  -3.744  -2.080  0.00  0.00     0.210 HD
ENDBRANCH   5  16
BRANCH   9  18
ATOM     18  C1  KDA d          31.054  -0.876   0.250  0.00  0.00     0.239 C 
ATOM     19  O1A KDA d          30.904   0.331  -0.053  0.00  0.00    -0.644 OA
ATOM     20  O1B KDA d          32.147  -1.495   0.309  0.00  0.00    -0.644 OA
ENDBRANCH   9  18
BRANCH   9  21
ATOM     21  O2  KDA d          29.046  -1.050   1.662  0.00  0.00    -0.317 OA
BRANCH  21  22
ATOM     22  C9  KDA d          29.908  -0.917   2.730  0.00  0.00     0.013 C 
ATOM     23  C10 KDA d          29.717  -0.053   3.803  0.00  0.00    -0.086 C 
ATOM     24  H13 KDA d          30.483   0.006   4.575  0.00  0.00     0.079 H 
ATOM     25  H12 KDA d          30.805  -1.535   2.735  0.00  0.00     0.122 H 
BRANCH  23  26
ATOM     26  C11 KDA d          28.592   0.729   3.920  0.00  0.00    -0.058 C 
ATOM     27  H14 KDA d          28.689   1.610   3.268  0.00  0.00     0.032 H 
ATOM     28  H15 KDA d          28.480   1.056   4.964  0.00  0.00     0.032 H 
ATOM     29  H16 KDA d          27.708   0.147   3.622  0.00  0.00     0.032 H 
ENDBRANCH  23  26
ENDBRANCH  21  22
ENDBRANCH   9  21
ENDBRANCH   1   3
BRANCH   1  30
ATOM     30  O7  KDA d          28.796  -6.284   1.414  0.00  0.00    -0.391 OA
ATOM     31  H9  KDA d          28.760  -6.940   2.100  0.00  0.00     0.210 HD
ENDBRANCH   1  30
BRANCH   1  32
ATOM     32  C8  KDA d          29.508  -5.112   3.385  0.00  0.00     0.050 C 
ATOM     33  H10 KDA d          30.513  -5.079   3.830  0.00  0.00     0.078 H 
ATOM     34  H11 KDA d          28.957  -5.974   3.788  0.00  0.00     0.078 H 
BRANCH  32  35
ATOM     35  O8  KDA d          28.784  -3.864   3.630  0.00  0.00    -0.341 OA
BRANCH  35  36
ATOM     36  C2  KDA d          27.669  -3.983   4.575  0.00  0.00     0.276 C 
ATOM     37  C3  KDA d          26.969  -2.779   4.674  0.00  0.00    -0.036 C 
ATOM     38  C4  KDA d          26.956  -1.946   5.815  0.00  0.00    -0.099 C 
ATOM     39  H17 KDA d          26.391  -2.459   3.808  0.00  0.00     0.085 H 
ATOM     40  C5  KDA d          27.672  -2.249   6.979  0.00  0.00    -0.023 C 
ATOM     41  H18 KDA d          26.364  -1.032   5.787  0.00  0.00     0.076 H 
ATOM     42  C6  KDA d          28.705  -3.349   6.732  0.00  0.00     0.072 C 
ATOM     43  H19 KDA d          26.969  -2.588   7.754  0.00  0.00     0.042 H 
ATOM     44  H20 KDA d          28.192  -1.343   7.325  0.00  0.00     0.042 H 
ATOM     45  O6  KDA d          28.157  -4.388   5.878  0.00  0.00    -0.335 OA
ATOM     46  H21 KDA d          29.582  -2.882   6.259  0.00  0.00     0.088 H 
BRANCH  36  47
ATOM     47  C1  KDA d          26.708  -5.070   4.076  0.00  0.00     0.243 C 
ATOM     48  O1B KDA d          26.190  -4.886   2.980  0.00  0.00    -0.644 OA
ATOM     49  O1A KDA d          26.527  -6.057   4.814  0.00  0.00    -0.644 OA
ENDBRANCH  36  47
BRANCH  42  50
ATOM     50  C7  KDA d          29.159  -4.162   7.959  0.00  0.00     0.081 C 
ATOM     51  H22 KDA d          28.286  -4.313   8.612  0.00  0.00     0.090 H 
BRANCH  50  52
ATOM     52  O7  KDA d          30.141  -3.418   8.663  0.00  0.00    -0.391 OA
ATOM     53  H23 KDA d          29.915  -3.389   9.585  0.00  0.00     0.210 HD
ENDBRANCH  50  52
BRANCH  50  54
ATOM     54  C8  KDA d          29.729  -5.528   7.608  0.00  0.00     0.043 C 
ATOM     55  H24 KDA d          28.935  -6.147   7.166  0.00  0.00     0.078 H 
ATOM     56  H25 KDA d          30.101  -6.009   8.525  0.00  0.00     0.078 H 
BRANCH  54  57
ATOM     57  O8  KDA d          30.811  -5.410   6.669  0.00  0.00    -0.398 OA
ATOM     58  H26 KDA d          31.599  -5.783   7.046  0.00  0.00     0.209 HD
ENDBRANCH  54  57
ENDBRANCH  50  54
ENDBRANCH  42  50
ENDBRANCH  35  36
ENDBRANCH  32  35
ENDBRANCH   1  32
TORSDOF 16
ENDMDL
MODEL 2
REMARK VINA RESULT:      -5.6      1.708      3.537
REMARK  16 active torsions:
REMARK  status: ('A' for Active; 'I' for Inactive)
REMARK    1  A    between atoms: C1_1  and  C2_4 
REMARK    2  A    between atoms: C2_4  and  O2_16 
REMARK    3  A    between atoms: C4_6  and  O4_7 
REMARK    4  A    between atoms: C5_8  and  O5_9 
REMARK    5  A    between atoms: C6_10  and  C7_12 
REMARK    6  A    between atoms: C7_12  and  O7_13 
REMARK    7  A    between atoms: C7_12  and  C8_14 
REMARK    8  A    between atoms: C8_14  and  O8_15 
REMARK    9  A    between atoms: O8_15  and  C2_20 
REMARK   10  A    between atoms: O2_16  and  C9_17 
REMARK   11  A    between atoms: C10_18  and  C11_19 
REMARK   12  A    between atoms: C2_20  and  C1_21 
REMARK   13  A    between atoms: C6_27  and  C7_29 
REMARK   14  A    between atoms: C7_29  and  O7_30 
REMARK   15  A    between atoms: C7_29  and  C8_31 
REMARK   16  A    between atoms: C8_31  and  O8_32 
ROOT
ATOM      1  C7  KDA d          29.648  -5.768   1.791  0.00  0.00     0.083 C 
ATOM      2  H8  KDA d          30.577  -6.262   1.469  0.00  0.00     0.090 H 
ENDROOT
BRANCH   1   3
ATOM      3  C6  KDA d          29.550  -4.388   1.152  0.00  0.00     0.096 C 
ATOM      4  C5  KDA d          28.344  -4.172   0.213  0.00  0.00     0.088 C 
ATOM      5  C4  KDA d          28.430  -2.771  -0.426  0.00  0.00     0.068 C 
ATOM      6  H5  KDA d          27.406  -4.246   0.782  0.00  0.00     0.091 H 
ATOM      7  C3  KDA d          29.796  -2.451  -1.071  0.00  0.00     0.024 C 
ATOM      8  H3  KDA d          28.247  -2.034   0.369  0.00  0.00     0.087 H 
ATOM      9  C2  KDA d          30.948  -2.879  -0.132  0.00  0.00     0.262 C 
ATOM     10  H1  KDA d          29.883  -2.994  -2.023  0.00  0.00     0.045 H 
ATOM     11  H2  KDA d          29.864  -1.369  -1.258  0.00  0.00     0.045 H 
ATOM     12  O6  KDA d          30.769  -4.197   0.384  0.00  0.00    -0.335 OA
ATOM     13  H7  KDA d          29.493  -3.639   1.955  0.00  0.00     0.091 H 
BRANCH   4  14
ATOM     14  O5  KDA d          28.393  -5.239  -0.781  0.00  0.00    -0.390 OA
ATOM     15  H6  KDA d          27.811  -5.027  -1.500  0.00  0.00     0.210 HD
ENDBRANCH   4  14
BRANCH   5  16
ATOM     16  O4  KDA d          27.434  -2.614  -1.438  0.00  0.00    -0.393 OA
ATOM     17  H4  KDA d          27.694  -3.096  -2.214  0.00  0.00     0.210 HD
ENDBRANCH   5  16
BRANCH   9  18
ATOM     18  C1  KDA d          32.236  -2.795  -0.979  0.00  0.00     0.239 C 
ATOM     19  O1A KDA d          32.760  -3.868  -1.361  0.00  0.00    -0.644 OA
ATOM     20  O1B KDA d          32.664  -1.636  -1.216  0.00  0.00    -0.644 OA
ENDBRANCH   9  18
BRANCH   9  21
ATOM     21  O2  KDA d          31.023  -1.924   0.976  0.00  0.00    -0.317 OA
BRANCH  21  22
ATOM     22  C9  KDA d          32.057  -2.328   1.795  0.00  0.00     0.013 C 
ATOM     23  C10 KDA d          32.797  -1.484   2.615  0.00  0.00    -0.086 C 
ATOM     24  H13 KDA d          33.624  -1.900   3.190  0.00  0.00     0.079 H 
ATOM     25  H12 KDA d          32.313  -3.386   1.799  0.00  0.00     0.122 H 
BRANCH  23  26
ATOM     26  C11 KDA d          32.520  -0.141   2.725  0.00  0.00    -0.058 C 
ATOM     27  H14 KDA d          33.050   0.408   1.932  0.00  0.00     0.032 H 
ATOM     28  H15 KDA d          32.852   0.223   3.708  0.00  0.00     0.032 H 
ATOM     29  H16 KDA d          31.437   0.019   2.621  0.00  0.00     0.032 H 
ENDBRANCH  23  26
ENDBRANCH  21  22
ENDBRANCH   9  21
ENDBRANCH   1   3
BRANCH   1  30
ATOM     30  O7  KDA d          28.511  -6.541   1.389  0.00  0.00    -0.391 OA
ATOM     31  H9  KDA d          28.723  -7.029   0.603  0.00  0.00     0.210 HD
ENDBRANCH   1  30
BRANCH   1  32
ATOM     32  C8  KDA d          29.628  -5.644   3.316  0.00  0.00     0.050 C 
ATOM     33  H10 KDA d          30.501  -6.141   3.764  0.00  0.00     0.078 H 
ATOM     34  H11 KDA d          28.707  -6.073   3.735  0.00  0.00     0.078 H 
BRANCH  32  35
ATOM     35  O8  KDA d          29.678  -4.198   3.531  0.00  0.00    -0.341 OA
BRANCH  35  36
ATOM     36  C2  KDA d          28.636  -3.678   4.423  0.00  0.00     0.276 C 
ATOM     37  C3  KDA d          27.451  -4.402   4.278  0.00  0.00    -0.036 C 
ATOM     38  C4  KDA d          26.262  -3.896   3.708  0.00  0.00    -0.099 C 
ATOM     39  H17 KDA d          27.443  -5.433   4.631  0.00  0.00     0.085 H 
ATOM     40  C5  KDA d          26.160  -2.591   3.208  0.00  0.00    -0.023 C 
ATOM     41  H18 KDA d          25.390  -4.545   3.655  0.00  0.00     0.076 H 
ATOM     42  C6  KDA d          27.536  -1.948   3.036  0.00  0.00     0.072 C 
ATOM     43  H19 KDA d          25.568  -1.985   3.909  0.00  0.00     0.042 H 
ATOM     44  H20 KDA d          25.655  -2.621   2.231  0.00  0.00     0.042 H 
ATOM     45  O6  KDA d          28.402  -2.274   4.156  0.00  0.00    -0.335 OA
ATOM     46  H21 KDA d          27.964  -2.324   2.095  0.00  0.00     0.088 H 
BRANCH  36  47
ATOM     47  C1  KDA d          29.115  -3.806   5.874  0.00  0.00     0.243 C 
ATOM     48  O1B KDA d          28.267  -4.094   6.711  0.00  0.00    -0.644 OA
ATOM     49  O1A KDA d          30.326  -3.613   6.097  0.00  0.00    -0.644 OA
ENDBRANCH  36  47
BRANCH  42  50
ATOM     50  C7  KDA d          27.587  -0.408   3.041  0.00  0.00     0.081 C 
ATOM     51  H22 KDA d          26.590  -0.034   3.319  0.00  0.00     0.090 H 
BRANCH  50  52
ATOM     52  O7  KDA d          27.905   0.043   1.734  0.00  0.00    -0.391 OA
ATOM     53  H23 KDA d          27.781  -0.668   1.115  0.00  0.00     0.210 HD
ENDBRANCH  50  52
BRANCH  50  54
ATOM     54  C8  KDA d          28.599   0.165   4.022  0.00  0.00     0.043 C 
ATOM     55  H24 KDA d          29.284  -0.635   4.340  0.00  0.00     0.078 H 
ATOM     56  H25 KDA d          28.066   0.561   4.899  0.00  0.00     0.078 H 
BRANCH  54  57
ATOM     57  O8  KDA d          29.361   1.223   3.419  0.00  0.00    -0.398 OA
ATOM     58  H26 KDA d          28.995   1.429   2.566  0.00  0.00     0.209 HD
ENDBRANCH  54  57
ENDBRANCH  50  54
ENDBRANCH  42  50
ENDBRANCH  35  36
ENDBRANCH  32  35
ENDBRANCH   1  32
TORSDOF 16
ENDMDL
MODEL 3
REMARK VINA RESULT:      -5.4      1.883      4.803
REMARK  16 active torsions:
REMARK  status: ('A' for Active; 'I' for Inactive)
REMARK    1  A    between atoms: C1_1  and  C2_4 
REMARK    2  A    between atoms: C2_4  and  O2_16 
REMARK    3  A    between atoms: C4_6  and  O4_7 
REMARK    4  A    between atoms: C5_8  and  O5_9 
REMARK    5  A    between atoms: C6_10  and  C7_12 
REMARK    6  A    between atoms: C7_12  and  O7_13 
REMARK    7  A    between atoms: C7_12  and  C8_14 
REMARK    8  A    between atoms: C8_14  and  O8_15 
REMARK    9  A    between atoms: O8_15  and  C2_20 
REMARK   10  A    between atoms: O2_16  and  C9_17 
REMARK   11  A    between atoms: C10_18  and  C11_19 
REMARK   12  A    between atoms: C2_20  and  C1_21 
REMARK   13  A    between atoms: C6_27  and  C7_29 
REMARK   14  A    between atoms: C7_29  and  O7_30 
REMARK   15  A    between atoms: C7_29  and  C8_31 
REMARK   16  A    between atoms: C8_31  and  O8_32 
ROOT
ATOM      1  C7  KDA d          28.084   0.248   3.794  0.00  0.00     0.083 C 
ATOM      2  H8  KDA d          27.050  -0.099   3.651  0.00  0.00     0.090 H 
ENDROOT
BRANCH   1   3
ATOM      3  C6  KDA d          29.031  -0.595   2.948  0.00  0.00     0.096 C 
ATOM      4  C5  KDA d          30.514  -0.169   2.981  0.00  0.00     0.088 C 
ATOM      5  C4  KDA d          31.328  -1.050   2.011  0.00  0.00     0.068 C 
ATOM      6  H5  KDA d          30.917  -0.293   3.997  0.00  0.00     0.091 H 
ATOM      7  C3  KDA d          30.733  -1.146   0.591  0.00  0.00     0.024 C 
ATOM      8  H3  KDA d          31.362  -2.064   2.436  0.00  0.00     0.087 H 
ATOM      9  C2  KDA d          29.206  -1.384   0.661  0.00  0.00     0.262 C 
ATOM     10  H1  KDA d          30.929  -0.208   0.052  0.00  0.00     0.045 H 
ATOM     11  H2  KDA d          31.206  -1.982   0.055  0.00  0.00     0.045 H 
ATOM     12  O6  KDA d          28.558  -0.502   1.576  0.00  0.00    -0.335 OA
ATOM     13  H7  KDA d          28.969  -1.637   3.294  0.00  0.00     0.091 H 
BRANCH   4  14
ATOM     14  O5  KDA d          30.552   1.242   2.613  0.00  0.00    -0.390 OA
ATOM     15  H6  KDA d          29.853   1.704   3.061  0.00  0.00     0.210 HD
ENDBRANCH   4  14
BRANCH   5  16
ATOM     16  O4  KDA d          32.664  -0.561   1.882  0.00  0.00    -0.393 OA
ATOM     17  H4  KDA d          33.200  -1.217   1.452  0.00  0.00     0.210 HD
ENDBRANCH   5  16
BRANCH   9  18
ATOM     18  C1  KDA d          28.679  -1.168  -0.773  0.00  0.00     0.239 C 
ATOM     19  O1A KDA d          29.518  -0.989  -1.687  0.00  0.00    -0.644 OA
ATOM     20  O1B KDA d          27.429  -1.184  -0.908  0.00  0.00    -0.644 OA
ENDBRANCH   9  18
BRANCH   9  21
ATOM     21  O2  KDA d          28.971  -2.772   1.069  0.00  0.00    -0.317 OA
BRANCH  21  22
ATOM     22  C9  KDA d          29.615  -3.581   0.155  0.00  0.00     0.013 C 
ATOM     23  C10 KDA d          30.444  -4.647   0.483  0.00  0.00    -0.086 C 
ATOM     24  H13 KDA d          30.940  -5.195  -0.317  0.00  0.00     0.079 H 
ATOM     25  H12 KDA d          29.462  -3.369  -0.902  0.00  0.00     0.122 H 
BRANCH  23  26
ATOM     26  C11 KDA d          30.660  -5.032   1.786  0.00  0.00    -0.058 C 
ATOM     27  H14 KDA d          30.371  -4.214   2.462  0.00  0.00     0.032 H 
ATOM     28  H15 KDA d          31.725  -5.266   1.927  0.00  0.00     0.032 H 
ATOM     29  H16 KDA d          30.056  -5.924   2.009  0.00  0.00     0.032 H 
ENDBRANCH  23  26
ENDBRANCH  21  22
ENDBRANCH   9  21
ENDBRANCH   1   3
BRANCH   1  30
ATOM     30  O7  KDA d          28.207   1.617   3.391  0.00  0.00    -0.391 OA
ATOM     31  H9  KDA d          28.866   2.045   3.926  0.00  0.00     0.210 HD
ENDBRANCH   1  30
BRANCH   1  32
ATOM     32  C8  KDA d          28.467   0.146   5.271  0.00  0.00     0.050 C 
ATOM     33  H10 KDA d          28.535   1.143   5.731  0.00  0.00     0.078 H 
ATOM     34  H11 KDA d          29.424  -0.381   5.396  0.00  0.00     0.078 H 
BRANCH  32  35
ATOM     35  O8  KDA d          27.365  -0.625   5.846  0.00  0.00    -0.341 OA
BRANCH  35  36
ATOM     36  C2  KDA d          27.766  -1.894   6.464  0.00  0.00     0.276 C 
ATOM     37  C3  KDA d          29.153  -2.050   6.424  0.00  0.00    -0.036 C 
ATOM     38  C4  KDA d          29.834  -3.003   5.634  0.00  0.00    -0.099 C 
ATOM     39  H17 KDA d          29.754  -1.388   7.048  0.00  0.00     0.085 H 
ATOM     40  C5  KDA d          29.167  -3.894   4.784  0.00  0.00    -0.023 C 
ATOM     41  H18 KDA d          30.921  -3.046   5.689  0.00  0.00     0.076 H 
ATOM     42  C6  KDA d          27.714  -3.474   4.560  0.00  0.00     0.072 C 
ATOM     43  H19 KDA d          29.183  -4.897   5.234  0.00  0.00     0.042 H 
ATOM     44  H20 KDA d          29.685  -3.918   3.814  0.00  0.00     0.042 H 
ATOM     45  O6  KDA d          27.117  -3.003   5.798  0.00  0.00    -0.335 OA
ATOM     46  H21 KDA d          27.711  -2.678   3.802  0.00  0.00     0.088 H 
BRANCH  36  47
ATOM     47  C1  KDA d          27.314  -1.897   7.930  0.00  0.00     0.243 C 
ATOM     48  O1B KDA d          27.377  -2.968   8.524  0.00  0.00    -0.644 OA
ATOM     49  O1A KDA d          26.921  -0.817   8.411  0.00  0.00    -0.644 OA
ENDBRANCH  36  47
BRANCH  42  50
ATOM     50  C7  KDA d          26.730  -4.582   4.141  0.00  0.00     0.081 C 
ATOM     51  H22 KDA d          25.718  -4.276   4.447  0.00  0.00     0.090 H 
BRANCH  50  52
ATOM     52  O7  KDA d          27.077  -5.782   4.816  0.00  0.00    -0.391 OA
ATOM     53  H23 KDA d          27.815  -5.618   5.391  0.00  0.00     0.210 HD
ENDBRANCH  50  52
BRANCH  50  54
ATOM     54  C8  KDA d          26.711  -4.845   2.642  0.00  0.00     0.043 C 
ATOM     55  H24 KDA d          25.997  -5.653   2.427  0.00  0.00     0.078 H 
ATOM     56  H25 KDA d          27.717  -5.151   2.318  0.00  0.00     0.078 H 
BRANCH  54  57
ATOM     57  O8  KDA d          26.322  -3.668   1.916  0.00  0.00    -0.398 OA
ATOM     58  H26 KDA d          25.807  -3.920   1.159  0.00  0.00     0.209 HD
ENDBRANCH  54  57
ENDBRANCH  50  54
ENDBRANCH  42  50
ENDBRANCH  35  36
ENDBRANCH  32  35
ENDBRANCH   1  32
TORSDOF 16
ENDMDL
MODEL 4
REMARK VINA RESULT:      -5.2      2.092      6.581
REMARK  16 active torsions:
REMARK  status: ('A' for Active; 'I' for Inactive)
REMARK    1  A    between atoms: C1_1  and  C2_4 
REMARK    2  A    between atoms: C2_4  and  O2_16 
REMARK    3  A    between atoms: C4_6  and  O4_7 
REMARK    4  A    between atoms: C5_8  and  O5_9 
REMARK    5  A    between atoms: C6_10  and  C7_12 
REMARK    6  A    between atoms: C7_12  and  O7_13 
REMARK    7  A    between atoms: C7_12  and  C8_14 
REMARK    8  A    between atoms: C8_14  and  O8_15 
REMARK    9  A    between atoms: O8_15  and  C2_20 
REMARK   10  A    between atoms: O2_16  and  C9_17 
REMARK   11  A    between atoms: C10_18  and  C11_19 
REMARK   12  A    between atoms: C2_20  and  C1_21 
REMARK   13  A    between atoms: C6_27  and  C7_29 
REMARK   14  A    between atoms: C7_29  and  O7_30 
REMARK   15  A    between atoms: C7_29  and  C8_31 
REMARK   16  A    between atoms: C8_31  and  O8_32 
ROOT
ATOM      1  C7  KDA d          31.573  -0.470   2.395  0.00  0.00     0.083 C 
ATOM      2  H8  KDA d          32.091   0.211   3.087  0.00  0.00     0.090 H 
ENDROOT
BRANCH   1   3
ATOM      3  C6  KDA d          30.332  -1.044   3.067  0.00  0.00     0.096 C 
ATOM      4  C5  KDA d          29.054  -0.187   2.951  0.00  0.00     0.088 C 
ATOM      5  C4  KDA d          27.913  -0.847   3.754  0.00  0.00     0.068 C 
ATOM      6  H5  KDA d          28.748  -0.109   1.898  0.00  0.00     0.091 H 
ATOM      7  C3  KDA d          28.292  -1.221   5.202  0.00  0.00     0.024 C 
ATOM      8  H3  KDA d          27.630  -1.770   3.226  0.00  0.00     0.087 H 
ATOM      9  C2  KDA d          29.679  -1.905   5.238  0.00  0.00     0.262 C 
ATOM     10  H1  KDA d          28.322  -0.309   5.816  0.00  0.00     0.045 H 
ATOM     11  H2  KDA d          27.536  -1.910   5.608  0.00  0.00     0.045 H 
ATOM     12  O6  KDA d          30.655  -1.198   4.476  0.00  0.00    -0.335 OA
ATOM     13  H7  KDA d          30.123  -2.028   2.623  0.00  0.00     0.091 H 
BRANCH   4  14
ATOM     14  O5  KDA d          29.393   1.138   3.457  0.00  0.00    -0.390 OA
ATOM     15  H6  KDA d          29.284   1.778   2.764  0.00  0.00     0.210 HD
ENDBRANCH   4  14
BRANCH   5  16
ATOM     16  O4  KDA d          26.776   0.014   3.819  0.00  0.00    -0.393 OA
ATOM     17  H4  KDA d          26.993   0.853   3.429  0.00  0.00     0.210 HD
ENDBRANCH   5  16
BRANCH   9  18
ATOM     18  C1  KDA d          30.083  -1.963   6.726  0.00  0.00     0.239 C 
ATOM     19  O1A KDA d          29.340  -1.391   7.559  0.00  0.00    -0.644 OA
ATOM     20  O1B KDA d          31.145  -2.584   6.985  0.00  0.00    -0.644 OA
ENDBRANCH   9  18
BRANCH   9  21
ATOM     21  O2  KDA d          29.538  -3.266   4.712  0.00  0.00    -0.317 OA
BRANCH  21  22
ATOM     22  C9  KDA d          28.400  -3.806   5.274  0.00  0.00     0.013 C 
ATOM     23  C10 KDA d          27.659  -4.846   4.725  0.00  0.00    -0.086 C 
ATOM     24  H13 KDA d          26.749  -5.168   5.229  0.00  0.00     0.079 H 
ATOM     25  H12 KDA d          28.055  -3.385   6.217  0.00  0.00     0.122 H 
BRANCH  23  26
ATOM     26  C11 KDA d          28.039  -5.482   3.566  0.00  0.00    -0.058 C 
ATOM     27  H14 KDA d          28.593  -6.399   3.816  0.00  0.00     0.032 H 
ATOM     28  H15 KDA d          28.681  -4.814   2.975  0.00  0.00     0.032 H 
ATOM     29  H16 KDA d          27.144  -5.743   2.981  0.00  0.00     0.032 H 
ENDBRANCH  23  26
ENDBRANCH  21  22
ENDBRANCH   9  21
ENDBRANCH   1   3
BRANCH   1  30
ATOM     30  O7  KDA d          31.169   0.236   1.215  0.00  0.00    -0.391 OA
ATOM     31  H9  KDA d          30.254   0.478   1.290  0.00  0.00     0.210 HD
ENDBRANCH   1  30
BRANCH   1  32
ATOM     32  C8  KDA d          32.515  -1.600   1.977  0.00  0.00     0.050 C 
ATOM     33  H10 KDA d          33.292  -1.769   2.737  0.00  0.00     0.078 H 
ATOM     34  H11 KDA d          32.990  -1.381   1.010  0.00  0.00     0.078 H 
BRANCH  32  35
ATOM     35  O8  KDA d          31.622  -2.755   1.873  0.00  0.00    -0.341 OA
BRANCH  35  36
ATOM     36  C2  KDA d          31.717  -3.486   0.605  0.00  0.00     0.276 C 
ATOM     37  C3  KDA d          32.503  -2.789  -0.314  0.00  0.00    -0.036 C 
ATOM     38  C4  KDA d          32.015  -2.174  -1.489  0.00  0.00    -0.099 C 
ATOM     39  H17 KDA d          33.570  -2.713  -0.111  0.00  0.00     0.085 H 
ATOM     40  C5  KDA d          30.660  -2.194  -1.845  0.00  0.00    -0.023 C 
ATOM     41  H18 KDA d          32.720  -1.665  -2.144  0.00  0.00     0.076 H 
ATOM     42  C6  KDA d          29.779  -2.626  -0.672  0.00  0.00     0.072 C 
ATOM     43  H19 KDA d          30.519  -2.901  -2.676  0.00  0.00     0.042 H 
ATOM     44  H20 KDA d          30.360  -1.186  -2.165  0.00  0.00     0.042 H 
ATOM     45  O6  KDA d          30.395  -3.718   0.061  0.00  0.00    -0.335 OA
ATOM     46  H21 KDA d          29.641  -1.751  -0.020  0.00  0.00     0.088 H 
BRANCH  36  47
ATOM     47  C1  KDA d          32.363  -4.852   0.866  0.00  0.00     0.243 C 
ATOM     48  O1B KDA d          32.976  -5.359  -0.066  0.00  0.00    -0.644 OA
ATOM     49  O1A KDA d          32.222  -5.344   2.003  0.00  0.00    -0.644 OA
ENDBRANCH  36  47
BRANCH  42  50
ATOM     50  C7  KDA d          28.403  -3.223  -1.023  0.00  0.00     0.081 C 
ATOM     51  H22 KDA d          28.509  -3.810  -1.947  0.00  0.00     0.090 H 
BRANCH  50  52
ATOM     52  O7  KDA d          27.489  -2.161  -1.251  0.00  0.00    -0.391 OA
ATOM     53  H23 KDA d          27.134  -1.866  -0.420  0.00  0.00     0.210 HD
ENDBRANCH  50  52
BRANCH  50  54
ATOM     54  C8  KDA d          27.842  -4.136   0.057  0.00  0.00     0.043 C 
ATOM     55  H24 KDA d          26.745  -4.048   0.069  0.00  0.00     0.078 H 
ATOM     56  H25 KDA d          28.244  -3.829   1.034  0.00  0.00     0.078 H 
BRANCH  54  57
ATOM     57  O8  KDA d          28.200  -5.506  -0.188  0.00  0.00    -0.398 OA
ATOM     58  H26 KDA d          28.572  -5.881   0.602  0.00  0.00     0.209 HD
ENDBRANCH  54  57
ENDBRANCH  50  54
ENDBRANCH  42  50
ENDBRANCH  35  36
ENDBRANCH  32  35
ENDBRANCH   1  32
TORSDOF 16
ENDMDL
MODEL 5
REMARK VINA RESULT:      -5.0      2.159      6.394
REMARK  16 active torsions:
REMARK  status: ('A' for Active; 'I' for Inactive)
REMARK    1  A    between atoms: C1_1  and  C2_4 
REMARK    2  A    between atoms: C2_4  and  O2_16 
REMARK    3  A    between atoms: C4_6  and  O4_7 
REMARK    4  A    between atoms: C5_8  and  O5_9 
REMARK    5  A    between atoms: C6_10  and  C7_12 
REMARK    6  A    between atoms: C7_12  and  O7_13 
REMARK    7  A    between atoms: C7_12  and  C8_14 
REMARK    8  A    between atoms: C8_14  and  O8_15 
REMARK    9  A    between atoms: O8_15  and  C2_20 
REMARK   10  A    between atoms: O2_16  and  C9_17 
REMARK   11  A    between atoms: C10_18  and  C11_19 
REMARK   12  A    between atoms: C2_20  and  C1_21 
REMARK   13  A    between atoms: C6_27  and  C7_29 
REMARK   14  A    between atoms: C7_29  and  O7_30 
REMARK   15  A    between atoms: C7_29  and  C8_31 
REMARK   16  A    between atoms: C8_31  and  O8_32 
ROOT
ATOM      1  C7  KDA d          31.709  -0.366   2.324  0.00  0.00     0.083 C 
ATOM      2  H8  KDA d          32.258  -1.281   2.596  0.00  0.00     0.090 H 
ENDROOT
BRANCH   1   3
ATOM      3  C6  KDA d          30.572  -0.134   3.311  0.00  0.00     0.096 C 
ATOM      4  C5  KDA d          30.898   0.798   4.497  0.00  0.00     0.088 C 
ATOM      5  C4  KDA d          29.688   0.862   5.453  0.00  0.00     0.068 C 
ATOM      6  H5  KDA d          31.114   1.812   4.130  0.00  0.00     0.091 H 
ATOM      7  C3  KDA d          29.136  -0.517   5.869  0.00  0.00     0.024 C 
ATOM      8  H3  KDA d          28.886   1.408   4.934  0.00  0.00     0.087 H 
ATOM      9  C2  KDA d          29.025  -1.448   4.638  0.00  0.00     0.262 C 
ATOM     10  H1  KDA d          29.814  -0.972   6.606  0.00  0.00     0.045 H 
ATOM     11  H2  KDA d          28.140  -0.389   6.318  0.00  0.00     0.045 H 
ATOM     12  O6  KDA d          30.207  -1.438   3.839  0.00  0.00    -0.335 OA
ATOM     13  H7  KDA d          29.722   0.298   2.763  0.00  0.00     0.091 H 
BRANCH   4  14
ATOM     14  O5  KDA d          32.086   0.252   5.143  0.00  0.00    -0.390 OA
ATOM     15  H6  KDA d          32.400   0.866   5.796  0.00  0.00     0.210 HD
ENDBRANCH   4  14
BRANCH   5  16
ATOM     16  O4  KDA d          30.025   1.566   6.649  0.00  0.00    -0.393 OA
ATOM     17  H4  KDA d          30.758   1.134   7.073  0.00  0.00     0.210 HD
ENDBRANCH   5  16
BRANCH   9  18
ATOM     18  C1  KDA d          28.757  -2.860   5.200  0.00  0.00     0.239 C 
ATOM     19  O1A KDA d          28.994  -3.843   4.458  0.00  0.00    -0.644 OA
ATOM     20  O1B KDA d          28.310  -2.910   6.374  0.00  0.00    -0.644 OA
ENDBRANCH   9  18
BRANCH   9  21
ATOM     21  O2  KDA d          27.883  -1.013   3.830  0.00  0.00    -0.317 OA
BRANCH  21  22
ATOM     22  C9  KDA d          26.814  -0.851   4.687  0.00  0.00     0.013 C 
ATOM     23  C10 KDA d          26.049   0.305   4.793  0.00  0.00    -0.086 C 
ATOM     24  H13 KDA d          25.253   0.344   5.535  0.00  0.00     0.079 H 
ATOM     25  H12 KDA d          26.549  -1.690   5.327  0.00  0.00     0.122 H 
BRANCH  23  26
ATOM     26  C11 KDA d          26.266   1.402   3.992  0.00  0.00    -0.058 C 
ATOM     27  H14 KDA d          27.153   1.947   4.349  0.00  0.00     0.032 H 
ATOM     28  H15 KDA d          25.389   2.064   4.032  0.00  0.00     0.032 H 
ATOM     29  H16 KDA d          26.429   1.073   2.956  0.00  0.00     0.032 H 
ENDBRANCH  23  26
ENDBRANCH  21  22
ENDBRANCH   9  21
ENDBRANCH   1   3
BRANCH   1  30
ATOM     30  O7  KDA d          32.586   0.766   2.362  0.00  0.00    -0.391 OA
ATOM     31  H9  KDA d          32.265   1.393   2.999  0.00  0.00     0.210 HD
ENDBRANCH   1  30
BRANCH   1  32
ATOM     32  C8  KDA d          31.155  -0.495   0.904  0.00  0.00     0.050 C 
ATOM     33  H10 KDA d          31.793   0.033   0.181  0.00  0.00     0.078 H 
ATOM     34  H11 KDA d          30.130  -0.103   0.843  0.00  0.00     0.078 H 
BRANCH  32  35
ATOM     35  O8  KDA d          31.180  -1.939   0.669  0.00  0.00    -0.341 OA
BRANCH  35  36
ATOM     36  C2  KDA d          30.292  -2.396  -0.406  0.00  0.00     0.276 C 
ATOM     37  C3  KDA d          29.697  -1.313  -1.054  0.00  0.00    -0.036 C 
ATOM     38  C4  KDA d          28.324  -0.987  -0.984  0.00  0.00    -0.099 C 
ATOM     39  H17 KDA d          30.338  -0.671  -1.658  0.00  0.00     0.085 H 
ATOM     40  C5  KDA d          27.409  -1.731  -0.228  0.00  0.00    -0.023 C 
ATOM     41  H18 KDA d          27.962  -0.124  -1.541  0.00  0.00     0.076 H 
ATOM     42  C6  KDA d          28.121  -2.666   0.750  0.00  0.00     0.072 C 
ATOM     43  H19 KDA d          26.787  -2.331  -0.907  0.00  0.00     0.042 H 
ATOM     44  H20 KDA d          26.770  -1.039   0.341  0.00  0.00     0.042 H 
ATOM     45  O6  KDA d          29.277  -3.283   0.125  0.00  0.00    -0.335 OA
ATOM     46  H21 KDA d          28.425  -2.069   1.621  0.00  0.00     0.088 H 
BRANCH  36  47
ATOM     47  C1  KDA d          31.117  -3.187  -1.429  0.00  0.00     0.243 C 
ATOM     48  O1B KDA d          32.321  -2.959  -1.460  0.00  0.00    -0.644 OA
ATOM     49  O1A KDA d          30.509  -4.002  -2.149  0.00  0.00    -0.644 OA
ENDBRANCH  36  47
BRANCH  42  50
ATOM     50  C7  KDA d          27.330  -3.900   1.228  0.00  0.00     0.081 C 
ATOM     51  H22 KDA d          26.426  -3.989   0.607  0.00  0.00     0.090 H 
BRANCH  50  52
ATOM     52  O7  KDA d          26.948  -3.702   2.580  0.00  0.00    -0.391 OA
ATOM     53  H23 KDA d          27.656  -3.277   3.049  0.00  0.00     0.210 HD
ENDBRANCH  50  52
BRANCH  50  54
ATOM     54  C8  KDA d          28.110  -5.202   1.119  0.00  0.00     0.043 C 
ATOM     55  H24 KDA d          27.625  -5.965   1.746  0.00  0.00     0.078 H 
ATOM     56  H25 KDA d          29.138  -5.037   1.473  0.00  0.00     0.078 H 
BRANCH  54  57
ATOM     57  O8  KDA d          28.150  -5.668  -0.240  0.00  0.00    -0.398 OA
ATOM     58  H26 KDA d          29.054  -5.801  -0.501  0.00  0.00     0.209 HD
ENDBRANCH  54  57
ENDBRANCH  50  54
ENDBRANCH  42  50
ENDBRANCH  35  36
ENDBRANCH  32  35
ENDBRANCH   1  32
TORSDOF 16
ENDMDL
MODEL 6
REMARK VINA RESULT:      -5.0      2.076      4.080
REMARK  16 active torsions:
REMARK  status: ('A' for Active; 'I' for Inactive)
REMARK    1  A    between atoms: C1_1  and  C2_4 
REMARK    2  A    between atoms: C2_4  and  O2_16 
REMARK    3  A    between atoms: C4_6  and  O4_7 
REMARK    4  A    between atoms: C5_8  and  O5_9 
REMARK    5  A    between atoms: C6_10  and  C7_12 
REMARK    6  A    between atoms: C7_12  and  O7_13 
REMARK    7  A    between atoms: C7_12  and  C8_14 
REMARK    8  A    between atoms: C8_14  and  O8_15 
REMARK    9  A    between atoms: O8_15  and  C2_20 
REMARK   10  A    between atoms: O2_16  and  C9_17 
REMARK   11  A    between atoms: C10_18  and  C11_19 
REMARK   12  A    between atoms: C2_20  and  C1_21 
REMARK   13  A    between atoms: C6_27  and  C7_29 
REMARK   14  A    between atoms: C7_29  and  O7_30 
REMARK   15  A    between atoms: C7_29  and  C8_31 
REMARK   16  A    between atoms: C8_31  and  O8_32 
ROOT
ATOM      1  C7  KDA d          28.169  -0.905   2.813  0.00  0.00     0.083 C 
ATOM      2  H8  KDA d          27.344  -1.388   3.358  0.00  0.00     0.090 H 
ENDROOT
BRANCH   1   3
ATOM      3  C6  KDA d          28.642  -1.813   1.684  0.00  0.00     0.096 C 
ATOM      4  C5  KDA d          27.754  -1.827   0.422  0.00  0.00     0.088 C 
ATOM      5  C4  KDA d          28.306  -2.854  -0.589  0.00  0.00     0.068 C 
ATOM      6  H5  KDA d          27.753  -0.832  -0.048  0.00  0.00     0.091 H 
ATOM      7  C3  KDA d          28.572  -4.251   0.010  0.00  0.00     0.024 C 
ATOM      8  H3  KDA d          29.259  -2.460  -0.972  0.00  0.00     0.087 H 
ATOM      9  C2  KDA d          29.299  -4.126   1.370  0.00  0.00     0.262 C 
ATOM     10  H1  KDA d          27.614  -4.771   0.158  0.00  0.00     0.045 H 
ATOM     11  H2  KDA d          29.199  -4.830  -0.685  0.00  0.00     0.045 H 
ATOM     12  O6  KDA d          28.690  -3.161   2.226  0.00  0.00    -0.335 OA
ATOM     13  H7  KDA d          29.652  -1.495   1.385  0.00  0.00     0.091 H 
BRANCH   4  14
ATOM     14  O5  KDA d          26.404  -2.156   0.865  0.00  0.00    -0.390 OA
ATOM     15  H6  KDA d          26.316  -1.951   1.788  0.00  0.00     0.210 HD
ENDBRANCH   4  14
BRANCH   5  16
ATOM     16  O4  KDA d          27.404  -3.023  -1.683  0.00  0.00    -0.393 OA
ATOM     17  H4  KDA d          26.604  -3.430  -1.371  0.00  0.00     0.210 HD
ENDBRANCH   5  16
BRANCH   9  18
ATOM     18  C1  KDA d          29.247  -5.531   2.006  0.00  0.00     0.239 C 
ATOM     19  O1A KDA d          30.119  -5.823   2.858  0.00  0.00    -0.644 OA
ATOM     20  O1B KDA d          28.321  -6.282   1.608  0.00  0.00    -0.644 OA
ENDBRANCH   9  18
BRANCH   9  21
ATOM     21  O2  KDA d          30.692  -3.750   1.118  0.00  0.00    -0.317 OA
BRANCH  21  22
ATOM     22  C9  KDA d          31.122  -4.478   0.028  0.00  0.00     0.013 C 
ATOM     23  C10 KDA d          32.011  -4.016  -0.935  0.00  0.00    -0.086 C 
ATOM     24  H13 KDA d          32.251  -4.658  -1.782  0.00  0.00     0.079 H 
ATOM     25  H12 KDA d          30.737  -5.490  -0.086  0.00  0.00     0.122 H 
BRANCH  23  26
ATOM     26  C11 KDA d          32.598  -2.774  -0.855  0.00  0.00    -0.058 C 
ATOM     27  H14 KDA d          32.159  -2.112  -1.616  0.00  0.00     0.032 H 
ATOM     28  H15 KDA d          33.679  -2.868  -1.029  0.00  0.00     0.032 H 
ATOM     29  H16 KDA d          32.423  -2.350   0.145  0.00  0.00     0.032 H 
ENDBRANCH  23  26
ENDBRANCH  21  22
ENDBRANCH   9  21
ENDBRANCH   1   3
BRANCH   1  30
ATOM     30  O7  KDA d          27.729   0.336   2.248  0.00  0.00    -0.391 OA
ATOM     31  H9  KDA d          27.353   0.878   2.931  0.00  0.00     0.210 HD
ENDBRANCH   1  30
BRANCH   1  32
ATOM     32  C8  KDA d          29.324  -0.612   3.772  0.00  0.00     0.050 C 
ATOM     33  H10 KDA d          29.900   0.265   3.441  0.00  0.00     0.078 H 
ATOM     34  H11 KDA d          29.995  -1.479   3.858  0.00  0.00     0.078 H 
BRANCH  32  35
ATOM     35  O8  KDA d          28.643  -0.347   5.039  0.00  0.00    -0.341 OA
BRANCH  35  36
ATOM     36  C2  KDA d          28.584  -1.495   5.951  0.00  0.00     0.276 C 
ATOM     37  C3  KDA d          28.774  -1.090   7.273  0.00  0.00    -0.036 C 
ATOM     38  C4  KDA d          29.911  -1.394   8.054  0.00  0.00    -0.099 C 
ATOM     39  H17 KDA d          27.987  -0.496   7.737  0.00  0.00     0.085 H 
ATOM     40  C5  KDA d          30.990  -2.137   7.558  0.00  0.00    -0.023 C 
ATOM     41  H18 KDA d          29.951  -1.037   9.082  0.00  0.00     0.076 H 
ATOM     42  C6  KDA d          30.939  -2.252   6.035  0.00  0.00     0.072 C 
ATOM     43  H19 KDA d          30.959  -3.147   7.993  0.00  0.00     0.042 H 
ATOM     44  H20 KDA d          31.929  -1.642   7.848  0.00  0.00     0.042 H 
ATOM     45  O6  KDA d          29.579  -2.480   5.580  0.00  0.00    -0.335 OA
ATOM     46  H21 KDA d          31.334  -1.315   5.617  0.00  0.00     0.088 H 
BRANCH  36  47
ATOM     47  C1  KDA d          27.204  -2.153   5.832  0.00  0.00     0.243 C 
ATOM     48  O1B KDA d          26.234  -1.449   6.090  0.00  0.00    -0.644 OA
ATOM     49  O1A KDA d          27.168  -3.348   5.482  0.00  0.00    -0.644 OA
ENDBRANCH  36  47
BRANCH  42  50
ATOM     50  C7  KDA d          31.682  -3.445   5.405  0.00  0.00     0.081 C 
ATOM     51  H22 KDA d          32.764  -3.263   5.497  0.00  0.00     0.090 H 
BRANCH  50  52
ATOM     52  O7  KDA d          31.341  -3.522   4.029  0.00  0.00    -0.391 OA
ATOM     53  H23 KDA d          31.966  -3.017   3.520  0.00  0.00     0.210 HD
ENDBRANCH  50  52
BRANCH  50  54
ATOM     54  C8  KDA d          31.368  -4.778   6.068  0.00  0.00     0.043 C 
ATOM     55  H24 KDA d          31.384  -4.649   7.160  0.00  0.00     0.078 H 
ATOM     56  H25 KDA d          32.130  -5.515   5.775  0.00  0.00     0.078 H 
BRANCH  54  57
ATOM     57  O8  KDA d          30.073  -5.259   5.671  0.00  0.00    -0.398 OA
ATOM     58  H26 KDA d          30.162  -5.803   4.897  0.00  0.00     0.209 HD
ENDBRANCH  54  57
ENDBRANCH  50  54
ENDBRANCH  42  50
ENDBRANCH  35  36
ENDBRANCH  32  35
ENDBRANCH   1  32
TORSDOF 16
ENDMDL
MODEL 7
REMARK VINA RESULT:      -4.9      1.776      6.119
REMARK  16 active torsions:
REMARK  status: ('A' for Active; 'I' for Inactive)
REMARK    1  A    between atoms: C1_1  and  C2_4 
REMARK    2  A    between atoms: C2_4  and  O2_16 
REMARK    3  A    between atoms: C4_6  and  O4_7 
REMARK    4  A    between atoms: C5_8  and  O5_9 
REMARK    5  A    between atoms: C6_10  and  C7_12 
REMARK    6  A    between atoms: C7_12  and  O7_13 
REMARK    7  A    between atoms: C7_12  and  C8_14 
REMARK    8  A    between atoms: C8_14  and  O8_15 
REMARK    9  A    between atoms: O8_15  and  C2_20 
REMARK   10  A    between atoms: O2_16  and  C9_17 
REMARK   11  A    between atoms: C10_18  and  C11_19 
REMARK   12  A    between atoms: C2_20  and  C1_21 
REMARK   13  A    between atoms: C6_27  and  C7_29 
REMARK   14  A    between atoms: C7_29  and  O7_30 
REMARK   15  A    between atoms: C7_29  and  C8_31 
REMARK   16  A    between atoms: C8_31  and  O8_32 
ROOT
ATOM      1  C7  KDA d          27.870  -4.418   1.963  0.00  0.00     0.083 C 
ATOM      2  H8  KDA d          27.161  -3.924   1.281  0.00  0.00     0.090 H 
ENDROOT
BRANCH   1   3
ATOM      3  C6  KDA d          27.629  -3.942   3.390  0.00  0.00     0.096 C 
ATOM      4  C5  KDA d          26.888  -2.595   3.528  0.00  0.00     0.088 C 
ATOM      5  C4  KDA d          26.800  -2.203   5.018  0.00  0.00     0.068 C 
ATOM      6  H5  KDA d          25.869  -2.684   3.124  0.00  0.00     0.091 H 
ATOM      7  C3  KDA d          28.148  -2.260   5.768  0.00  0.00     0.024 C 
ATOM      8  H3  KDA d          26.109  -2.906   5.504  0.00  0.00     0.087 H 
ATOM      9  C2  KDA d          28.906  -3.561   5.416  0.00  0.00     0.262 C 
ATOM     10  H1  KDA d          28.761  -1.394   5.478  0.00  0.00     0.045 H 
ATOM     11  H2  KDA d          27.961  -2.231   6.852  0.00  0.00     0.045 H 
ATOM     12  O6  KDA d          28.936  -3.812   4.012  0.00  0.00    -0.335 OA
ATOM     13  H7  KDA d          27.041  -4.709   3.915  0.00  0.00     0.091 H 
BRANCH   4  14
ATOM     14  O5  KDA d          27.638  -1.623   2.742  0.00  0.00    -0.390 OA
ATOM     15  H6  KDA d          27.326  -1.634   1.845  0.00  0.00     0.210 HD
ENDBRANCH   4  14
BRANCH   5  16
ATOM     16  O4  KDA d          26.287  -0.878   5.163  0.00  0.00    -0.393 OA
ATOM     17  H4  KDA d          26.958  -0.319   5.539  0.00  0.00     0.210 HD
ENDBRANCH   5  16
BRANCH   9  18
ATOM     18  C1  KDA d          30.336  -3.380   5.969  0.00  0.00     0.239 C 
ATOM     19  O1A KDA d          30.476  -3.271   7.210  0.00  0.00    -0.644 OA
ATOM     20  O1B KDA d          31.257  -3.350   5.114  0.00  0.00    -0.644 OA
ENDBRANCH   9  18
BRANCH   9  21
ATOM     21  O2  KDA d          28.251  -4.679   6.100  0.00  0.00    -0.317 OA
BRANCH  21  22
ATOM     22  C9  KDA d          28.788  -5.842   5.589  0.00  0.00     0.013 C 
ATOM     23  C10 KDA d          29.390  -6.840   6.347  0.00  0.00    -0.086 C 
ATOM     24  H13 KDA d          29.822  -7.701   5.838  0.00  0.00     0.079 H 
ATOM     25  H12 KDA d          28.737  -5.990   4.511  0.00  0.00     0.122 H 
BRANCH  23  26
ATOM     26  C11 KDA d          29.457  -6.777   7.719  0.00  0.00    -0.058 C 
ATOM     27  H14 KDA d          29.640  -5.737   8.029  0.00  0.00     0.032 H 
ATOM     28  H15 KDA d          30.278  -7.416   8.076  0.00  0.00     0.032 H 
ATOM     29  H16 KDA d          28.507  -7.126   8.149  0.00  0.00     0.032 H 
ENDBRANCH  23  26
ENDBRANCH  21  22
ENDBRANCH   9  21
ENDBRANCH   1   3
BRANCH   1  30
ATOM     30  O7  KDA d          27.691  -5.839   1.918  0.00  0.00    -0.391 OA
ATOM     31  H9  KDA d          27.489  -6.159   2.789  0.00  0.00     0.210 HD
ENDBRANCH   1  30
BRANCH   1  32
ATOM     32  C8  KDA d          29.305  -4.102   1.538  0.00  0.00     0.050 C 
ATOM     33  H10 KDA d          29.977  -4.943   1.759  0.00  0.00     0.078 H 
ATOM     34  H11 KDA d          29.675  -3.196   2.039  0.00  0.00     0.078 H 
BRANCH  32  35
ATOM     35  O8  KDA d          29.185  -3.891   0.095  0.00  0.00    -0.341 OA
BRANCH  35  36
ATOM     36  C2  KDA d          29.643  -2.577  -0.369  0.00  0.00     0.276 C 
ATOM     37  C3  KDA d          30.317  -2.686  -1.586  0.00  0.00    -0.036 C 
ATOM     38  C4  KDA d          31.703  -2.474  -1.761  0.00  0.00    -0.099 C 
ATOM     39  H17 KDA d          29.732  -2.954  -2.465  0.00  0.00     0.085 H 
ATOM     40  C5  KDA d          32.555  -2.140  -0.701  0.00  0.00    -0.023 C 
ATOM     41  H18 KDA d          32.125  -2.575  -2.760  0.00  0.00     0.076 H 
ATOM     42  C6  KDA d          31.889  -2.385   0.652  0.00  0.00     0.072 C 
ATOM     43  H19 KDA d          32.824  -1.077  -0.780  0.00  0.00     0.042 H 
ATOM     44  H20 KDA d          33.465  -2.755  -0.768  0.00  0.00     0.042 H 
ATOM     45  O6  KDA d          30.499  -1.965   0.626  0.00  0.00    -0.335 OA
ATOM     46  H21 KDA d          31.964  -3.460   0.871  0.00  0.00     0.088 H 
BRANCH  36  47
ATOM     47  C1  KDA d          28.424  -1.667  -0.563  0.00  0.00     0.243 C 
ATOM     48  O1B KDA d          28.391  -0.639   0.104  0.00  0.00    -0.644 OA
ATOM     49  O1A KDA d          27.561  -2.033  -1.384  0.00  0.00    -0.644 OA
ENDBRANCH  36  47
BRANCH  42  50
ATOM     50  C7  KDA d          32.434  -1.581   1.848  0.00  0.00     0.081 C 
ATOM     51  H22 KDA d          33.328  -1.033   1.514  0.00  0.00     0.090 H 
BRANCH  50  52
ATOM     52  O7  KDA d          32.803  -2.486   2.877  0.00  0.00    -0.391 OA
ATOM     53  H23 KDA d          33.204  -2.005   3.592  0.00  0.00     0.210 HD
ENDBRANCH  50  52
BRANCH  50  54
ATOM     54  C8  KDA d          31.442  -0.572   2.408  0.00  0.00     0.043 C 
ATOM     55  H24 KDA d          30.934  -0.067   1.574  0.00  0.00     0.078 H 
ATOM     56  H25 KDA d          31.985   0.171   3.010  0.00  0.00     0.078 H 
BRANCH  54  57
ATOM     57  O8  KDA d          30.459  -1.219   3.234  0.00  0.00    -0.398 OA
ATOM     58  H26 KDA d          29.726  -1.492   2.696  0.00  0.00     0.209 HD
ENDBRANCH  54  57
ENDBRANCH  50  54
ENDBRANCH  42  50
ENDBRANCH  35  36
ENDBRANCH  32  35
ENDBRANCH   1  32
TORSDOF 16
ENDMDL
MODEL 8
REMARK VINA RESULT:      -4.8      2.247      5.999
REMARK  16 active torsions:
REMARK  status: ('A' for Active; 'I' for Inactive)
REMARK    1  A    between atoms: C1_1  and  C2_4 
REMARK    2  A    between atoms: C2_4  and  O2_16 
REMARK    3  A    between atoms: C4_6  and  O4_7 
REMARK    4  A    between atoms: C5_8  and  O5_9 
REMARK    5  A    between atoms: C6_10  and  C7_12 
REMARK    6  A    between atoms: C7_12  and  O7_13 
REMARK    7  A    between atoms: C7_12  and  C8_14 
REMARK    8  A    between atoms: C8_14  and  O8_15 
REMARK    9  A    between atoms: O8_15  and  C2_20 
REMARK   10  A    between atoms: O2_16  and  C9_17 
REMARK   11  A    between atoms: C10_18  and  C11_19 
REMARK   12  A    between atoms: C2_20  and  C1_21 
REMARK   13  A    between atoms: C6_27  and  C7_29 
REMARK   14  A    between atoms: C7_29  and  O7_30 
REMARK   15  A    between atoms: C7_29  and  C8_31 
REMARK   16  A    between atoms: C8_31  and  O8_32 
ROOT
ATOM      1  C7  KDA d          28.313  -3.684   2.525  0.00  0.00     0.083 C 
ATOM      2  H8  KDA d          27.634  -3.140   1.850  0.00  0.00     0.090 H 
ENDROOT
BRANCH   1   3
ATOM      3  C6  KDA d          28.494  -2.898   3.818  0.00  0.00     0.096 C 
ATOM      4  C5  KDA d          27.748  -3.457   5.048  0.00  0.00     0.088 C 
ATOM      5  C4  KDA d          27.951  -2.511   6.250  0.00  0.00     0.068 C 
ATOM      6  H5  KDA d          28.143  -4.450   5.307  0.00  0.00     0.091 H 
ATOM      7  C3  KDA d          27.646  -1.029   5.948  0.00  0.00     0.024 C 
ATOM      8  H3  KDA d          29.005  -2.587   6.556  0.00  0.00     0.087 H 
ATOM      9  C2  KDA d          28.276  -0.612   4.598  0.00  0.00     0.262 C 
ATOM     10  H1  KDA d          26.557  -0.885   5.899  0.00  0.00     0.045 H 
ATOM     11  H2  KDA d          28.062  -0.402   6.751  0.00  0.00     0.045 H 
ATOM     12  O6  KDA d          28.009  -1.553   3.559  0.00  0.00    -0.335 OA
ATOM     13  H7  KDA d          29.567  -2.868   4.056  0.00  0.00     0.091 H 
BRANCH   4  14
ATOM     14  O5  KDA d          26.346  -3.576   4.667  0.00  0.00    -0.390 OA
ATOM     15  H6  KDA d          25.891  -2.770   4.880  0.00  0.00     0.210 HD
ENDBRANCH   4  14
BRANCH   5  16
ATOM     16  O4  KDA d          27.124  -2.902   7.347  0.00  0.00    -0.393 OA
ATOM     17  H4  KDA d          27.627  -2.857   8.152  0.00  0.00     0.210 HD
ENDBRANCH   5  16
BRANCH   9  18
ATOM     18  C1  KDA d          27.671   0.766   4.257  0.00  0.00     0.239 C 
ATOM     19  O1A KDA d          26.734   1.190   4.974  0.00  0.00    -0.644 OA
ATOM     20  O1B KDA d          28.173   1.358   3.268  0.00  0.00    -0.644 OA
ENDBRANCH   9  18
BRANCH   9  21
ATOM     21  O2  KDA d          29.724  -0.483   4.782  0.00  0.00    -0.317 OA
BRANCH  21  22
ATOM     22  C9  KDA d          29.926   0.357   5.857  0.00  0.00     0.013 C 
ATOM     23  C10 KDA d          30.856   0.143   6.869  0.00  0.00    -0.086 C 
ATOM     24  H13 KDA d          30.904   0.848   7.698  0.00  0.00     0.079 H 
ATOM     25  H12 KDA d          29.312   1.254   5.919  0.00  0.00     0.122 H 
BRANCH  23  26
ATOM     26  C11 KDA d          31.717  -0.930   6.857  0.00  0.00    -0.058 C 
ATOM     27  H14 KDA d          31.850  -1.303   7.883  0.00  0.00     0.032 H 
ATOM     28  H15 KDA d          32.689  -0.615   6.452  0.00  0.00     0.032 H 
ATOM     29  H16 KDA d          31.298  -1.728   6.227  0.00  0.00     0.032 H 
ENDBRANCH  23  26
ENDBRANCH  21  22
ENDBRANCH   9  21
ENDBRANCH   1   3
BRANCH   1  30
ATOM     30  O7  KDA d          27.767  -4.970   2.843  0.00  0.00    -0.391 OA
ATOM     31  H9  KDA d          28.433  -5.635   2.718  0.00  0.00     0.210 HD
ENDBRANCH   1  30
BRANCH   1  32
ATOM     32  C8  KDA d          29.665  -3.893   1.842  0.00  0.00     0.050 C 
ATOM     33  H10 KDA d          30.117  -4.849   2.145  0.00  0.00     0.078 H 
ATOM     34  H11 KDA d          30.357  -3.071   2.076  0.00  0.00     0.078 H 
BRANCH  32  35
ATOM     35  O8  KDA d          29.321  -3.902   0.420  0.00  0.00    -0.341 OA
BRANCH  35  36
ATOM     36  C2  KDA d          29.938  -2.825  -0.362  0.00  0.00     0.276 C 
ATOM     37  C3  KDA d          30.920  -3.329  -1.215  0.00  0.00    -0.036 C 
ATOM     38  C4  KDA d          32.307  -3.096  -1.074  0.00  0.00    -0.099 C 
ATOM     39  H17 KDA d          30.595  -3.947  -2.051  0.00  0.00     0.085 H 
ATOM     40  C5  KDA d          32.841  -2.331  -0.030  0.00  0.00    -0.023 C 
ATOM     41  H18 KDA d          32.987  -3.529  -1.806  0.00  0.00     0.076 H 
ATOM     42  C6  KDA d          31.815  -2.102   1.080  0.00  0.00     0.072 C 
ATOM     43  H19 KDA d          33.159  -1.356  -0.428  0.00  0.00     0.042 H 
ATOM     44  H20 KDA d          33.711  -2.857   0.390  0.00  0.00     0.042 H 
ATOM     45  O6  KDA d          30.504  -1.826   0.521  0.00  0.00    -0.335 OA
ATOM     46  H21 KDA d          31.788  -3.010   1.699  0.00  0.00     0.088 H 
BRANCH  36  47
ATOM     47  C1  KDA d          28.855  -2.144  -1.208  0.00  0.00     0.243 C 
ATOM     48  O1B KDA d          27.808  -2.763  -1.367  0.00  0.00    -0.644 OA
ATOM     49  O1A KDA d          29.114  -1.015  -1.669  0.00  0.00    -0.644 OA
ENDBRANCH  36  47
BRANCH  42  50
ATOM     50  C7  KDA d          32.034  -0.874   1.983  0.00  0.00     0.081 C 
ATOM     51  H22 KDA d          33.036  -0.470   1.775  0.00  0.00     0.090 H 
BRANCH  50  52
ATOM     52  O7  KDA d          31.973  -1.287   3.340  0.00  0.00    -0.391 OA
ATOM     53  H23 KDA d          32.181  -0.551   3.904  0.00  0.00     0.210 HD
ENDBRANCH  50  52
BRANCH  50  54
ATOM     54  C8  KDA d          31.019   0.237   1.758  0.00  0.00     0.043 C 
ATOM     55  H24 KDA d          30.005  -0.171   1.889  0.00  0.00     0.078 H 
ATOM     56  H25 KDA d          31.129   0.623   0.734  0.00  0.00     0.078 H 
BRANCH  54  57
ATOM     57  O8  KDA d          31.216   1.313   2.690  0.00  0.00    -0.398 OA
ATOM     58  H26 KDA d          31.188   0.972   3.576  0.00  0.00     0.209 HD
ENDBRANCH  54  57
ENDBRANCH  50  54
ENDBRANCH  42  50
ENDBRANCH  35  36
ENDBRANCH  32  35
ENDBRANCH   1  32
TORSDOF 16
ENDMDL
MODEL 9
REMARK VINA RESULT:      -4.8      1.505      2.791
REMARK  16 active torsions:
REMARK  status: ('A' for Active; 'I' for Inactive)
REMARK    1  A    between atoms: C1_1  and  C2_4 
REMARK    2  A    between atoms: C2_4  and  O2_16 
REMARK    3  A    between atoms: C4_6  and  O4_7 
REMARK    4  A    between atoms: C5_8  and  O5_9 
REMARK    5  A    between atoms: C6_10  and  C7_12 
REMARK    6  A    between atoms: C7_12  and  O7_13 
REMARK    7  A    between atoms: C7_12  and  C8_14 
REMARK    8  A    between atoms: C8_14  and  O8_15 
REMARK    9  A    between atoms: O8_15  and  C2_20 
REMARK   10  A    between atoms: O2_16  and  C9_17 
REMARK   11  A    between atoms: C10_18  and  C11_19 
REMARK   12  A    between atoms: C2_20  and  C1_21 
REMARK   13  A    between atoms: C6_27  and  C7_29 
REMARK   14  A    between atoms: C7_29  and  O7_30 
REMARK   15  A    between atoms: C7_29  and  C8_31 
REMARK   16  A    between atoms: C8_31  and  O8_32 
ROOT
ATOM      1  C7  KDA d          29.543  -5.302   1.861  0.00  0.00     0.083 C 
ATOM      2  H8  KDA d          30.622  -5.348   1.648  0.00  0.00     0.090 H 
ENDROOT
BRANCH   1   3
ATOM      3  C6  KDA d          28.966  -3.998   1.323  0.00  0.00     0.096 C 
ATOM      4  C5  KDA d          28.181  -4.111   0.000  0.00  0.00     0.088 C 
ATOM      5  C4  KDA d          27.741  -2.707  -0.463  0.00  0.00     0.068 C 
ATOM      6  H5  KDA d          27.285  -4.733   0.147  0.00  0.00     0.091 H 
ATOM      7  C3  KDA d          28.879  -1.665  -0.493  0.00  0.00     0.024 C 
ATOM      8  H3  KDA d          26.973  -2.353   0.241  0.00  0.00     0.087 H 
ATOM      9  C2  KDA d          29.730  -1.758   0.795  0.00  0.00     0.262 C 
ATOM     10  H1  KDA d          29.521  -1.854  -1.366  0.00  0.00     0.045 H 
ATOM     11  H2  KDA d          28.445  -0.657  -0.570  0.00  0.00     0.045 H 
ATOM     12  O6  KDA d          30.091  -3.100   1.114  0.00  0.00    -0.335 OA
ATOM     13  H7  KDA d          28.292  -3.580   2.084  0.00  0.00     0.091 H 
BRANCH   4  14
ATOM     14  O5  KDA d          29.069  -4.758  -0.959  0.00  0.00    -0.390 OA
ATOM     15  H6  KDA d          29.918  -4.901  -0.556  0.00  0.00     0.210 HD
ENDBRANCH   4  14
BRANCH   5  16
ATOM     16  O4  KDA d          27.176  -2.760  -1.773  0.00  0.00    -0.393 OA
ATOM     17  H4  KDA d          27.058  -1.876  -2.102  0.00  0.00     0.210 HD
ENDBRANCH   5  16
BRANCH   9  18
ATOM     18  C1  KDA d          30.987  -0.901   0.533  0.00  0.00     0.239 C 
ATOM     19  O1A KDA d          30.829   0.236   0.031  0.00  0.00    -0.644 OA
ATOM     20  O1B KDA d          32.085  -1.427   0.846  0.00  0.00    -0.644 OA
ENDBRANCH   9  18
BRANCH   9  21
ATOM     21  O2  KDA d          28.961  -1.180   1.901  0.00  0.00    -0.317 OA
BRANCH  21  22
ATOM     22  C9  KDA d          29.869  -0.718   2.832  0.00  0.00     0.013 C 
ATOM     23  C10 KDA d          29.593   0.235   3.805  0.00  0.00    -0.086 C 
ATOM     24  H13 KDA d          30.396   0.563   4.465  0.00  0.00     0.079 H 
ATOM     25  H12 KDA d          30.876  -1.131   2.802  0.00  0.00     0.122 H 
BRANCH  23  26
ATOM     26  C11 KDA d          28.339   0.778   3.963  0.00  0.00    -0.058 C 
ATOM     27  H14 KDA d          28.383   1.591   4.703  0.00  0.00     0.032 H 
ATOM     28  H15 KDA d          27.644   0.000   4.313  0.00  0.00     0.032 H 
ATOM     29  H16 KDA d          27.988   1.176   3.000  0.00  0.00     0.032 H 
ENDBRANCH  23  26
ENDBRANCH  21  22
ENDBRANCH   9  21
ENDBRANCH   1   3
BRANCH   1  30
ATOM     30  O7  KDA d          28.868  -6.396   1.229  0.00  0.00    -0.391 OA
ATOM     31  H9  KDA d          29.505  -6.962   0.810  0.00  0.00     0.210 HD
ENDBRANCH   1  30
BRANCH   1  32
ATOM     32  C8  KDA d          29.307  -5.400   3.369  0.00  0.00     0.050 C 
ATOM     33  H10 KDA d          30.018  -6.097   3.836  0.00  0.00     0.078 H 
ATOM     34  H11 KDA d          28.279  -5.723   3.588  0.00  0.00     0.078 H 
BRANCH  32  35
ATOM     35  O8  KDA d          29.536  -4.030   3.829  0.00  0.00    -0.341 OA
BRANCH  35  36
ATOM     36  C2  KDA d          30.391  -3.922   5.017  0.00  0.00     0.276 C 
ATOM     37  C3  KDA d          30.639  -5.180   5.568  0.00  0.00    -0.036 C 
ATOM     38  C4  KDA d          30.136  -5.631   6.808  0.00  0.00    -0.099 C 
ATOM     39  H17 KDA d          31.268  -5.865   4.999  0.00  0.00     0.085 H 
ATOM     40  C5  KDA d          29.307  -4.844   7.617  0.00  0.00    -0.023 C 
ATOM     41  H18 KDA d          30.403  -6.630   7.149  0.00  0.00     0.076 H 
ATOM     42  C6  KDA d          28.752  -3.643   6.851  0.00  0.00     0.072 C 
ATOM     43  H19 KDA d          29.888  -4.480   8.478  0.00  0.00     0.042 H 
ATOM     44  H20 KDA d          28.468  -5.459   7.974  0.00  0.00     0.042 H 
ATOM     45  O6  KDA d          29.774  -3.057   6.001  0.00  0.00    -0.335 OA
ATOM     46  H21 KDA d          27.903  -3.997   6.248  0.00  0.00     0.088 H 
BRANCH  36  47
ATOM     47  C1  KDA d          31.728  -3.291   4.611  0.00  0.00     0.243 C 
ATOM     48  O1B KDA d          32.263  -3.735   3.601  0.00  0.00    -0.644 OA
ATOM     49  O1A KDA d          32.172  -2.375   5.330  0.00  0.00    -0.644 OA
ENDBRANCH  36  47
BRANCH  42  50
ATOM     50  C7  KDA d          28.311  -2.429   7.691  0.00  0.00     0.081 C 
ATOM     51  H22 KDA d          29.207  -1.982   8.145  0.00  0.00     0.090 H 
BRANCH  50  52
ATOM     52  O7  KDA d          27.442  -2.877   8.720  0.00  0.00    -0.391 OA
ATOM     53  H23 KDA d          27.359  -3.822   8.674  0.00  0.00     0.210 HD
ENDBRANCH  50  52
BRANCH  50  54
ATOM     54  C8  KDA d          27.604  -1.352   6.880  0.00  0.00     0.043 C 
ATOM     55  H24 KDA d          28.159  -1.183   5.946  0.00  0.00     0.078 H 
ATOM     56  H25 KDA d          27.578  -0.421   7.464  0.00  0.00     0.078 H 
BRANCH  54  57
ATOM     57  O8  KDA d          26.258  -1.745   6.563  0.00  0.00    -0.398 OA
ATOM     58  H26 KDA d          25.818  -2.031   7.354  0.00  0.00     0.209 HD
ENDBRANCH  54  57
ENDBRANCH  50  54
ENDBRANCH  42  50
ENDBRANCH  35  36
ENDBRANCH  32  35
ENDBRANCH   1  32
TORSDOF 16
ENDMDL
MODEL 10
REMARK VINA RESULT:      -4.5      1.864      6.142
REMARK  16 active torsions:
REMARK  status: ('A' for Active; 'I' for Inactive)
REMARK    1  A    between atoms: C1_1  and  C2_4 
REMARK    2  A    between atoms: C2_4  and  O2_16 
REMARK    3  A    between atoms: C4_6  and  O4_7 
REMARK    4  A    between atoms: C5_8  and  O5_9 
REMARK    5  A    between atoms: C6_10  and  C7_12 
REMARK    6  A    between atoms: C7_12  and  O7_13 
REMARK    7  A    between atoms: C7_12  and  C8_14 
REMARK    8  A    between atoms: C8_14  and  O8_15 
REMARK    9  A    between atoms: O8_15  and  C2_20 
REMARK   10  A    between atoms: O2_16  and  C9_17 
REMARK   11  A    between atoms: C10_18  and  C11_19 
REMARK   12  A    between atoms: C2_20  and  C1_21 
REMARK   13  A    between atoms: C6_27  and  C7_29 
REMARK   14  A    between atoms: C7_29  and  O7_30 
REMARK   15  A    between atoms: C7_29  and  C8_31 
REMARK   16  A    between atoms: C8_31  and  O8_32 
ROOT
ATOM      1  C7  KDA d          27.265  -4.485   2.560  0.00  0.00     0.083 C 
ATOM      2  H8  KDA d          26.338  -3.896   2.636  0.00  0.00     0.090 H 
ENDROOT
BRANCH   1   3
ATOM      3  C6  KDA d          28.117  -4.269   3.804  0.00  0.00     0.096 C 
ATOM      4  C5  KDA d          28.376  -5.525   4.662  0.00  0.00     0.088 C 
ATOM      5  C4  KDA d          29.169  -5.134   5.927  0.00  0.00     0.068 C 
ATOM      6  H5  KDA d          28.962  -6.258   4.089  0.00  0.00     0.091 H 
ATOM      7  C3  KDA d          28.567  -3.949   6.711  0.00  0.00     0.024 C 
ATOM      8  H3  KDA d          30.183  -4.851   5.606  0.00  0.00     0.087 H 
ATOM      9  C2  KDA d          28.161  -2.812   5.743  0.00  0.00     0.262 C 
ATOM     10  H1  KDA d          27.678  -4.291   7.260  0.00  0.00     0.045 H 
ATOM     11  H2  KDA d          29.314  -3.569   7.424  0.00  0.00     0.045 H 
ATOM     12  O6  KDA d          27.419  -3.291   4.622  0.00  0.00    -0.335 OA
ATOM     13  H7  KDA d          29.091  -3.866   3.490  0.00  0.00     0.091 H 
BRANCH   4  14
ATOM     14  O5  KDA d          27.070  -6.090   4.980  0.00  0.00    -0.390 OA
ATOM     15  H6  KDA d          26.548  -5.441   5.437  0.00  0.00     0.210 HD
ENDBRANCH   4  14
BRANCH   5  16
ATOM     16  O4  KDA d          29.262  -6.238   6.828  0.00  0.00    -0.393 OA
ATOM     17  H4  KDA d          28.583  -6.164   7.488  0.00  0.00     0.210 HD
ENDBRANCH   5  16
BRANCH   9  18
ATOM     18  C1  KDA d          27.316  -1.828   6.578  0.00  0.00     0.239 C 
ATOM     19  O1A KDA d          27.062  -2.134   7.768  0.00  0.00    -0.644 OA
ATOM     20  O1B KDA d          26.940  -0.785   5.986  0.00  0.00    -0.644 OA
ENDBRANCH   9  18
BRANCH   9  21
ATOM     21  O2  KDA d          29.379  -2.144   5.276  0.00  0.00    -0.317 OA
BRANCH  21  22
ATOM     22  C9  KDA d          30.123  -1.823   6.392  0.00  0.00     0.013 C 
ATOM     23  C10 KDA d          30.695  -0.580   6.636  0.00  0.00    -0.086 C 
ATOM     24  H13 KDA d          31.302  -0.445   7.530  0.00  0.00     0.079 H 
ATOM     25  H12 KDA d          30.273  -2.601   7.139  0.00  0.00     0.122 H 
BRANCH  23  26
ATOM     26  C11 KDA d          30.520   0.486   5.783  0.00  0.00    -0.058 C 
ATOM     27  H14 KDA d          31.491   0.773   5.352  0.00  0.00     0.032 H 
ATOM     28  H15 KDA d          30.101   1.336   6.341  0.00  0.00     0.032 H 
ATOM     29  H16 KDA d          29.830   0.200   4.976  0.00  0.00     0.032 H 
ENDBRANCH  23  26
ENDBRANCH  21  22
ENDBRANCH   9  21
ENDBRANCH   1   3
BRANCH   1  30
ATOM     30  O7  KDA d          26.956  -5.880   2.454  0.00  0.00    -0.391 OA
ATOM     31  H9  KDA d          26.029  -6.012   2.616  0.00  0.00     0.210 HD
ENDBRANCH   1  30
BRANCH   1  32
ATOM     32  C8  KDA d          28.043  -4.071   1.310  0.00  0.00     0.050 C 
ATOM     33  H10 KDA d          27.823  -4.741   0.467  0.00  0.00     0.078 H 
ATOM     34  H11 KDA d          29.126  -4.068   1.502  0.00  0.00     0.078 H 
BRANCH  32  35
ATOM     35  O8  KDA d          27.552  -2.717   1.048  0.00  0.00    -0.341 OA
BRANCH  35  36
ATOM     36  C2  KDA d          28.604  -1.703   0.916  0.00  0.00     0.276 C 
ATOM     37  C3  KDA d          28.450  -0.977  -0.266  0.00  0.00    -0.036 C 
ATOM     38  C4  KDA d          29.323  -1.047  -1.374  0.00  0.00    -0.099 C 
ATOM     39  H17 KDA d          27.593  -0.308  -0.339  0.00  0.00     0.085 H 
ATOM     40  C5  KDA d          30.447  -1.883  -1.398  0.00  0.00    -0.023 C 
ATOM     41  H18 KDA d          29.115  -0.426  -2.244  0.00  0.00     0.076 H 
ATOM     42  C6  KDA d          30.397  -2.922  -0.278  0.00  0.00     0.072 C 
ATOM     43  H19 KDA d          31.352  -1.269  -1.276  0.00  0.00     0.042 H 
ATOM     44  H20 KDA d          30.484  -2.403  -2.367  0.00  0.00     0.042 H 
ATOM     45  O6  KDA d          29.910  -2.328   0.955  0.00  0.00    -0.335 OA
ATOM     46  H21 KDA d          29.730  -3.733  -0.607  0.00  0.00     0.088 H 
BRANCH  36  47
ATOM     47  C1  KDA d          28.513  -0.735   2.102  0.00  0.00     0.243 C 
ATOM     48  O1B KDA d          27.443  -0.696   2.700  0.00  0.00    -0.644 OA
ATOM     49  O1A KDA d          29.527  -0.065   2.374  0.00  0.00    -0.644 OA
ENDBRANCH  36  47
BRANCH  42  50
ATOM     50  C7  KDA d          31.743  -3.519   0.173  0.00  0.00     0.081 C 
ATOM     51  H22 KDA d          32.001  -4.341  -0.512  0.00  0.00     0.090 H 
BRANCH  50  52
ATOM     52  O7  KDA d          31.596  -4.038   1.486  0.00  0.00    -0.391 OA
ATOM     53  H23 KDA d          31.578  -3.320   2.109  0.00  0.00     0.210 HD
ENDBRANCH  50  52
BRANCH  50  54
ATOM     54  C8  KDA d          32.888  -2.516   0.162  0.00  0.00     0.043 C 
ATOM     55  H24 KDA d          32.942  -2.043  -0.829  0.00  0.00     0.078 H 
ATOM     56  H25 KDA d          33.831  -3.045   0.368  0.00  0.00     0.078 H 
BRANCH  54  57
ATOM     57  O8  KDA d          32.694  -1.499   1.159  0.00  0.00    -0.398 OA
ATOM     58  H26 KDA d          32.485  -0.676   0.733  0.00  0.00     0.209 HD
ENDBRANCH  54  57
ENDBRANCH  50  54
ENDBRANCH  42  50
ENDBRANCH  35  36
ENDBRANCH  32  35
ENDBRANCH   1  32
TORSDOF 16
ENDMDL
