MODEL 1
REMARK VINA RESULT:      -6.5      0.000      0.000
REMARK  9 active torsions:
REMARK  status: ('A' for Active; 'I' for Inactive)
REMARK    1  A    between atoms: C1_1  and  S1_12 
REMARK    2  A    between atoms: C2_2  and  O2_3 
REMARK    3  A    between atoms: C3_4  and  O3_5 
REMARK    4  A    between atoms: C4_6  and  O4_7 
REMARK    5  A    between atoms: C5_8  and  C6_10 
REMARK    6  A    between atoms: C6_10  and  O6_11 
REMARK    7  A    between atoms: S1_12  and  C1'_13 
REMARK    8  A    between atoms: C1'_13  and  C2'_14 
REMARK    9  A    between atoms: C1'_13  and  C3'_15 
ROOT
ATOM      1  C1  IPT d         -15.007 -27.722 -26.521  0.00  0.00     0.110 C 
ATOM      2  C2  IPT d         -13.933 -27.448 -25.462  0.00  0.00     0.096 C 
ATOM      3  C3  IPT d         -12.587 -27.089 -26.103  0.00  0.00     0.090 C 
ATOM      4  C4  IPT d         -12.215 -28.024 -27.263  0.00  0.00     0.089 C 
ATOM      5  C5  IPT d         -13.409 -28.158 -28.217  0.00  0.00     0.087 C 
ATOM      6  O5  IPT d         -14.515 -28.661 -27.474  0.00  0.00    -0.363 OA
ATOM      7  H1  IPT d         -15.257 -26.777 -27.024  0.00  0.00     0.104 H 
ATOM      8  H2  IPT d         -13.804 -28.346 -24.841  0.00  0.00     0.092 H 
ATOM      9  H4  IPT d         -12.667 -26.068 -26.504  0.00  0.00     0.091 H 
ATOM     10  H6  IPT d         -11.364 -27.600 -27.813  0.00  0.00     0.091 H 
ATOM     11  H8  IPT d         -13.646 -27.155 -28.600  0.00  0.00     0.090 H 
ENDROOT
BRANCH   1  12
ATOM     12  S1  IPT d         -16.476 -28.417 -25.825  0.00  0.00    -0.131 SA
BRANCH  12  13
ATOM     13  C1' IPT d         -17.839 -28.010 -26.885  0.00  0.00    -0.014 C 
ATOM     14  H12 IPT d         -17.741 -26.956 -27.187  0.00  0.00     0.055 H 
BRANCH  13  15
ATOM     15  C2' IPT d         -17.845 -28.872 -28.149  0.00  0.00    -0.065 C 
ATOM     16  H13 IPT d         -18.701 -28.592 -28.780  0.00  0.00     0.028 H 
ATOM     17  H14 IPT d         -17.927 -29.933 -27.869  0.00  0.00     0.028 H 
ATOM     18  H15 IPT d         -16.911 -28.712 -28.707  0.00  0.00     0.028 H 
ENDBRANCH  13  15
BRANCH  13  19
ATOM     19  C3' IPT d         -19.145 -28.176 -26.116  0.00  0.00    -0.065 C 
ATOM     20  H16 IPT d         -19.991 -27.923 -26.772  0.00  0.00     0.028 H 
ATOM     21  H17 IPT d         -19.145 -27.506 -25.243  0.00  0.00     0.028 H 
ATOM     22  H18 IPT d         -19.242 -29.218 -25.778  0.00  0.00     0.028 H 
ENDBRANCH  13  19
ENDBRANCH  12  13
ENDBRANCH   1  12
BRANCH   2  23
ATOM     23  O2  IPT d         -14.371 -26.361 -24.645  0.00  0.00    -0.389 OA
ATOM     24  H3  IPT d         -13.713 -26.179 -23.984  0.00  0.00     0.210 HD
ENDBRANCH   2  23
BRANCH   3  25
ATOM     25  O3  IPT d         -11.545 -27.106 -25.112  0.00  0.00    -0.390 OA
ATOM     26  H5  IPT d         -11.487 -27.975 -24.730  0.00  0.00     0.210 HD
ENDBRANCH   3  25
BRANCH   5  27
ATOM     27  C6  IPT d         -13.223 -29.086 -29.413  0.00  0.00     0.043 C 
ATOM     28  H9  IPT d         -13.812 -28.701 -30.259  0.00  0.00     0.078 H 
ATOM     29  H10 IPT d         -13.581 -30.091 -29.145  0.00  0.00     0.078 H 
BRANCH  27  30
ATOM     30  O6  IPT d         -11.847 -29.173 -29.805  0.00  0.00    -0.398 OA
ATOM     31  H11 IPT d         -11.767 -29.756 -30.549  0.00  0.00     0.209 HD
ENDBRANCH  27  30
ENDBRANCH   5  27
BRANCH   4  32
ATOM     32  O4  IPT d         -11.840 -29.303 -26.731  0.00  0.00    -0.390 OA
ATOM     33  H7  IPT d         -11.094 -29.197 -26.152  0.00  0.00     0.210 HD
ENDBRANCH   4  32
TORSDOF 9
ENDMDL
