MODEL 1
REMARK VINA RESULT:      -8.9      0.000      0.000
REMARK  8 active torsions:
REMARK  status: ('A' for Active; 'I' for Inactive)
REMARK    1  A    between atoms: O6_1  and  C6_2 
REMARK    2  A    between atoms: C6_2  and  C5_3 
REMARK    3  A    between atoms: C4_4  and  O4_5 
REMARK    4  A    between atoms: C3_6  and  O3_7 
REMARK    5  A    between atoms: C2_8  and  O2_9 
REMARK    6  A    between atoms: C7_12  and  C9_15 
REMARK    7  A    between atoms: C9_15  and  C10_16 
REMARK    8  A    between atoms: C10_16  and  C14_17 
ROOT
ATOM      1  C5  PGI d          -2.365  10.408   8.670  0.00  0.00     0.065 C 
ATOM      2  C4  PGI d          -1.144  10.578   7.751  0.00  0.00     0.085 C 
ATOM      3  C3  PGI d          -0.216  11.647   8.365  0.00  0.00     0.093 C 
ATOM      4  C2  PGI d           0.387  11.178   9.682  0.00  0.00     0.119 C 
ATOM      5  N1  PGI d          -1.806   9.967   9.975  0.00  0.00    -0.332 N 
ATOM      6  C8  PGI d          -2.353   9.118  10.861  0.00  0.00     0.005 A 
ATOM      7  C7  PGI d          -1.429   8.975  11.884  0.00  0.00     0.052 A 
ATOM      8  N2  PGI d          -0.362   9.723  11.578  0.00  0.00    -0.235 NA
ATOM      9  C1  PGI d          -0.594  10.331  10.415  0.00  0.00     0.138 A 
ATOM     10  H4  PGI d          -2.860  11.383   8.796  0.00  0.00     0.080 H 
ATOM     11  H5  PGI d          -0.602   9.622   7.698  0.00  0.00     0.090 H 
ATOM     12  H7  PGI d          -0.829  12.541   8.550  0.00  0.00     0.091 H 
ATOM     13  H9  PGI d           1.257  10.546   9.456  0.00  0.00     0.099 H 
ATOM     14  H11 PGI d          -3.328   8.638  10.789  0.00  0.00     0.114 H 
ENDROOT
BRANCH   7  15
ATOM     15  C9  PGI d          -1.575   8.154  13.145  0.00  0.00    -0.020 C 
ATOM     16  H12 PGI d          -1.988   7.167  12.892  0.00  0.00     0.042 H 
ATOM     17  H13 PGI d          -2.255   8.669  13.840  0.00  0.00     0.042 H 
BRANCH  15  18
ATOM     18  C10 PGI d          -0.209   7.977  13.811  0.00  0.00    -0.036 C 
ATOM     19  H14 PGI d          -0.341   8.123  14.894  0.00  0.00     0.040 H 
ATOM     20  H15 PGI d           0.462   8.754  13.416  0.00  0.00     0.040 H 
BRANCH  18  21
ATOM     21  C14 PGI d           0.468   6.622  13.600  0.00  0.00    -0.058 A 
ATOM     22  C13 PGI d           1.115   6.327  12.388  0.00  0.00    -0.077 A 
ATOM     23  C12 PGI d           1.759   5.092  12.184  0.00  0.00    -0.082 A 
ATOM     24  H16 PGI d           1.119   7.065  11.594  0.00  0.00     0.084 H 
ATOM     25  C11 PGI d           1.783   4.131  13.201  0.00  0.00    -0.083 A 
ATOM     26  H17 PGI d           2.238   4.884  11.234  0.00  0.00     0.083 H 
ATOM     27  C16 PGI d           1.139   4.428  14.409  0.00  0.00    -0.082 A 
ATOM     28  H20 PGI d           2.287   3.182  13.058  0.00  0.00     0.083 H 
ATOM     29  C15 PGI d           0.493   5.660  14.617  0.00  0.00    -0.077 A 
ATOM     30  H19 PGI d           1.138   3.690  15.203  0.00  0.00     0.083 H 
ATOM     31  H18 PGI d           0.013   5.865  15.567  0.00  0.00     0.084 H 
ENDBRANCH  18  21
ENDBRANCH  15  18
ENDBRANCH   7  15
BRANCH   1  32
ATOM     32  C6  PGI d          -3.403   9.427   8.134  0.00  0.00     0.038 C 
ATOM     33  H2  PGI d          -4.358   9.619   8.643  0.00  0.00     0.077 H 
ATOM     34  H3  PGI d          -3.520   9.601   7.054  0.00  0.00     0.077 H 
BRANCH  32  35
ATOM     35  O6  PGI d          -3.049   8.052   8.337  0.00  0.00    -0.399 OA
ATOM     36  H1  PGI d          -3.347   7.772   9.194  0.00  0.00     0.209 HD
ENDBRANCH  32  35
ENDBRANCH   1  32
BRANCH   4  37
ATOM     37  O2  PGI d           0.860  12.302  10.410  0.00  0.00    -0.385 OA
ATOM     38  H10 PGI d           0.790  13.080   9.870  0.00  0.00     0.210 HD
ENDBRANCH   4  37
BRANCH   2  39
ATOM     39  O4  PGI d          -1.537  10.949   6.424  0.00  0.00    -0.391 OA
ATOM     40  H6  PGI d          -0.846  10.719   5.814  0.00  0.00     0.210 HD
ENDBRANCH   2  39
BRANCH   3  41
ATOM     41  O3  PGI d           0.891  12.021   7.547  0.00  0.00    -0.390 OA
ATOM     42  H8  PGI d           0.665  12.795   7.044  0.00  0.00     0.210 HD
ENDBRANCH   3  41
TORSDOF 8
ENDMDL
MODEL 2
REMARK VINA RESULT:      -7.7      1.888      3.746
REMARK  8 active torsions:
REMARK  status: ('A' for Active; 'I' for Inactive)
REMARK    1  A    between atoms: O6_1  and  C6_2 
REMARK    2  A    between atoms: C6_2  and  C5_3 
REMARK    3  A    between atoms: C4_4  and  O4_5 
REMARK    4  A    between atoms: C3_6  and  O3_7 
REMARK    5  A    between atoms: C2_8  and  O2_9 
REMARK    6  A    between atoms: C7_12  and  C9_15 
REMARK    7  A    between atoms: C9_15  and  C10_16 
REMARK    8  A    between atoms: C10_16  and  C14_17 
ROOT
ATOM      1  C5  PGI d          -0.107  10.417   9.040  0.00  0.00     0.065 C 
ATOM      2  C4  PGI d          -1.537  10.982   9.078  0.00  0.00     0.085 C 
ATOM      3  C3  PGI d          -2.484   9.958   8.419  0.00  0.00     0.093 C 
ATOM      4  C2  PGI d          -2.581   8.677   9.234  0.00  0.00     0.119 C 
ATOM      5  N1  PGI d          -0.173   9.150   9.815  0.00  0.00    -0.332 N 
ATOM      6  C8  PGI d           0.775   8.616  10.602  0.00  0.00     0.005 A 
ATOM      7  C7  PGI d           0.223   7.470  11.154  0.00  0.00     0.052 A 
ATOM      8  N2  PGI d          -1.031   7.360  10.695  0.00  0.00    -0.235 NA
ATOM      9  C1  PGI d          -1.270   8.384   9.876  0.00  0.00     0.138 A 
ATOM     10  H4  PGI d           0.164  10.193   7.997  0.00  0.00     0.080 H 
ATOM     11  H5  PGI d          -1.836  11.122  10.128  0.00  0.00     0.090 H 
ATOM     12  H7  PGI d          -2.068   9.722   7.429  0.00  0.00     0.091 H 
ATOM     13  H9  PGI d          -3.310   8.837  10.042  0.00  0.00     0.099 H 
ATOM     14  H11 PGI d           1.777   9.005  10.774  0.00  0.00     0.114 H 
ENDROOT
BRANCH   7  15
ATOM     15  C9  PGI d           0.891   6.484  12.085  0.00  0.00    -0.020 C 
ATOM     16  H12 PGI d           1.982   6.603  12.018  0.00  0.00     0.042 H 
ATOM     17  H13 PGI d           0.615   5.460  11.792  0.00  0.00     0.042 H 
BRANCH  15  18
ATOM     18  C10 PGI d           0.439   6.740  13.524  0.00  0.00    -0.036 C 
ATOM     19  H14 PGI d           0.544   7.817  13.723  0.00  0.00     0.040 H 
ATOM     20  H15 PGI d           1.108   6.177  14.192  0.00  0.00     0.040 H 
BRANCH  18  21
ATOM     21  C14 PGI d          -0.999   6.340  13.855  0.00  0.00    -0.058 A 
ATOM     22  C13 PGI d          -1.961   7.315  14.167  0.00  0.00    -0.077 A 
ATOM     23  C12 PGI d          -3.293   6.964  14.455  0.00  0.00    -0.082 A 
ATOM     24  H16 PGI d          -1.671   8.360  14.188  0.00  0.00     0.084 H 
ATOM     25  C11 PGI d          -3.695   5.625  14.417  0.00  0.00    -0.083 A 
ATOM     26  H17 PGI d          -4.011   7.736  14.708  0.00  0.00     0.083 H 
ATOM     27  C16 PGI d          -2.735   4.654  14.104  0.00  0.00    -0.082 A 
ATOM     28  H20 PGI d          -4.722   5.346  14.625  0.00  0.00     0.083 H 
ATOM     29  C15 PGI d          -1.403   4.998  13.817  0.00  0.00    -0.077 A 
ATOM     30  H19 PGI d          -3.028   3.610  14.081  0.00  0.00     0.083 H 
ATOM     31  H18 PGI d          -0.686   4.225  13.566  0.00  0.00     0.084 H 
ENDBRANCH  18  21
ENDBRANCH  15  18
ENDBRANCH   7  15
BRANCH   1  32
ATOM     32  C6  PGI d           0.944  11.372   9.597  0.00  0.00     0.038 C 
ATOM     33  H2  PGI d           1.787  10.777   9.977  0.00  0.00     0.077 H 
ATOM     34  H3  PGI d           1.292  12.022   8.780  0.00  0.00     0.077 H 
BRANCH  32  35
ATOM     35  O6  PGI d           0.457  12.200  10.662  0.00  0.00    -0.399 OA
ATOM     36  H1  PGI d           1.115  12.256  11.345  0.00  0.00     0.209 HD
ENDBRANCH  32  35
ENDBRANCH   1  32
BRANCH   4  37
ATOM     37  O2  PGI d          -3.086   7.633   8.413  0.00  0.00    -0.385 OA
ATOM     38  H10 PGI d          -2.498   7.497   7.679  0.00  0.00     0.210 HD
ENDBRANCH   4  37
BRANCH   2  39
ATOM     39  O4  PGI d          -1.615  12.248   8.413  0.00  0.00    -0.391 OA
ATOM     40  H6  PGI d          -0.969  12.839   8.781  0.00  0.00     0.210 HD
ENDBRANCH   2  39
BRANCH   3  41
ATOM     41  O3  PGI d          -3.827  10.408   8.248  0.00  0.00    -0.390 OA
ATOM     42  H8  PGI d          -4.081  10.937   8.996  0.00  0.00     0.210 HD
ENDBRANCH   3  41
TORSDOF 8
ENDMDL
MODEL 3
REMARK VINA RESULT:      -6.7      1.032      2.834
REMARK  8 active torsions:
REMARK  status: ('A' for Active; 'I' for Inactive)
REMARK    1  A    between atoms: O6_1  and  C6_2 
REMARK    2  A    between atoms: C6_2  and  C5_3 
REMARK    3  A    between atoms: C4_4  and  O4_5 
REMARK    4  A    between atoms: C3_6  and  O3_7 
REMARK    5  A    between atoms: C2_8  and  O2_9 
REMARK    6  A    between atoms: C7_12  and  C9_15 
REMARK    7  A    between atoms: C9_15  and  C10_16 
REMARK    8  A    between atoms: C10_16  and  C14_17 
ROOT
ATOM      1  C5  PGI d          -0.384  10.430   9.661  0.00  0.00     0.065 C 
ATOM      2  C4  PGI d          -1.527  10.972   8.786  0.00  0.00     0.085 C 
ATOM      3  C3  PGI d          -2.223   9.778   8.100  0.00  0.00     0.093 C 
ATOM      4  C2  PGI d          -2.932   8.884   9.107  0.00  0.00     0.119 C 
ATOM      5  N1  PGI d          -1.044   9.536  10.648  0.00  0.00    -0.332 N 
ATOM      6  C8  PGI d          -0.701   9.327  11.930  0.00  0.00     0.005 A 
ATOM      7  C7  PGI d          -1.652   8.463  12.452  0.00  0.00     0.052 A 
ATOM      8  N2  PGI d          -2.535   8.194  11.482  0.00  0.00    -0.235 NA
ATOM      9  C1  PGI d          -2.161   8.846  10.380  0.00  0.00     0.138 A 
ATOM     10  H4  PGI d           0.300   9.839   9.034  0.00  0.00     0.080 H 
ATOM     11  H5  PGI d          -2.255  11.487   9.431  0.00  0.00     0.090 H 
ATOM     12  H7  PGI d          -1.441   9.195   7.592  0.00  0.00     0.091 H 
ATOM     13  H9  PGI d          -3.911   9.331   9.333  0.00  0.00     0.099 H 
ATOM     14  H11 PGI d           0.154   9.751  12.454  0.00  0.00     0.114 H 
ENDROOT
BRANCH   7  15
ATOM     15  C9  PGI d          -1.701   7.887  13.848  0.00  0.00    -0.020 C 
ATOM     16  H12 PGI d          -2.193   6.904  13.820  0.00  0.00     0.042 H 
ATOM     17  H13 PGI d          -2.270   8.564  14.503  0.00  0.00     0.042 H 
BRANCH  15  18
ATOM     18  C10 PGI d          -0.280   7.729  14.395  0.00  0.00    -0.036 C 
ATOM     19  H14 PGI d          -0.341   7.732  15.494  0.00  0.00     0.040 H 
ATOM     20  H15 PGI d           0.309   8.594  14.058  0.00  0.00     0.040 H 
BRANCH  18  21
ATOM     21  C14 PGI d           0.462   6.461  13.970  0.00  0.00    -0.058 A 
ATOM     22  C13 PGI d           1.299   6.466  12.842  0.00  0.00    -0.077 A 
ATOM     23  C12 PGI d           2.004   5.313  12.449  0.00  0.00    -0.082 A 
ATOM     24  H16 PGI d           1.404   7.376  12.262  0.00  0.00     0.084 H 
ATOM     25  C11 PGI d           1.899   4.132  13.191  0.00  0.00    -0.083 A 
ATOM     26  H17 PGI d           2.631   5.340  11.564  0.00  0.00     0.083 H 
ATOM     27  C16 PGI d           1.066   4.130  14.317  0.00  0.00    -0.082 A 
ATOM     28  H20 PGI d           2.448   3.243  12.904  0.00  0.00     0.083 H 
ATOM     29  C15 PGI d           0.358   5.279  14.714  0.00  0.00    -0.077 A 
ATOM     30  H19 PGI d           0.964   3.220  14.898  0.00  0.00     0.083 H 
ATOM     31  H18 PGI d          -0.270   5.249  15.597  0.00  0.00     0.084 H 
ENDBRANCH  18  21
ENDBRANCH  15  18
ENDBRANCH   7  15
BRANCH   1  32
ATOM     32  C6  PGI d           0.436  11.522  10.341  0.00  0.00     0.038 C 
ATOM     33  H2  PGI d          -0.248  12.159  10.921  0.00  0.00     0.077 H 
ATOM     34  H3  PGI d           1.157  11.043  11.021  0.00  0.00     0.077 H 
BRANCH  32  35
ATOM     35  O6  PGI d           1.160  12.351   9.422  0.00  0.00    -0.399 OA
ATOM     36  H1  PGI d           2.044  12.481   9.743  0.00  0.00     0.209 HD
ENDBRANCH  32  35
ENDBRANCH   1  32
BRANCH   4  37
ATOM     37  O2  PGI d          -3.173   7.613   8.522  0.00  0.00    -0.385 OA
ATOM     38  H10 PGI d          -4.056   7.589   8.172  0.00  0.00     0.210 HD
ENDBRANCH   4  37
BRANCH   2  39
ATOM     39  O4  PGI d          -1.043  11.905   7.814  0.00  0.00    -0.391 OA
ATOM     40  H6  PGI d          -0.829  12.726   8.243  0.00  0.00     0.210 HD
ENDBRANCH   2  39
BRANCH   3  41
ATOM     41  O3  PGI d          -3.214  10.135   7.138  0.00  0.00    -0.390 OA
ATOM     42  H8  PGI d          -3.250  11.081   7.057  0.00  0.00     0.210 HD
ENDBRANCH   3  41
TORSDOF 8
ENDMDL
MODEL 4
REMARK VINA RESULT:      -6.0      3.068      6.559
REMARK  8 active torsions:
REMARK  status: ('A' for Active; 'I' for Inactive)
REMARK    1  A    between atoms: O6_1  and  C6_2 
REMARK    2  A    between atoms: C6_2  and  C5_3 
REMARK    3  A    between atoms: C4_4  and  O4_5 
REMARK    4  A    between atoms: C3_6  and  O3_7 
REMARK    5  A    between atoms: C2_8  and  O2_9 
REMARK    6  A    between atoms: C7_12  and  C9_15 
REMARK    7  A    between atoms: C9_15  and  C10_16 
REMARK    8  A    between atoms: C10_16  and  C14_17 
ROOT
ATOM      1  C5  PGI d          -1.098   7.040  13.250  0.00  0.00     0.065 C 
ATOM      2  C4  PGI d           0.430   6.948  13.412  0.00  0.00     0.085 C 
ATOM      3  C3  PGI d           0.936   5.751  12.581  0.00  0.00     0.093 C 
ATOM      4  C2  PGI d           0.746   5.982  11.088  0.00  0.00     0.119 C 
ATOM      5  N1  PGI d          -1.318   7.248  11.795  0.00  0.00    -0.332 N 
ATOM      6  C8  PGI d          -2.276   7.980  11.203  0.00  0.00     0.005 A 
ATOM      7  C7  PGI d          -2.029   7.917   9.840  0.00  0.00     0.052 A 
ATOM      8  N2  PGI d          -0.933   7.169   9.659  0.00  0.00    -0.235 NA
ATOM      9  C1  PGI d          -0.502   6.759  10.851  0.00  0.00     0.138 A 
ATOM     10  H4  PGI d          -1.550   6.084  13.555  0.00  0.00     0.080 H 
ATOM     11  H5  PGI d           0.885   7.871  13.024  0.00  0.00     0.090 H 
ATOM     12  H7  PGI d           0.349   4.872  12.885  0.00  0.00     0.091 H 
ATOM     13  H9  PGI d           1.584   6.595  10.725  0.00  0.00     0.099 H 
ATOM     14  H11 PGI d          -3.087   8.516  11.695  0.00  0.00     0.114 H 
ENDROOT
BRANCH   7  15
ATOM     15  C9  PGI d          -2.841   8.544   8.729  0.00  0.00    -0.020 C 
ATOM     16  H12 PGI d          -3.869   8.158   8.768  0.00  0.00     0.042 H 
ATOM     17  H13 PGI d          -2.389   8.290   7.759  0.00  0.00     0.042 H 
BRANCH  15  18
ATOM     18  C10 PGI d          -2.862  10.065   8.896  0.00  0.00    -0.036 C 
ATOM     19  H14 PGI d          -3.346  10.291   9.858  0.00  0.00     0.040 H 
ATOM     20  H15 PGI d          -3.462  10.485   8.075  0.00  0.00     0.040 H 
BRANCH  18  21
ATOM     21  C14 PGI d          -1.499  10.759   8.882  0.00  0.00    -0.058 A 
ATOM     22  C13 PGI d          -0.802  10.991  10.079  0.00  0.00    -0.077 A 
ATOM     23  C12 PGI d           0.462  11.611  10.081  0.00  0.00    -0.082 A 
ATOM     24  H16 PGI d          -1.245  10.687  11.020  0.00  0.00     0.084 H 
ATOM     25  C11 PGI d           1.063  11.996   8.878  0.00  0.00    -0.083 A 
ATOM     26  H17 PGI d           0.972  11.792  11.021  0.00  0.00     0.083 H 
ATOM     27  C16 PGI d           0.366  11.762   7.685  0.00  0.00    -0.082 A 
ATOM     28  H20 PGI d           2.041  12.463   8.869  0.00  0.00     0.083 H 
ATOM     29  C15 PGI d          -0.897  11.144   7.677  0.00  0.00    -0.077 A 
ATOM     30  H19 PGI d           0.813  12.065   6.745  0.00  0.00     0.083 H 
ATOM     31  H18 PGI d          -1.406  10.966   6.737  0.00  0.00     0.084 H 
ENDBRANCH  18  21
ENDBRANCH  15  18
ENDBRANCH   7  15
BRANCH   1  32
ATOM     32  C6  PGI d          -1.736   8.144  14.086  0.00  0.00     0.038 C 
ATOM     33  H2  PGI d          -2.765   8.299  13.730  0.00  0.00     0.077 H 
ATOM     34  H3  PGI d          -1.756   7.817  15.137  0.00  0.00     0.077 H 
BRANCH  32  35
ATOM     35  O6  PGI d          -1.037   9.395  14.012  0.00  0.00    -0.399 OA
ATOM     36  H1  PGI d          -1.140   9.862  14.833  0.00  0.00     0.209 HD
ENDBRANCH  32  35
ENDBRANCH   1  32
BRANCH   4  37
ATOM     37  O2  PGI d           0.808   4.738  10.407  0.00  0.00    -0.385 OA
ATOM     38  H10 PGI d           1.439   4.796   9.699  0.00  0.00     0.210 HD
ENDBRANCH   4  37
BRANCH   2  39
ATOM     39  O4  PGI d           0.800   6.803  14.788  0.00  0.00    -0.391 OA
ATOM     40  H6  PGI d           1.377   6.054  14.883  0.00  0.00     0.210 HD
ENDBRANCH   2  39
BRANCH   3  41
ATOM     41  O3  PGI d           2.321   5.448  12.749  0.00  0.00    -0.390 OA
ATOM     42  H8  PGI d           2.670   5.959  13.469  0.00  0.00     0.210 HD
ENDBRANCH   3  41
TORSDOF 8
ENDMDL
