MODEL 1
REMARK VINA RESULT:      -5.5      0.000      0.000
REMARK  4 active torsions:
REMARK  status: ('A' for Active; 'I' for Inactive)
REMARK    1  A    between atoms: CA_3  and  N_2 
REMARK    2  A    between atoms: CA_3  and  C_4 
REMARK    3  A    between atoms: CB_10  and  CA_3 
REMARK    4  A    between atoms: CG_9  and  CB_10 
ROOT
ATOM      1  CB  R2P d         -31.647  -6.048  41.435  0.00  0.00     0.016 C 
ATOM      2  H6  R2P d         -32.743  -6.042  41.337  0.00  0.00     0.046 H 
ATOM      3  H7  R2P d         -31.190  -5.996  40.436  0.00  0.00     0.046 H 
ENDROOT
BRANCH   1   4
ATOM      4  CA  R2P d         -31.198  -7.386  42.141  0.00  0.00     0.187 C 
ATOM      5  H4  R2P d         -30.225  -7.182  42.611  0.00  0.00     0.101 H 
BRANCH   4   6
ATOM      6  N   R2P d         -32.092  -7.990  43.212  0.00  0.00    -0.065 N 
ATOM      7  H1  R2P d         -31.569  -8.668  43.744  0.00  0.00     0.275 HD
ATOM      8  H2  R2P d         -32.882  -8.441  42.777  0.00  0.00     0.275 HD
ATOM      9  H3  R2P d         -32.419  -7.261  43.827  0.00  0.00     0.275 HD
ENDBRANCH   4   6
BRANCH   4  10
ATOM     10  C   R2P d         -31.021  -8.478  41.066  0.00  0.00     0.204 C 
ATOM     11  O   R2P d         -32.151  -9.066  40.684  0.00  0.00    -0.646 OA
ATOM     12  O   R2P d         -29.889  -8.725  40.684  0.00  0.00    -0.646 OA
ENDBRANCH   4  10
ENDBRANCH   1   4
BRANCH   1  13
ATOM     13  CG  R2P d         -31.212  -4.834  42.249  0.00  0.00     0.101 A 
ATOM     14  N1  R2P d         -30.340  -3.908  41.871  0.00  0.00    -0.195 NA
ATOM     15  SE1 R2P d         -30.169  -2.746  43.093  0.00  0.00     0.093 SA
ATOM     16  N2  R2P d         -31.235  -3.448  44.127  0.00  0.00    -0.287 N 
ATOM     17  CD2 R2P d         -31.735  -4.565  43.574  0.00  0.00     0.211 A 
ATOM     18  H5  R2P d         -31.476  -3.097  45.033  0.00  0.00     0.178 HD
ATOM     19  O2  R2P d         -32.625  -5.362  44.157  0.00  0.00    -0.169 OA
ENDBRANCH   1  13
TORSDOF 4
ENDMDL
MODEL 2
REMARK VINA RESULT:      -5.4      2.801      4.992
REMARK  4 active torsions:
REMARK  status: ('A' for Active; 'I' for Inactive)
REMARK    1  A    between atoms: CA_3  and  N_2 
REMARK    2  A    between atoms: CA_3  and  C_4 
REMARK    3  A    between atoms: CB_10  and  CA_3 
REMARK    4  A    between atoms: CG_9  and  CB_10 
ROOT
ATOM      1  CB  R2P d         -31.848  -5.137  42.895  0.00  0.00     0.016 C 
ATOM      2  H6  R2P d         -32.819  -4.712  42.602  0.00  0.00     0.046 H 
ATOM      3  H7  R2P d         -31.755  -5.119  43.991  0.00  0.00     0.046 H 
ENDROOT
BRANCH   1   4
ATOM      4  CA  R2P d         -30.691  -4.269  42.263  0.00  0.00     0.187 C 
ATOM      5  H4  R2P d         -29.782  -4.886  42.297  0.00  0.00     0.101 H 
BRANCH   4   6
ATOM      6  N   R2P d         -30.840  -3.772  40.834  0.00  0.00    -0.065 N 
ATOM      7  H1  R2P d         -31.384  -2.923  40.828  0.00  0.00     0.275 HD
ATOM      8  H2  R2P d         -31.306  -4.473  40.281  0.00  0.00     0.275 HD
ATOM      9  H3  R2P d         -29.928  -3.589  40.445  0.00  0.00     0.275 HD
ENDBRANCH   4   6
BRANCH   4  10
ATOM     10  C   R2P d         -30.483  -3.013  43.134  0.00  0.00     0.204 C 
ATOM     11  O   R2P d         -30.975  -3.107  44.366  0.00  0.00    -0.646 OA
ATOM     12  O   R2P d         -29.924  -2.054  42.628  0.00  0.00    -0.646 OA
ENDBRANCH   4  10
ENDBRANCH   1   4
BRANCH   1  13
ATOM     13  CG  R2P d         -31.768  -6.581  42.410  0.00  0.00     0.101 A 
ATOM     14  N1  R2P d         -32.708  -7.507  42.547  0.00  0.00    -0.195 NA
ATOM     15  SE1 R2P d         -32.186  -8.963  41.852  0.00  0.00     0.093 SA
ATOM     16  N2  R2P d         -30.724  -8.391  41.368  0.00  0.00    -0.287 N 
ATOM     17  CD2 R2P d         -30.603  -7.100  41.721  0.00  0.00     0.211 A 
ATOM     18  H5  R2P d         -30.028  -8.923  40.884  0.00  0.00     0.178 HD
ATOM     19  O2  R2P d         -29.536  -6.348  41.472  0.00  0.00    -0.169 OA
ENDBRANCH   1  13
TORSDOF 4
ENDMDL
MODEL 3
REMARK VINA RESULT:      -5.1      1.284      1.560
REMARK  4 active torsions:
REMARK  status: ('A' for Active; 'I' for Inactive)
REMARK    1  A    between atoms: CA_3  and  N_2 
REMARK    2  A    between atoms: CA_3  and  C_4 
REMARK    3  A    between atoms: CB_10  and  CA_3 
REMARK    4  A    between atoms: CG_9  and  CB_10 
ROOT
ATOM      1  CB  R2P d         -31.114  -5.154  40.812  0.00  0.00     0.016 C 
ATOM      2  H6  R2P d         -32.152  -5.504  40.713  0.00  0.00     0.046 H 
ATOM      3  H7  R2P d         -30.835  -4.575  39.919  0.00  0.00     0.046 H 
ENDROOT
BRANCH   1   4
ATOM      4  CA  R2P d         -30.157  -6.403  40.939  0.00  0.00     0.187 C 
ATOM      5  H4  R2P d         -29.447  -6.341  40.101  0.00  0.00     0.101 H 
BRANCH   4   6
ATOM      6  N   R2P d         -29.336  -6.577  42.206  0.00  0.00    -0.065 N 
ATOM      7  H1  R2P d         -28.574  -5.916  42.206  0.00  0.00     0.275 HD
ATOM      8  H2  R2P d         -28.967  -7.514  42.243  0.00  0.00     0.275 HD
ATOM      9  H3  R2P d         -29.921  -6.415  43.010  0.00  0.00     0.275 HD
ENDBRANCH   4   6
BRANCH   4  10
ATOM     10  C   R2P d         -30.998  -7.688  40.794  0.00  0.00     0.204 C 
ATOM     11  O   R2P d         -30.287  -8.810  40.727  0.00  0.00    -0.646 OA
ATOM     12  O   R2P d         -32.211  -7.572  40.728  0.00  0.00    -0.646 OA
ENDBRANCH   4  10
ENDBRANCH   1   4
BRANCH   1  13
ATOM     13  CG  R2P d         -31.002  -4.260  42.043  0.00  0.00     0.101 A 
ATOM     14  N1  R2P d         -30.393  -3.083  42.105  0.00  0.00    -0.195 NA
ATOM     15  SE1 R2P d         -30.526  -2.449  43.671  0.00  0.00     0.093 SA
ATOM     16  N2  R2P d         -31.382  -3.712  44.280  0.00  0.00    -0.287 N 
ATOM     17  CD2 R2P d         -31.580  -4.630  43.320  0.00  0.00     0.211 A 
ATOM     18  H5  R2P d         -31.706  -3.787  45.224  0.00  0.00     0.178 HD
ATOM     19  O2  R2P d         -32.241  -5.770  43.493  0.00  0.00    -0.169 OA
ENDBRANCH   1  13
TORSDOF 4
ENDMDL
MODEL 4
REMARK VINA RESULT:      -4.3      1.788      2.268
REMARK  4 active torsions:
REMARK  status: ('A' for Active; 'I' for Inactive)
REMARK    1  A    between atoms: CA_3  and  N_2 
REMARK    2  A    between atoms: CA_3  and  C_4 
REMARK    3  A    between atoms: CB_10  and  CA_3 
REMARK    4  A    between atoms: CG_9  and  CB_10 
ROOT
ATOM      1  CB  R2P d         -32.035  -6.050  42.446  0.00  0.00     0.016 C 
ATOM      2  H6  R2P d         -32.288  -6.646  43.335  0.00  0.00     0.046 H 
ATOM      3  H7  R2P d         -32.938  -5.900  41.836  0.00  0.00     0.046 H 
ENDROOT
BRANCH   1   4
ATOM      4  CA  R2P d         -30.957  -6.826  41.593  0.00  0.00     0.187 C 
ATOM      5  H4  R2P d         -31.256  -6.722  40.540  0.00  0.00     0.101 H 
BRANCH   4   6
ATOM      6  N   R2P d         -29.500  -6.402  41.686  0.00  0.00    -0.065 N 
ATOM      7  H1  R2P d         -29.016  -6.675  40.846  0.00  0.00     0.275 HD
ATOM      8  H2  R2P d         -29.070  -6.847  42.481  0.00  0.00     0.275 HD
ATOM      9  H3  R2P d         -29.448  -5.401  41.793  0.00  0.00     0.275 HD
ENDBRANCH   4   6
BRANCH   4  10
ATOM     10  C   R2P d         -30.995  -8.317  41.984  0.00  0.00     0.204 C 
ATOM     11  O   R2P d         -29.976  -9.036  41.522  0.00  0.00    -0.646 OA
ATOM     12  O   R2P d         -31.943  -8.710  42.644  0.00  0.00    -0.646 OA
ENDBRANCH   4  10
ENDBRANCH   1   4
BRANCH   1  13
ATOM     13  CG  R2P d         -31.501  -4.693  42.890  0.00  0.00     0.101 A 
ATOM     14  N1  R2P d         -31.559  -4.190  44.116  0.00  0.00    -0.195 NA
ATOM     15  SE1 R2P d         -30.835  -2.657  44.144  0.00  0.00     0.093 SA
ATOM     16  N2  R2P d         -30.441  -2.641  42.549  0.00  0.00    -0.287 N 
ATOM     17  CD2 R2P d         -30.846  -3.782  41.971  0.00  0.00     0.211 A 
ATOM     18  H5  R2P d         -29.969  -1.893  42.080  0.00  0.00     0.178 HD
ATOM     19  O2  R2P d         -30.675  -4.078  40.686  0.00  0.00    -0.169 OA
ENDBRANCH   1  13
TORSDOF 4
ENDMDL
