MODEL 1
REMARK VINA RESULT:      -9.2      0.000      0.000
REMARK  6 active torsions:
REMARK  status: ('A' for Active; 'I' for Inactive)
REMARK    1  A    between atoms: C07_7  and  N03_3 
REMARK    2  A    between atoms: N03_3  and  C09_9 
REMARK    3  A    between atoms: C06_6  and  N04_4 
REMARK    4  A    between atoms: N04_4  and  C16_16 
REMARK    5  A    between atoms: C14_14  and  C15_15 
REMARK    6  A    between atoms: C19_19  and  C22_22 
ROOT
ATOM      1  N01 MOL d           5.545  29.292   0.286  0.00  0.00    -0.075 NA
ATOM      2  N02 MOL d           5.513  29.560   2.613  0.00  0.00    -0.045 NA
ATOM      3  C05 MOL d           6.140  28.095   0.411  0.00  0.00     0.025 A 
ATOM      4  C06 MOL d           5.247  30.005   1.377  0.00  0.00     0.728 A 
ATOM      5  C07 MOL d           6.111  28.362   2.787  0.00  0.00     0.148 A 
ATOM      6  C08 MOL d           6.443  27.593   1.673  0.00  0.00    -0.021 A 
ATOM      7  H3  MOL d           6.385  27.518  -0.473  0.00  0.00     0.115 H 
ATOM      8  H4  MOL d           6.925  26.629   1.787  0.00  0.00     0.091 H 
ENDROOT
BRANCH   5   9
ATOM      9  N03 MOL d           6.417  27.857   4.101  0.00  0.00    -0.340 N 
ATOM     10  H1  MOL d           5.727  27.259   4.578  0.00  0.00     0.167 HD
BRANCH   9  11
ATOM     11  C09 MOL d           7.653  28.160   4.769  0.00  0.00     0.044 A 
ATOM     12  C10 MOL d           8.859  27.821   4.174  0.00  0.00    -0.056 A 
ATOM     13  C11 MOL d          10.055  28.107   4.817  0.00  0.00    -0.081 A 
ATOM     14  H5  MOL d           8.868  27.334   3.206  0.00  0.00     0.086 H 
ATOM     15  C12 MOL d          10.060  28.726   6.056  0.00  0.00    -0.082 A 
ATOM     16  H6  MOL d          10.994  27.843   4.345  0.00  0.00     0.083 H 
ATOM     17  C13 MOL d           8.855  29.061   6.653  0.00  0.00    -0.070 A 
ATOM     18  H7  MOL d          10.997  28.946   6.554  0.00  0.00     0.083 H 
ATOM     19  C14 MOL d           7.654  28.779   6.016  0.00  0.00     0.001 A 
ATOM     20  H8  MOL d           8.850  29.545   7.623  0.00  0.00     0.084 H 
BRANCH  19  21
ATOM     21  C15 MOL d           6.375  29.160   6.688  0.00  0.00    -0.024 A 
ATOM     22  C23 MOL d           5.484  30.026   6.071  0.00  0.00    -0.072 A 
ATOM     23  C24 MOL d           4.299  30.364   6.708  0.00  0.00    -0.082 A 
ATOM     24  H13 MOL d           5.712  30.437   5.095  0.00  0.00     0.084 H 
ATOM     25  C25 MOL d           4.008  29.836   7.956  0.00  0.00    -0.083 A 
ATOM     26  H14 MOL d           3.601  31.042   6.230  0.00  0.00     0.083 H 
ATOM     27  C26 MOL d           4.895  28.970   8.574  0.00  0.00    -0.082 A 
ATOM     28  H15 MOL d           3.080  30.102   8.452  0.00  0.00     0.083 H 
ATOM     29  C27 MOL d           6.078  28.631   7.937  0.00  0.00    -0.072 A 
ATOM     30  H16 MOL d           4.666  28.560   9.551  0.00  0.00     0.083 H 
ATOM     31  H17 MOL d           6.774  27.951   8.415  0.00  0.00     0.084 H 
ENDBRANCH  19  21
ENDBRANCH   9  11
ENDBRANCH   5   9
BRANCH   4  32
ATOM     32  N04 MOL d           4.603  31.271   1.159  0.00  0.00    -0.188 N 
ATOM     33  H2  MOL d           4.801  31.744   0.266  0.00  0.00     0.184 HD
BRANCH  32  34
ATOM     34  C16 MOL d           3.712  31.940   2.061  0.00  0.00     0.049 A 
ATOM     35  C17 MOL d           2.476  32.350   1.578  0.00  0.00    -0.056 A 
ATOM     36  C18 MOL d           1.573  32.987   2.414  0.00  0.00    -0.064 A 
ATOM     37  H9  MOL d           2.216  32.169   0.541  0.00  0.00     0.087 H 
ATOM     38  C19 MOL d           1.905  33.215   3.742  0.00  0.00     0.041 A 
ATOM     39  H10 MOL d           0.609  33.306   2.032  0.00  0.00     0.085 H 
ATOM     40  C20 MOL d           3.140  32.801   4.231  0.00  0.00    -0.064 A 
ATOM     41  C21 MOL d           4.042  32.159   3.392  0.00  0.00    -0.056 A 
ATOM     42  H11 MOL d           3.399  32.979   5.269  0.00  0.00     0.085 H 
ATOM     43  H12 MOL d           5.001  31.831   3.775  0.00  0.00     0.087 H 
BRANCH  38  44
ATOM     44  C22 MOL d           0.931  33.906   4.638  0.00  0.00     0.209 C 
ATOM     45  O28 MOL d           0.757  33.486   5.813  0.00  0.00    -0.644 OA
ATOM     46  O29 MOL d           0.283  34.905   4.219  0.00  0.00    -0.644 OA
ENDBRANCH  38  44
ENDBRANCH  32  34
ENDBRANCH   4  32
TORSDOF 6
ENDMDL
MODEL 2
REMARK VINA RESULT:      -8.7      3.194      6.792
REMARK  6 active torsions:
REMARK  status: ('A' for Active; 'I' for Inactive)
REMARK    1  A    between atoms: C07_7  and  N03_3 
REMARK    2  A    between atoms: N03_3  and  C09_9 
REMARK    3  A    between atoms: C06_6  and  N04_4 
REMARK    4  A    between atoms: N04_4  and  C16_16 
REMARK    5  A    between atoms: C14_14  and  C15_15 
REMARK    6  A    between atoms: C19_19  and  C22_22 
ROOT
ATOM      1  N01 MOL d           7.208  29.719   1.096  0.00  0.00    -0.075 NA
ATOM      2  N02 MOL d           5.989  29.684   3.096  0.00  0.00    -0.045 NA
ATOM      3  C05 MOL d           6.202  30.350   0.470  0.00  0.00     0.025 A 
ATOM      4  C06 MOL d           7.088  29.393   2.387  0.00  0.00     0.728 A 
ATOM      5  C07 MOL d           4.953  30.319   2.508  0.00  0.00     0.148 A 
ATOM      6  C08 MOL d           5.038  30.669   1.161  0.00  0.00    -0.021 A 
ATOM      7  H3  MOL d           6.297  30.612  -0.578  0.00  0.00     0.115 H 
ATOM      8  H4  MOL d           4.218  31.177   0.666  0.00  0.00     0.091 H 
ENDROOT
BRANCH   5   9
ATOM      9  N03 MOL d           3.754  30.642   3.239  0.00  0.00    -0.340 N 
ATOM     10  H1  MOL d           2.872  30.762   2.721  0.00  0.00     0.167 HD
BRANCH   9  11
ATOM     11  C09 MOL d           3.748  30.802   4.667  0.00  0.00     0.044 A 
ATOM     12  C10 MOL d           4.390  29.869   5.468  0.00  0.00    -0.056 A 
ATOM     13  C11 MOL d           4.382  30.016   6.848  0.00  0.00    -0.081 A 
ATOM     14  H5  MOL d           4.898  29.025   5.016  0.00  0.00     0.086 H 
ATOM     15  C12 MOL d           3.734  31.088   7.440  0.00  0.00    -0.082 A 
ATOM     16  H6  MOL d           4.888  29.285   7.468  0.00  0.00     0.083 H 
ATOM     17  C13 MOL d           3.089  32.018   6.640  0.00  0.00    -0.070 A 
ATOM     18  H7  MOL d           3.731  31.197   8.518  0.00  0.00     0.083 H 
ATOM     19  C14 MOL d           3.093  31.878   5.259  0.00  0.00     0.001 A 
ATOM     20  H8  MOL d           2.579  32.858   7.096  0.00  0.00     0.084 H 
BRANCH  19  21
ATOM     21  C15 MOL d           2.391  32.904   4.430  0.00  0.00    -0.024 A 
ATOM     22  C23 MOL d           2.757  33.115   3.108  0.00  0.00    -0.072 A 
ATOM     23  C24 MOL d           2.092  34.067   2.352  0.00  0.00    -0.082 A 
ATOM     24  H13 MOL d           3.561  32.537   2.668  0.00  0.00     0.084 H 
ATOM     25  C25 MOL d           1.062  34.805   2.916  0.00  0.00    -0.083 A 
ATOM     26  H14 MOL d           2.376  34.236   1.320  0.00  0.00     0.083 H 
ATOM     27  C26 MOL d           0.693  34.596   4.235  0.00  0.00    -0.082 A 
ATOM     28  H15 MOL d           0.542  35.549   2.322  0.00  0.00     0.083 H 
ATOM     29  C27 MOL d           1.358  33.642   4.990  0.00  0.00    -0.072 A 
ATOM     30  H16 MOL d          -0.111  35.175   4.674  0.00  0.00     0.083 H 
ATOM     31  H17 MOL d           1.070  33.473   6.021  0.00  0.00     0.084 H 
ENDBRANCH  19  21
ENDBRANCH   9  11
ENDBRANCH   5   9
BRANCH   4  32
ATOM     32  N04 MOL d           8.212  28.727   2.987  0.00  0.00    -0.188 N 
ATOM     33  H2  MOL d           9.006  28.509   2.369  0.00  0.00     0.184 HD
BRANCH  32  34
ATOM     34  C16 MOL d           8.336  28.337   4.360  0.00  0.00     0.049 A 
ATOM     35  C17 MOL d           9.020  29.184   5.223  0.00  0.00    -0.056 A 
ATOM     36  C18 MOL d           9.155  28.859   6.564  0.00  0.00    -0.064 A 
ATOM     37  H9  MOL d           9.449  30.105   4.846  0.00  0.00     0.087 H 
ATOM     38  C19 MOL d           8.602  27.681   7.047  0.00  0.00     0.041 A 
ATOM     39  H10 MOL d           9.690  29.523   7.234  0.00  0.00     0.085 H 
ATOM     40  C20 MOL d           7.911  26.833   6.187  0.00  0.00    -0.064 A 
ATOM     41  C21 MOL d           7.775  27.163   4.845  0.00  0.00    -0.056 A 
ATOM     42  H11 MOL d           7.479  25.913   6.565  0.00  0.00     0.085 H 
ATOM     43  H12 MOL d           7.232  26.505   4.176  0.00  0.00     0.087 H 
BRANCH  38  44
ATOM     44  C22 MOL d           8.753  27.333   8.491  0.00  0.00     0.209 C 
ATOM     45  O28 MOL d           9.674  26.553   8.852  0.00  0.00    -0.644 OA
ATOM     46  O29 MOL d           7.961  27.819   9.346  0.00  0.00    -0.644 OA
ENDBRANCH  38  44
ENDBRANCH  32  34
ENDBRANCH   4  32
TORSDOF 6
ENDMDL
MODEL 3
REMARK VINA RESULT:      -8.6      1.592      3.309
REMARK  6 active torsions:
REMARK  status: ('A' for Active; 'I' for Inactive)
REMARK    1  A    between atoms: C07_7  and  N03_3 
REMARK    2  A    between atoms: N03_3  and  C09_9 
REMARK    3  A    between atoms: C06_6  and  N04_4 
REMARK    4  A    between atoms: N04_4  and  C16_16 
REMARK    5  A    between atoms: C14_14  and  C15_15 
REMARK    6  A    between atoms: C19_19  and  C22_22 
ROOT
ATOM      1  N01 MOL d           6.925  30.231   0.276  0.00  0.00    -0.075 NA
ATOM      2  N02 MOL d           5.405  29.915   2.030  0.00  0.00    -0.045 NA
ATOM      3  C05 MOL d           7.828  29.450   0.890  0.00  0.00     0.025 A 
ATOM      4  C06 MOL d           5.739  30.456   0.849  0.00  0.00     0.728 A 
ATOM      5  C07 MOL d           6.281  29.123   2.683  0.00  0.00     0.148 A 
ATOM      6  C08 MOL d           7.531  28.871   2.120  0.00  0.00    -0.021 A 
ATOM      7  H3  MOL d           8.791  29.270   0.427  0.00  0.00     0.115 H 
ATOM      8  H4  MOL d           8.252  28.240   2.627  0.00  0.00     0.091 H 
ENDROOT
BRANCH   5   9
ATOM      9  N03 MOL d           5.956  28.531   3.956  0.00  0.00    -0.340 N 
ATOM     10  H1  MOL d           6.269  27.569   4.152  0.00  0.00     0.167 HD
BRANCH   9  11
ATOM     11  C09 MOL d           5.211  29.238   4.961  0.00  0.00     0.044 A 
ATOM     12  C10 MOL d           4.067  29.937   4.607  0.00  0.00    -0.056 A 
ATOM     13  C11 MOL d           3.347  30.625   5.574  0.00  0.00    -0.081 A 
ATOM     14  H5  MOL d           3.735  29.946   3.576  0.00  0.00     0.086 H 
ATOM     15  C12 MOL d           3.761  30.626   6.896  0.00  0.00    -0.082 A 
ATOM     16  H6  MOL d           2.452  31.167   5.291  0.00  0.00     0.083 H 
ATOM     17  C13 MOL d           4.907  29.931   7.249  0.00  0.00    -0.070 A 
ATOM     18  H7  MOL d           3.194  31.165   7.646  0.00  0.00     0.083 H 
ATOM     19  C14 MOL d           5.632  29.239   6.289  0.00  0.00     0.001 A 
ATOM     20  H8  MOL d           5.237  29.927   8.281  0.00  0.00     0.084 H 
BRANCH  19  21
ATOM     21  C15 MOL d           6.859  28.497   6.709  0.00  0.00    -0.024 A 
ATOM     22  C23 MOL d           6.759  27.249   7.307  0.00  0.00    -0.072 A 
ATOM     23  C24 MOL d           7.907  26.572   7.685  0.00  0.00    -0.082 A 
ATOM     24  H13 MOL d           5.785  26.803   7.477  0.00  0.00     0.084 H 
ATOM     25  C25 MOL d           9.152  27.141   7.465  0.00  0.00    -0.083 A 
ATOM     26  H14 MOL d           7.833  25.597   8.154  0.00  0.00     0.083 H 
ATOM     27  C26 MOL d           9.256  28.387   6.868  0.00  0.00    -0.082 A 
ATOM     28  H15 MOL d          10.050  26.609   7.762  0.00  0.00     0.083 H 
ATOM     29  C27 MOL d           8.107  29.063   6.488  0.00  0.00    -0.072 A 
ATOM     30  H16 MOL d          10.230  28.831   6.698  0.00  0.00     0.083 H 
ATOM     31  H17 MOL d           8.183  30.036   6.017  0.00  0.00     0.084 H 
ENDBRANCH  19  21
ENDBRANCH   9  11
ENDBRANCH   5   9
BRANCH   4  32
ATOM     32  N04 MOL d           4.826  31.295   0.125  0.00  0.00    -0.188 N 
ATOM     33  H2  MOL d           4.901  31.284  -0.902  0.00  0.00     0.184 HD
BRANCH  32  34
ATOM     34  C16 MOL d           3.819  32.145   0.689  0.00  0.00     0.049 A 
ATOM     35  C17 MOL d           2.487  31.805   0.493  0.00  0.00    -0.056 A 
ATOM     36  C18 MOL d           1.477  32.586   1.031  0.00  0.00    -0.064 A 
ATOM     37  H9  MOL d           2.236  30.923  -0.085  0.00  0.00     0.087 H 
ATOM     38  C19 MOL d           1.799  33.714   1.773  0.00  0.00     0.041 A 
ATOM     39  H10 MOL d           0.438  32.317   0.873  0.00  0.00     0.085 H 
ATOM     40  C20 MOL d           3.132  34.055   1.978  0.00  0.00    -0.064 A 
ATOM     41  C21 MOL d           4.142  33.268   1.440  0.00  0.00    -0.056 A 
ATOM     42  H11 MOL d           3.383  34.936   2.558  0.00  0.00     0.085 H 
ATOM     43  H12 MOL d           5.181  33.530   1.605  0.00  0.00     0.087 H 
BRANCH  38  44
ATOM     44  C22 MOL d           0.707  34.555   2.348  0.00  0.00     0.209 C 
ATOM     45  O28 MOL d          -0.138  35.091   1.582  0.00  0.00    -0.644 OA
ATOM     46  O29 MOL d           0.631  34.728   3.596  0.00  0.00    -0.644 OA
ENDBRANCH  38  44
ENDBRANCH  32  34
ENDBRANCH   4  32
TORSDOF 6
ENDMDL
MODEL 4
REMARK VINA RESULT:      -8.2      3.305      6.861
REMARK  6 active torsions:
REMARK  status: ('A' for Active; 'I' for Inactive)
REMARK    1  A    between atoms: C07_7  and  N03_3 
REMARK    2  A    between atoms: N03_3  and  C09_9 
REMARK    3  A    between atoms: C06_6  and  N04_4 
REMARK    4  A    between atoms: N04_4  and  C16_16 
REMARK    5  A    between atoms: C14_14  and  C15_15 
REMARK    6  A    between atoms: C19_19  and  C22_22 
ROOT
ATOM      1  N01 MOL d           7.641  29.949   0.987  0.00  0.00    -0.075 NA
ATOM      2  N02 MOL d           6.301  29.857   2.906  0.00  0.00    -0.045 NA
ATOM      3  C05 MOL d           6.603  30.388   0.258  0.00  0.00     0.025 A 
ATOM      4  C06 MOL d           7.478  29.686   2.287  0.00  0.00     0.728 A 
ATOM      5  C07 MOL d           5.230  30.297   2.214  0.00  0.00     0.148 A 
ATOM      6  C08 MOL d           5.359  30.575   0.854  0.00  0.00    -0.021 A 
ATOM      7  H3  MOL d           6.733  30.599  -0.797  0.00  0.00     0.115 H 
ATOM      8  H4  MOL d           4.513  30.929   0.275  0.00  0.00     0.091 H 
ENDROOT
BRANCH   5   9
ATOM      9  N03 MOL d           3.949  30.486   2.846  0.00  0.00    -0.340 N 
ATOM     10  H1  MOL d           3.543  29.710   3.390  0.00  0.00     0.167 HD
BRANCH   9  11
ATOM     11  C09 MOL d           3.219  31.719   2.745  0.00  0.00     0.044 A 
ATOM     12  C10 MOL d           2.936  32.253   1.496  0.00  0.00    -0.056 A 
ATOM     13  C11 MOL d           2.237  33.446   1.394  0.00  0.00    -0.081 A 
ATOM     14  H5  MOL d           3.262  31.737   0.600  0.00  0.00     0.086 H 
ATOM     15  C12 MOL d           1.817  34.119   2.530  0.00  0.00    -0.082 A 
ATOM     16  H6  MOL d           2.016  33.856   0.415  0.00  0.00     0.083 H 
ATOM     17  C13 MOL d           2.103  33.589   3.778  0.00  0.00    -0.070 A 
ATOM     18  H7  MOL d           1.271  35.051   2.443  0.00  0.00     0.083 H 
ATOM     19  C14 MOL d           2.803  32.394   3.889  0.00  0.00     0.001 A 
ATOM     20  H8  MOL d           1.779  34.109   4.672  0.00  0.00     0.084 H 
BRANCH  19  21
ATOM     21  C15 MOL d           3.087  31.851   5.252  0.00  0.00    -0.024 A 
ATOM     22  C23 MOL d           3.835  30.693   5.408  0.00  0.00    -0.072 A 
ATOM     23  C24 MOL d           4.094  30.206   6.680  0.00  0.00    -0.082 A 
ATOM     24  H13 MOL d           4.215  30.169   4.539  0.00  0.00     0.084 H 
ATOM     25  C25 MOL d           3.609  30.879   7.792  0.00  0.00    -0.083 A 
ATOM     26  H14 MOL d           4.676  29.300   6.806  0.00  0.00     0.083 H 
ATOM     27  C26 MOL d           2.864  32.036   7.639  0.00  0.00    -0.082 A 
ATOM     28  H15 MOL d           3.814  30.496   8.786  0.00  0.00     0.083 H 
ATOM     29  C27 MOL d           2.606  32.523   6.367  0.00  0.00    -0.072 A 
ATOM     30  H16 MOL d           2.484  32.559   8.509  0.00  0.00     0.083 H 
ATOM     31  H17 MOL d           2.026  33.430   6.243  0.00  0.00     0.084 H 
ENDBRANCH  19  21
ENDBRANCH   9  11
ENDBRANCH   5   9
BRANCH   4  32
ATOM     32  N04 MOL d           8.639  29.228   2.999  0.00  0.00    -0.188 N 
ATOM     33  H2  MOL d           9.551  29.378   2.545  0.00  0.00     0.184 HD
BRANCH  32  34
ATOM     34  C16 MOL d           8.654  28.582   4.279  0.00  0.00     0.049 A 
ATOM     35  C17 MOL d           8.849  29.368   5.408  0.00  0.00    -0.056 A 
ATOM     36  C18 MOL d           8.856  28.794   6.669  0.00  0.00    -0.064 A 
ATOM     37  H9  MOL d           8.996  30.437   5.301  0.00  0.00     0.087 H 
ATOM     38  C19 MOL d           8.666  27.426   6.805  0.00  0.00     0.041 A 
ATOM     39  H10 MOL d           9.010  29.411   7.547  0.00  0.00     0.085 H 
ATOM     40  C20 MOL d           8.464  26.636   5.678  0.00  0.00    -0.064 A 
ATOM     41  C21 MOL d           8.453  27.215   4.415  0.00  0.00    -0.056 A 
ATOM     42  H11 MOL d           8.314  25.568   5.784  0.00  0.00     0.085 H 
ATOM     43  H12 MOL d           8.290  26.601   3.537  0.00  0.00     0.087 H 
BRANCH  38  44
ATOM     44  C22 MOL d           8.678  26.811   8.165  0.00  0.00     0.209 C 
ATOM     45  O28 MOL d           9.778  26.552   8.724  0.00  0.00    -0.644 OA
ATOM     46  O29 MOL d           7.592  26.552   8.754  0.00  0.00    -0.644 OA
ENDBRANCH  38  44
ENDBRANCH  32  34
ENDBRANCH   4  32
TORSDOF 6
ENDMDL
MODEL 5
REMARK VINA RESULT:      -8.1      3.712      6.377
REMARK  6 active torsions:
REMARK  status: ('A' for Active; 'I' for Inactive)
REMARK    1  A    between atoms: C07_7  and  N03_3 
REMARK    2  A    between atoms: N03_3  and  C09_9 
REMARK    3  A    between atoms: C06_6  and  N04_4 
REMARK    4  A    between atoms: N04_4  and  C16_16 
REMARK    5  A    between atoms: C14_14  and  C15_15 
REMARK    6  A    between atoms: C19_19  and  C22_22 
ROOT
ATOM      1  N01 MOL d           2.215  32.444   1.060  0.00  0.00    -0.075 NA
ATOM      2  N02 MOL d           4.072  32.113   2.449  0.00  0.00    -0.045 NA
ATOM      3  C05 MOL d           1.543  33.031   2.064  0.00  0.00     0.025 A 
ATOM      4  C06 MOL d           3.456  31.992   1.265  0.00  0.00     0.728 A 
ATOM      5  C07 MOL d           3.436  32.697   3.486  0.00  0.00     0.148 A 
ATOM      6  C08 MOL d           2.138  33.174   3.314  0.00  0.00    -0.021 A 
ATOM      7  H3  MOL d           0.536  33.394   1.900  0.00  0.00     0.115 H 
ATOM      8  H4  MOL d           1.605  33.645   4.132  0.00  0.00     0.091 H 
ENDROOT
BRANCH   5   9
ATOM      9  N03 MOL d           4.067  32.838   4.774  0.00  0.00    -0.340 N 
ATOM     10  H1  MOL d           4.900  33.438   4.858  0.00  0.00     0.167 HD
BRANCH   9  11
ATOM     11  C09 MOL d           3.572  32.169   5.946  0.00  0.00     0.044 A 
ATOM     12  C10 MOL d           2.710  32.832   6.806  0.00  0.00    -0.056 A 
ATOM     13  C11 MOL d           2.235  32.192   7.942  0.00  0.00    -0.081 A 
ATOM     14  H5  MOL d           2.408  33.851   6.592  0.00  0.00     0.086 H 
ATOM     15  C12 MOL d           2.615  30.892   8.232  0.00  0.00    -0.082 A 
ATOM     16  H6  MOL d           1.559  32.715   8.609  0.00  0.00     0.083 H 
ATOM     17  C13 MOL d           3.480  30.230   7.375  0.00  0.00    -0.070 A 
ATOM     18  H7  MOL d           2.240  30.398   9.120  0.00  0.00     0.083 H 
ATOM     19  C14 MOL d           3.960  30.863   6.236  0.00  0.00     0.001 A 
ATOM     20  H8  MOL d           3.783  29.213   7.595  0.00  0.00     0.084 H 
BRANCH  19  21
ATOM     21  C15 MOL d           4.886  30.115   5.333  0.00  0.00    -0.024 A 
ATOM     22  C23 MOL d           4.387  29.267   4.355  0.00  0.00    -0.072 A 
ATOM     23  C24 MOL d           5.260  28.586   3.522  0.00  0.00    -0.082 A 
ATOM     24  H13 MOL d           3.316  29.138   4.241  0.00  0.00     0.084 H 
ATOM     25  C25 MOL d           6.629  28.754   3.666  0.00  0.00    -0.083 A 
ATOM     26  H14 MOL d           4.874  27.921   2.758  0.00  0.00     0.083 H 
ATOM     27  C26 MOL d           7.131  29.601   4.641  0.00  0.00    -0.082 A 
ATOM     28  H15 MOL d           7.310  28.219   3.013  0.00  0.00     0.083 H 
ATOM     29  C27 MOL d           6.257  30.283   5.472  0.00  0.00    -0.072 A 
ATOM     30  H16 MOL d           8.201  29.729   4.753  0.00  0.00     0.083 H 
ATOM     31  H17 MOL d           6.645  30.950   6.234  0.00  0.00     0.084 H 
ENDBRANCH  19  21
ENDBRANCH   9  11
ENDBRANCH   5   9
BRANCH   4  32
ATOM     32  N04 MOL d           4.110  31.385   0.139  0.00  0.00    -0.188 N 
ATOM     33  H2  MOL d           3.708  31.574  -0.789  0.00  0.00     0.184 HD
BRANCH  32  34
ATOM     34  C16 MOL d           5.269  30.541   0.180  0.00  0.00     0.049 A 
ATOM     35  C17 MOL d           5.081  29.166   0.125  0.00  0.00    -0.056 A 
ATOM     36  C18 MOL d           6.169  28.308   0.146  0.00  0.00    -0.064 A 
ATOM     37  H9  MOL d           4.077  28.762   0.064  0.00  0.00     0.087 H 
ATOM     38  C19 MOL d           7.454  28.827   0.221  0.00  0.00     0.041 A 
ATOM     39  H10 MOL d           6.017  27.235   0.104  0.00  0.00     0.085 H 
ATOM     40  C20 MOL d           7.647  30.203   0.270  0.00  0.00    -0.064 A 
ATOM     41  C21 MOL d           6.554  31.061   0.245  0.00  0.00    -0.056 A 
ATOM     42  H11 MOL d           8.651  30.608   0.327  0.00  0.00     0.085 H 
ATOM     43  H12 MOL d           6.705  32.134   0.277  0.00  0.00     0.087 H 
BRANCH  38  44
ATOM     44  C22 MOL d           8.623  27.898   0.247  0.00  0.00     0.209 C 
ATOM     45  O28 MOL d           8.435  26.661   0.392  0.00  0.00    -0.644 OA
ATOM     46  O29 MOL d           9.796  28.351   0.125  0.00  0.00    -0.644 OA
ENDBRANCH  38  44
ENDBRANCH  32  34
ENDBRANCH   4  32
TORSDOF 6
ENDMDL
MODEL 6
REMARK VINA RESULT:      -8.1      2.001      4.687
REMARK  6 active torsions:
REMARK  status: ('A' for Active; 'I' for Inactive)
REMARK    1  A    between atoms: C07_7  and  N03_3 
REMARK    2  A    between atoms: N03_3  and  C09_9 
REMARK    3  A    between atoms: C06_6  and  N04_4 
REMARK    4  A    between atoms: N04_4  and  C16_16 
REMARK    5  A    between atoms: C14_14  and  C15_15 
REMARK    6  A    between atoms: C19_19  and  C22_22 
ROOT
ATOM      1  N01 MOL d           6.746  29.153   7.314  0.00  0.00    -0.075 NA
ATOM      2  N02 MOL d           6.718  29.632   5.021  0.00  0.00    -0.045 NA
ATOM      3  C05 MOL d           8.085  29.053   7.297  0.00  0.00     0.025 A 
ATOM      4  C06 MOL d           6.086  29.434   6.186  0.00  0.00     0.728 A 
ATOM      5  C07 MOL d           8.063  29.542   4.957  0.00  0.00     0.148 A 
ATOM      6  C08 MOL d           8.787  29.245   6.111  0.00  0.00    -0.021 A 
ATOM      7  H3  MOL d           8.621  28.823   8.211  0.00  0.00     0.115 H 
ATOM      8  H4  MOL d           9.867  29.165   6.085  0.00  0.00     0.091 H 
ENDROOT
BRANCH   5   9
ATOM      9  N03 MOL d           8.774  29.744   3.720  0.00  0.00    -0.340 N 
ATOM     10  H1  MOL d           9.053  30.700   3.457  0.00  0.00     0.167 HD
BRANCH   9  11
ATOM     11  C09 MOL d           9.105  28.657   2.841  0.00  0.00     0.044 A 
ATOM     12  C10 MOL d          10.154  27.807   3.161  0.00  0.00    -0.056 A 
ATOM     13  C11 MOL d          10.480  26.759   2.312  0.00  0.00    -0.081 A 
ATOM     14  H5  MOL d          10.718  27.962   4.073  0.00  0.00     0.086 H 
ATOM     15  C12 MOL d           9.771  26.551   1.141  0.00  0.00    -0.082 A 
ATOM     16  H6  MOL d          11.299  26.097   2.569  0.00  0.00     0.083 H 
ATOM     17  C13 MOL d           8.726  27.402   0.819  0.00  0.00    -0.070 A 
ATOM     18  H7  MOL d          10.032  25.731   0.482  0.00  0.00     0.083 H 
ATOM     19  C14 MOL d           8.392  28.453   1.663  0.00  0.00     0.001 A 
ATOM     20  H8  MOL d           8.167  27.247  -0.096  0.00  0.00     0.084 H 
BRANCH  19  21
ATOM     21  C15 MOL d           7.256  29.346   1.285  0.00  0.00    -0.024 A 
ATOM     22  C23 MOL d           7.465  30.450   0.470  0.00  0.00    -0.072 A 
ATOM     23  C24 MOL d           6.398  31.264   0.125  0.00  0.00    -0.082 A 
ATOM     24  H13 MOL d           8.461  30.675   0.104  0.00  0.00     0.084 H 
ATOM     25  C25 MOL d           5.125  30.974   0.591  0.00  0.00    -0.083 A 
ATOM     26  H14 MOL d           6.559  32.128  -0.510  0.00  0.00     0.083 H 
ATOM     27  C26 MOL d           4.912  29.872   1.404  0.00  0.00    -0.082 A 
ATOM     28  H15 MOL d           4.292  31.613   0.319  0.00  0.00     0.083 H 
ATOM     29  C27 MOL d           5.979  29.058   1.748  0.00  0.00    -0.072 A 
ATOM     30  H16 MOL d           3.916  29.649   1.769  0.00  0.00     0.083 H 
ATOM     31  H17 MOL d           5.817  28.192   2.380  0.00  0.00     0.084 H 
ENDBRANCH  19  21
ENDBRANCH   9  11
ENDBRANCH   5   9
BRANCH   4  32
ATOM     32  N04 MOL d           4.656  29.532   6.289  0.00  0.00    -0.188 N 
ATOM     33  H2  MOL d           4.165  28.729   6.707  0.00  0.00     0.184 HD
BRANCH  32  34
ATOM     34  C16 MOL d           3.846  30.637   5.867  0.00  0.00     0.049 A 
ATOM     35  C17 MOL d           3.689  30.853   4.504  0.00  0.00    -0.056 A 
ATOM     36  C18 MOL d           2.903  31.898   4.046  0.00  0.00    -0.064 A 
ATOM     37  H9  MOL d           4.184  30.199   3.795  0.00  0.00     0.087 H 
ATOM     38  C19 MOL d           2.268  32.733   4.954  0.00  0.00     0.041 A 
ATOM     39  H10 MOL d           2.785  32.063   2.980  0.00  0.00     0.085 H 
ATOM     40  C20 MOL d           2.417  32.516   6.320  0.00  0.00    -0.064 A 
ATOM     41  C21 MOL d           3.203  31.466   6.777  0.00  0.00    -0.056 A 
ATOM     42  H11 MOL d           1.920  33.168   7.030  0.00  0.00     0.085 H 
ATOM     43  H12 MOL d           3.314  31.293   7.841  0.00  0.00     0.087 H 
BRANCH  38  44
ATOM     44  C22 MOL d           1.425  33.860   4.456  0.00  0.00     0.209 C 
ATOM     45  O28 MOL d           0.951  33.817   3.289  0.00  0.00    -0.644 OA
ATOM     46  O29 MOL d           1.189  34.852   5.200  0.00  0.00    -0.644 OA
ENDBRANCH  38  44
ENDBRANCH  32  34
ENDBRANCH   4  32
TORSDOF 6
ENDMDL
MODEL 7
REMARK VINA RESULT:      -8.0      1.531      2.312
REMARK  6 active torsions:
REMARK  status: ('A' for Active; 'I' for Inactive)
REMARK    1  A    between atoms: C07_7  and  N03_3 
REMARK    2  A    between atoms: N03_3  and  C09_9 
REMARK    3  A    between atoms: C06_6  and  N04_4 
REMARK    4  A    between atoms: N04_4  and  C16_16 
REMARK    5  A    between atoms: C14_14  and  C15_15 
REMARK    6  A    between atoms: C19_19  and  C22_22 
ROOT
ATOM      1  N01 MOL d           6.729  29.295   0.970  0.00  0.00    -0.075 NA
ATOM      2  N02 MOL d           6.027  30.373   2.927  0.00  0.00    -0.045 NA
ATOM      3  C05 MOL d           7.603  28.552   1.668  0.00  0.00     0.025 A 
ATOM      4  C06 MOL d           5.964  30.191   1.601  0.00  0.00     0.728 A 
ATOM      5  C07 MOL d           6.890  29.648   3.670  0.00  0.00     0.148 A 
ATOM      6  C08 MOL d           7.710  28.708   3.046  0.00  0.00    -0.021 A 
ATOM      7  H3  MOL d           8.225  27.827   1.156  0.00  0.00     0.115 H 
ATOM      8  H4  MOL d           8.413  28.115   3.620  0.00  0.00     0.091 H 
ENDROOT
BRANCH   5   9
ATOM      9  N03 MOL d           6.989  29.823   5.096  0.00  0.00    -0.340 N 
ATOM     10  H1  MOL d           7.107  30.774   5.474  0.00  0.00     0.167 HD
BRANCH   9  11
ATOM     11  C09 MOL d           6.927  28.716   6.010  0.00  0.00     0.044 A 
ATOM     12  C10 MOL d           7.884  27.714   5.946  0.00  0.00    -0.056 A 
ATOM     13  C11 MOL d           7.825  26.641   6.822  0.00  0.00    -0.081 A 
ATOM     14  H5  MOL d           8.679  27.771   5.211  0.00  0.00     0.086 H 
ATOM     15  C12 MOL d           6.813  26.552   7.764  0.00  0.00    -0.082 A 
ATOM     16  H6  MOL d           8.579  25.863   6.769  0.00  0.00     0.083 H 
ATOM     17  C13 MOL d           5.854  27.550   7.826  0.00  0.00    -0.070 A 
ATOM     18  H7  MOL d           6.773  25.711   8.446  0.00  0.00     0.083 H 
ATOM     19  C14 MOL d           5.906  28.628   6.953  0.00  0.00     0.001 A 
ATOM     20  H8  MOL d           5.059  27.488   8.559  0.00  0.00     0.084 H 
BRANCH  19  21
ATOM     21  C15 MOL d           4.857  29.687   7.054  0.00  0.00    -0.024 A 
ATOM     22  C23 MOL d           4.364  30.078   8.291  0.00  0.00    -0.072 A 
ATOM     23  C24 MOL d           3.395  31.066   8.366  0.00  0.00    -0.082 A 
ATOM     24  H13 MOL d           4.736  29.611   9.196  0.00  0.00     0.084 H 
ATOM     25  C25 MOL d           2.922  31.663   7.207  0.00  0.00    -0.083 A 
ATOM     26  H14 MOL d           3.006  31.372   9.331  0.00  0.00     0.083 H 
ATOM     27  C26 MOL d           3.413  31.276   5.971  0.00  0.00    -0.082 A 
ATOM     28  H15 MOL d           2.164  32.436   7.269  0.00  0.00     0.083 H 
ATOM     29  C27 MOL d           4.383  30.289   5.896  0.00  0.00    -0.072 A 
ATOM     30  H16 MOL d           3.040  31.743   5.067  0.00  0.00     0.083 H 
ATOM     31  H17 MOL d           4.773  29.987   4.931  0.00  0.00     0.084 H 
ENDBRANCH  19  21
ENDBRANCH   9  11
ENDBRANCH   5   9
BRANCH   4  32
ATOM     32  N04 MOL d           5.049  30.940   0.785  0.00  0.00    -0.188 N 
ATOM     33  H2  MOL d           5.072  30.755  -0.227  0.00  0.00     0.184 HD
BRANCH  32  34
ATOM     34  C16 MOL d           4.107  31.920   1.241  0.00  0.00     0.049 A 
ATOM     35  C17 MOL d           3.090  31.507   2.091  0.00  0.00    -0.056 A 
ATOM     36  C18 MOL d           2.163  32.418   2.572  0.00  0.00    -0.064 A 
ATOM     37  H9  MOL d           3.020  30.464   2.380  0.00  0.00     0.087 H 
ATOM     38  C19 MOL d           2.254  33.753   2.203  0.00  0.00     0.041 A 
ATOM     39  H10 MOL d           1.369  32.090   3.234  0.00  0.00     0.085 H 
ATOM     40  C20 MOL d           3.276  34.173   1.357  0.00  0.00    -0.064 A 
ATOM     41  C21 MOL d           4.205  33.257   0.880  0.00  0.00    -0.056 A 
ATOM     42  H11 MOL d           3.347  35.216   1.070  0.00  0.00     0.085 H 
ATOM     43  H12 MOL d           5.005  33.586   0.225  0.00  0.00     0.087 H 
BRANCH  38  44
ATOM     44  C22 MOL d           1.252  34.731   2.720  0.00  0.00     0.209 C 
ATOM     45  O28 MOL d           1.343  35.151   3.905  0.00  0.00    -0.644 OA
ATOM     46  O29 MOL d           0.317  35.135   1.974  0.00  0.00    -0.644 OA
ENDBRANCH  38  44
ENDBRANCH  32  34
ENDBRANCH   4  32
TORSDOF 6
ENDMDL
MODEL 8
REMARK VINA RESULT:      -7.6      3.612      7.636
REMARK  6 active torsions:
REMARK  status: ('A' for Active; 'I' for Inactive)
REMARK    1  A    between atoms: C07_7  and  N03_3 
REMARK    2  A    between atoms: N03_3  and  C09_9 
REMARK    3  A    between atoms: C06_6  and  N04_4 
REMARK    4  A    between atoms: N04_4  and  C16_16 
REMARK    5  A    between atoms: C14_14  and  C15_15 
REMARK    6  A    between atoms: C19_19  and  C22_22 
ROOT
ATOM      1  N01 MOL d           3.347  31.974   7.096  0.00  0.00    -0.075 NA
ATOM      2  N02 MOL d           3.703  30.490   5.319  0.00  0.00    -0.045 NA
ATOM      3  C05 MOL d           2.905  32.916   6.247  0.00  0.00     0.025 A 
ATOM      4  C06 MOL d           3.741  30.787   6.625  0.00  0.00     0.728 A 
ATOM      5  C07 MOL d           3.266  31.407   4.429  0.00  0.00     0.148 A 
ATOM      6  C08 MOL d           2.853  32.659   4.881  0.00  0.00    -0.021 A 
ATOM      7  H3  MOL d           2.588  33.880   6.628  0.00  0.00     0.115 H 
ATOM      8  H4  MOL d           2.499  33.412   4.186  0.00  0.00     0.091 H 
ENDROOT
BRANCH   5   9
ATOM      9  N03 MOL d           3.218  31.123   3.017  0.00  0.00    -0.340 N 
ATOM     10  H1  MOL d           2.797  30.237   2.702  0.00  0.00     0.167 HD
BRANCH   9  11
ATOM     11  C09 MOL d           3.737  32.034   2.035  0.00  0.00     0.044 A 
ATOM     12  C10 MOL d           3.202  33.309   1.927  0.00  0.00    -0.056 A 
ATOM     13  C11 MOL d           3.697  34.190   0.976  0.00  0.00    -0.081 A 
ATOM     14  H5  MOL d           2.398  33.617   2.584  0.00  0.00     0.086 H 
ATOM     15  C12 MOL d           4.722  33.810   0.126  0.00  0.00    -0.082 A 
ATOM     16  H6  MOL d           3.277  35.187   0.898  0.00  0.00     0.083 H 
ATOM     17  C13 MOL d           5.254  32.535   0.231  0.00  0.00    -0.070 A 
ATOM     18  H7  MOL d           5.104  34.503  -0.615  0.00  0.00     0.083 H 
ATOM     19  C14 MOL d           4.766  31.647   1.180  0.00  0.00     0.001 A 
ATOM     20  H8  MOL d           6.056  32.230  -0.431  0.00  0.00     0.084 H 
BRANCH  19  21
ATOM     21  C15 MOL d           5.369  30.283   1.267  0.00  0.00    -0.024 A 
ATOM     22  C23 MOL d           5.397  29.451   0.156  0.00  0.00    -0.072 A 
ATOM     23  C24 MOL d           5.966  28.191   0.254  0.00  0.00    -0.082 A 
ATOM     24  H13 MOL d           4.977  29.786  -0.785  0.00  0.00     0.084 H 
ATOM     25  C25 MOL d           6.506  27.765   1.458  0.00  0.00    -0.083 A 
ATOM     26  H14 MOL d           5.989  27.538  -0.612  0.00  0.00     0.083 H 
ATOM     27  C26 MOL d           6.480  28.593   2.568  0.00  0.00    -0.082 A 
ATOM     28  H15 MOL d           6.950  26.778   1.531  0.00  0.00     0.083 H 
ATOM     29  C27 MOL d           5.912  29.854   2.470  0.00  0.00    -0.072 A 
ATOM     30  H16 MOL d           6.901  28.257   3.509  0.00  0.00     0.083 H 
ATOM     31  H17 MOL d           5.893  30.507   3.335  0.00  0.00     0.084 H 
ENDBRANCH  19  21
ENDBRANCH   9  11
ENDBRANCH   5   9
BRANCH   4  32
ATOM     32  N04 MOL d           4.192  29.830   7.598  0.00  0.00    -0.188 N 
ATOM     33  H2  MOL d           3.558  29.636   8.386  0.00  0.00     0.184 HD
BRANCH  32  34
ATOM     34  C16 MOL d           5.436  29.118   7.579  0.00  0.00     0.049 A 
ATOM     35  C17 MOL d           5.980  28.779   6.346  0.00  0.00    -0.056 A 
ATOM     36  C18 MOL d           7.188  28.105   6.274  0.00  0.00    -0.064 A 
ATOM     37  H9  MOL d           5.455  29.045   5.435  0.00  0.00     0.087 H 
ATOM     38  C19 MOL d           7.860  27.767   7.441  0.00  0.00     0.041 A 
ATOM     39  H10 MOL d           7.607  27.841   5.309  0.00  0.00     0.085 H 
ATOM     40  C20 MOL d           7.322  28.110   8.677  0.00  0.00    -0.064 A 
ATOM     41  C21 MOL d           6.112  28.790   8.746  0.00  0.00    -0.056 A 
ATOM     42  H11 MOL d           7.848  27.848   9.588  0.00  0.00     0.085 H 
ATOM     43  H12 MOL d           5.697  29.062   9.709  0.00  0.00     0.087 H 
BRANCH  38  44
ATOM     44  C22 MOL d           9.159  27.037   7.358  0.00  0.00     0.209 C 
ATOM     45  O28 MOL d           9.727  26.652   8.414  0.00  0.00    -0.644 OA
ATOM     46  O29 MOL d           9.687  26.808   6.234  0.00  0.00    -0.644 OA
ENDBRANCH  38  44
ENDBRANCH  32  34
ENDBRANCH   4  32
TORSDOF 6
ENDMDL
MODEL 9
REMARK VINA RESULT:      -6.9      3.664      8.043
REMARK  6 active torsions:
REMARK  status: ('A' for Active; 'I' for Inactive)
REMARK    1  A    between atoms: C07_7  and  N03_3 
REMARK    2  A    between atoms: N03_3  and  C09_9 
REMARK    3  A    between atoms: C06_6  and  N04_4 
REMARK    4  A    between atoms: N04_4  and  C16_16 
REMARK    5  A    between atoms: C14_14  and  C15_15 
REMARK    6  A    between atoms: C19_19  and  C22_22 
ROOT
ATOM      1  N01 MOL d           3.081  30.748   8.407  0.00  0.00    -0.075 NA
ATOM      2  N02 MOL d           4.281  30.979   6.408  0.00  0.00    -0.045 NA
ATOM      3  C05 MOL d           2.352  31.838   8.119  0.00  0.00     0.025 A 
ATOM      4  C06 MOL d           4.030  30.339   7.559  0.00  0.00     0.728 A 
ATOM      5  C07 MOL d           3.572  32.079   6.078  0.00  0.00     0.148 A 
ATOM      6  C08 MOL d           2.579  32.540   6.940  0.00  0.00    -0.021 A 
ATOM      7  H3  MOL d           1.584  32.172   8.807  0.00  0.00     0.115 H 
ATOM      8  H4  MOL d           1.998  33.423   6.697  0.00  0.00     0.091 H 
ENDROOT
BRANCH   5   9
ATOM      9  N03 MOL d           3.820  32.794   4.852  0.00  0.00    -0.340 N 
ATOM     10  H1  MOL d           4.779  33.108   4.643  0.00  0.00     0.167 HD
BRANCH   9  11
ATOM     11  C09 MOL d           2.775  33.085   3.910  0.00  0.00     0.044 A 
ATOM     12  C10 MOL d           1.766  33.974   4.251  0.00  0.00    -0.056 A 
ATOM     13  C11 MOL d           0.752  34.253   3.347  0.00  0.00    -0.081 A 
ATOM     14  H5  MOL d           1.771  34.450   5.225  0.00  0.00     0.086 H 
ATOM     15  C12 MOL d           0.730  33.649   2.101  0.00  0.00    -0.082 A 
ATOM     16  H6  MOL d          -0.032  34.951   3.619  0.00  0.00     0.083 H 
ATOM     17  C13 MOL d           1.735  32.757   1.760  0.00  0.00    -0.070 A 
ATOM     18  H7  MOL d          -0.065  33.871   1.399  0.00  0.00     0.083 H 
ATOM     19  C14 MOL d           2.755  32.473   2.659  0.00  0.00     0.001 A 
ATOM     20  H8  MOL d           1.725  32.280   0.787  0.00  0.00     0.084 H 
BRANCH  19  21
ATOM     21  C15 MOL d           3.824  31.511   2.254  0.00  0.00    -0.024 A 
ATOM     22  C23 MOL d           4.135  30.422   3.056  0.00  0.00    -0.072 A 
ATOM     23  C24 MOL d           5.126  29.536   2.662  0.00  0.00    -0.082 A 
ATOM     24  H13 MOL d           3.605  30.264   3.989  0.00  0.00     0.084 H 
ATOM     25  C25 MOL d           5.801  29.739   1.468  0.00  0.00    -0.083 A 
ATOM     26  H14 MOL d           5.373  28.686   3.287  0.00  0.00     0.083 H 
ATOM     27  C26 MOL d           5.492  30.824   0.664  0.00  0.00    -0.082 A 
ATOM     28  H15 MOL d           6.576  29.044   1.162  0.00  0.00     0.083 H 
ATOM     29  C27 MOL d           4.500  31.708   1.058  0.00  0.00    -0.072 A 
ATOM     30  H16 MOL d           6.023  30.980  -0.268  0.00  0.00     0.083 H 
ATOM     31  H17 MOL d           4.252  32.556   0.431  0.00  0.00     0.084 H 
ENDBRANCH  19  21
ENDBRANCH   9  11
ENDBRANCH   5   9
BRANCH   4  32
ATOM     32  N04 MOL d           4.760  29.160   7.935  0.00  0.00    -0.188 N 
ATOM     33  H2  MOL d           4.502  28.721   8.830  0.00  0.00     0.184 HD
BRANCH  32  34
ATOM     34  C16 MOL d           5.810  28.534   7.186  0.00  0.00     0.049 A 
ATOM     35  C17 MOL d           6.143  29.069   5.949  0.00  0.00    -0.056 A 
ATOM     36  C18 MOL d           7.162  28.510   5.194  0.00  0.00    -0.064 A 
ATOM     37  H9  MOL d           5.603  29.930   5.572  0.00  0.00     0.087 H 
ATOM     38  C19 MOL d           7.854  27.409   5.678  0.00  0.00     0.041 A 
ATOM     39  H10 MOL d           7.417  28.931   4.227  0.00  0.00     0.085 H 
ATOM     40  C20 MOL d           7.528  26.873   6.920  0.00  0.00    -0.064 A 
ATOM     41  C21 MOL d           6.509  27.438   7.676  0.00  0.00    -0.056 A 
ATOM     42  H11 MOL d           8.070  26.014   7.298  0.00  0.00     0.085 H 
ATOM     43  H12 MOL d           6.259  27.025   8.646  0.00  0.00     0.087 H 
BRANCH  38  44
ATOM     44  C22 MOL d           8.948  26.807   4.859  0.00  0.00     0.209 C 
ATOM     45  O28 MOL d          10.062  26.557   5.392  0.00  0.00    -0.644 OA
ATOM     46  O29 MOL d           8.758  26.551   3.638  0.00  0.00    -0.644 OA
ENDBRANCH  38  44
ENDBRANCH  32  34
ENDBRANCH   4  32
TORSDOF 6
ENDMDL
