MODEL 1
REMARK VINA RESULT:      -8.2      0.000      0.000
REMARK  10 active torsions:
REMARK  status: ('A' for Active; 'I' for Inactive)
REMARK    1  A    between atoms: C3_3  and  O3_4 
REMARK    2  A    between atoms: O3_4  and  C1X_29 
REMARK    3  A    between atoms: C10_11  and  C19_22 
REMARK    4  A    between atoms: C12_13  and  O12_14 
REMARK    5  A    between atoms: C13_15  and  C18_21 
REMARK    6  A    between atoms: C14_16  and  O14_17 
REMARK    7  A    between atoms: C17_20  and  C20_23 
REMARK    8  A    between atoms: C3X_31  and  O3X_32 
REMARK    9  A    between atoms: C4X_33  and  O4X_34 
REMARK   10  A    between atoms: C5X_35  and  C6X_37 
ROOT
ATOM      1  C1  DGX d         -12.297  30.945  29.412  0.00  0.00    -0.055 C 
ATOM      2  C2  DGX d         -13.646  31.317  28.801  0.00  0.00    -0.040 C 
ATOM      3  C3  DGX d         -14.771  31.176  29.818  0.00  0.00     0.042 C 
ATOM      4  C4  DGX d         -14.862  29.727  30.268  0.00  0.00    -0.037 C 
ATOM      5  C5  DGX d         -13.557  29.314  30.941  0.00  0.00    -0.044 C 
ATOM      6  C6  DGX d         -13.645  27.924  31.557  0.00  0.00    -0.060 C 
ATOM      7  C7  DGX d         -13.659  26.842  30.489  0.00  0.00    -0.058 C 
ATOM      8  C8  DGX d         -12.441  26.985  29.576  0.00  0.00    -0.019 C 
ATOM      9  C9  DGX d         -12.299  28.390  28.980  0.00  0.00    -0.038 C 
ATOM     10  C10 DGX d         -12.304  29.538  30.033  0.00  0.00    -0.036 C 
ATOM     11  C11 DGX d         -11.055  28.448  28.110  0.00  0.00    -0.036 C 
ATOM     12  C12 DGX d         -11.168  27.421  27.002  0.00  0.00     0.046 C 
ATOM     13  C13 DGX d         -11.188  25.966  27.551  0.00  0.00     0.021 C 
ATOM     14  C14 DGX d         -12.398  25.827  28.540  0.00  0.00     0.072 C 
ATOM     15  C15 DGX d         -13.614  25.680  27.606  0.00  0.00    -0.035 C 
ATOM     16  C16 DGX d         -13.115  25.072  26.295  0.00  0.00    -0.054 C 
ATOM     17  C17 DGX d         -11.582  25.102  26.312  0.00  0.00    -0.018 C 
ATOM     18  H1  DGX d         -11.530  30.981  28.623  0.00  0.00     0.034 H 
ATOM     19  H2  DGX d         -12.051  31.677  30.195  0.00  0.00     0.034 H 
ATOM     20  H3  DGX d         -13.848  30.653  27.948  0.00  0.00     0.036 H 
ATOM     21  H4  DGX d         -13.606  32.359  28.453  0.00  0.00     0.036 H 
ATOM     22  H5  DGX d         -15.720  31.485  29.357  0.00  0.00     0.083 H 
ATOM     23  H6  DGX d         -15.043  29.084  29.395  0.00  0.00     0.037 H 
ATOM     24  H7  DGX d         -15.692  29.618  30.982  0.00  0.00     0.037 H 
ATOM     25  H8  DGX d         -13.428  30.003  31.789  0.00  0.00     0.041 H 
ATOM     26  H9  DGX d         -14.570  27.854  32.149  0.00  0.00     0.033 H 
ATOM     27  H10 DGX d         -12.776  27.768  32.212  0.00  0.00     0.033 H 
ATOM     28  H11 DGX d         -14.576  26.937  29.888  0.00  0.00     0.033 H 
ATOM     29  H12 DGX d         -13.638  25.855  30.971  0.00  0.00     0.033 H 
ATOM     30  H13 DGX d         -11.557  26.849  30.218  0.00  0.00     0.045 H 
ATOM     31  H14 DGX d         -13.170  28.554  28.329  0.00  0.00     0.042 H 
ATOM     32  H15 DGX d         -10.168  28.230  28.723  0.00  0.00     0.037 H 
ATOM     33  H16 DGX d         -10.960  29.452  27.671  0.00  0.00     0.037 H 
ATOM     34  H17 DGX d         -12.132  27.591  26.501  0.00  0.00     0.084 H 
ATOM     35  H20 DGX d         -14.064  26.665  27.416  0.00  0.00     0.037 H 
ATOM     36  H21 DGX d         -14.363  25.018  28.065  0.00  0.00     0.037 H 
ATOM     37  H22 DGX d         -13.491  25.658  25.444  0.00  0.00     0.034 H 
ATOM     38  H23 DGX d         -13.467  24.033  26.208  0.00  0.00     0.034 H 
ATOM     39  H24 DGX d         -11.276  25.677  25.425  0.00  0.00     0.048 H 
ENDROOT
BRANCH   3  40
ATOM     40  O3  DGX d         -14.510  31.988  30.975  0.00  0.00    -0.356 OA
BRANCH  40  41
ATOM     41  C1X DGX d         -15.583  32.778  31.494  0.00  0.00     0.134 C 
ATOM     42  O5X DGX d         -16.760  32.417  30.786  0.00  0.00    -0.354 OA
ATOM     43  C5X DGX d         -17.941  33.103  31.148  0.00  0.00     0.065 C 
ATOM     44  C4X DGX d         -17.745  34.626  31.055  0.00  0.00     0.085 C 
ATOM     45  H41 DGX d         -18.259  32.836  32.166  0.00  0.00     0.086 H 
ATOM     46  C3X DGX d         -16.457  35.111  31.731  0.00  0.00     0.067 C 
ATOM     47  H39 DGX d         -17.707  34.907  29.993  0.00  0.00     0.090 H 
ATOM     48  C2X DGX d         -15.298  34.258  31.232  0.00  0.00     0.007 C 
ATOM     49  H37 DGX d         -16.276  36.154  31.435  0.00  0.00     0.087 H 
ATOM     50  H35 DGX d         -15.167  34.418  30.152  0.00  0.00     0.044 H 
ATOM     51  H36 DGX d         -14.378  34.550  31.760  0.00  0.00     0.044 H 
ATOM     52  H34 DGX d         -15.707  32.598  32.573  0.00  0.00     0.129 H 
BRANCH  43  53
ATOM     53  C6X DGX d         -18.941  32.616  30.117  0.00  0.00    -0.050 C 
ATOM     54  H42 DGX d         -19.112  31.538  30.253  0.00  0.00     0.031 H 
ATOM     55  H43 DGX d         -18.547  32.800  29.107  0.00  0.00     0.031 H 
ATOM     56  H44 DGX d         -19.891  33.156  30.243  0.00  0.00     0.031 H 
ENDBRANCH  43  53
BRANCH  44  57
ATOM     57  O4X DGX d         -18.862  35.278  31.679  0.00  0.00    -0.390 OA
ATOM     58  H40 DGX d         -18.544  35.894  32.330  0.00  0.00     0.210 HD
ENDBRANCH  44  57
BRANCH  46  59
ATOM     59  O3X DGX d         -16.577  35.070  33.171  0.00  0.00    -0.393 OA
ATOM     60  H38 DGX d         -17.381  34.625  33.407  0.00  0.00     0.210 HD
ENDBRANCH  46  59
ENDBRANCH  40  41
ENDBRANCH   3  40
BRANCH  10  61
ATOM     61  C19 DGX d         -10.997  29.560  30.844  0.00  0.00    -0.068 C 
ATOM     62  H28 DGX d         -10.490  28.587  30.750  0.00  0.00     0.028 H 
ATOM     63  H29 DGX d         -11.225  29.752  31.902  0.00  0.00     0.028 H 
ATOM     64  H30 DGX d         -10.340  30.354  30.460  0.00  0.00     0.028 H 
ENDBRANCH  10  61
BRANCH  14  65
ATOM     65  O14 DGX d         -12.338  24.579  29.281  0.00  0.00    -0.389 OA
ATOM     66  H19 DGX d         -12.766  24.690  30.121  0.00  0.00     0.210 HD
ENDBRANCH  14  65
BRANCH  12  67
ATOM     67  O12 DGX d         -10.142  27.602  26.021  0.00  0.00    -0.395 OA
ATOM     68  H18 DGX d          -9.771  26.758  25.794  0.00  0.00     0.210 HD
ENDBRANCH  12  67
BRANCH  13  69
ATOM     69  C18 DGX d          -9.833  25.635  28.217  0.00  0.00    -0.063 C 
ATOM     70  H25 DGX d          -9.015  25.868  27.519  0.00  0.00     0.028 H 
ATOM     71  H26 DGX d          -9.802  24.565  28.473  0.00  0.00     0.028 H 
ATOM     72  H27 DGX d          -9.716  26.234  29.131  0.00  0.00     0.028 H 
ENDBRANCH  13  69
BRANCH  17  73
ATOM     73  C20 DGX d         -10.883  23.787  26.158  0.00  0.00    -0.045 A 
ATOM     74  C22 DGX d          -9.747  23.527  25.495  0.00  0.00    -0.006 A 
ATOM     75  C23 DGX d          -9.384  22.139  25.708  0.00  0.00     0.283 A 
ATOM     76  H33 DGX d          -9.187  24.242  24.894  0.00  0.00     0.093 H 
ATOM     77  O21 DGX d         -10.272  21.575  26.527  0.00  0.00    -0.314 OA
ATOM     78  O23 DGX d          -8.414  21.502  25.317  0.00  0.00    -0.260 OA
ATOM     79  C21 DGX d         -11.315  22.535  26.815  0.00  0.00     0.050 A 
ATOM     80  H31 DGX d         -12.276  22.194  26.404  0.00  0.00     0.082 H 
ATOM     81  H32 DGX d         -11.414  22.683  27.901  0.00  0.00     0.082 H 
ENDBRANCH  17  73
TORSDOF 10
ENDMDL
MODEL 2
REMARK VINA RESULT:      -6.3      1.614      3.231
REMARK  10 active torsions:
REMARK  status: ('A' for Active; 'I' for Inactive)
REMARK    1  A    between atoms: C3_3  and  O3_4 
REMARK    2  A    between atoms: O3_4  and  C1X_29 
REMARK    3  A    between atoms: C10_11  and  C19_22 
REMARK    4  A    between atoms: C12_13  and  O12_14 
REMARK    5  A    between atoms: C13_15  and  C18_21 
REMARK    6  A    between atoms: C14_16  and  O14_17 
REMARK    7  A    between atoms: C17_20  and  C20_23 
REMARK    8  A    between atoms: C3X_31  and  O3X_32 
REMARK    9  A    between atoms: C4X_33  and  O4X_34 
REMARK   10  A    between atoms: C5X_35  and  C6X_37 
ROOT
ATOM      1  C1  DGX d         -13.209  31.012  30.740  0.00  0.00    -0.055 C 
ATOM      2  C2  DGX d         -12.077  31.418  31.678  0.00  0.00    -0.040 C 
ATOM      3  C3  DGX d         -11.335  32.640  31.153  0.00  0.00     0.042 C 
ATOM      4  C4  DGX d         -10.710  32.308  29.808  0.00  0.00    -0.037 C 
ATOM      5  C5  DGX d         -11.803  31.948  28.808  0.00  0.00    -0.044 C 
ATOM      6  C6  DGX d         -11.252  31.761  27.400  0.00  0.00    -0.060 C 
ATOM      7  C7  DGX d         -10.453  30.473  27.281  0.00  0.00    -0.058 C 
ATOM      8  C8  DGX d         -11.304  29.282  27.722  0.00  0.00    -0.019 C 
ATOM      9  C9  DGX d         -11.912  29.463  29.117  0.00  0.00    -0.038 C 
ATOM     10  C10 DGX d         -12.720  30.781  29.299  0.00  0.00    -0.036 C 
ATOM     11  C11 DGX d         -12.755  28.247  29.463  0.00  0.00    -0.036 C 
ATOM     12  C12 DGX d         -11.888  27.007  29.431  0.00  0.00     0.046 C 
ATOM     13  C13 DGX d         -11.347  26.707  28.004  0.00  0.00     0.021 C 
ATOM     14  C14 DGX d         -10.526  27.952  27.514  0.00  0.00     0.072 C 
ATOM     15  C15 DGX d          -9.178  27.808  28.247  0.00  0.00    -0.035 C 
ATOM     16  C16 DGX d          -8.966  26.321  28.531  0.00  0.00    -0.054 C 
ATOM     17  C17 DGX d         -10.281  25.589  28.233  0.00  0.00    -0.018 C 
ATOM     18  H1  DGX d         -13.661  30.081  31.114  0.00  0.00     0.034 H 
ATOM     19  H2  DGX d         -13.966  31.809  30.733  0.00  0.00     0.034 H 
ATOM     20  H3  DGX d         -11.369  30.581  31.770  0.00  0.00     0.036 H 
ATOM     21  H4  DGX d         -12.498  31.653  32.667  0.00  0.00     0.036 H 
ATOM     22  H5  DGX d         -10.550  32.927  31.869  0.00  0.00     0.083 H 
ATOM     23  H6  DGX d         -10.025  31.455  29.924  0.00  0.00     0.037 H 
ATOM     24  H7  DGX d         -10.150  33.180  29.439  0.00  0.00     0.037 H 
ATOM     25  H8  DGX d         -12.458  32.829  28.752  0.00  0.00     0.041 H 
ATOM     26  H9  DGX d         -10.598  32.611  27.157  0.00  0.00     0.033 H 
ATOM     27  H10 DGX d         -12.091  31.729  26.690  0.00  0.00     0.033 H 
ATOM     28  H11 DGX d          -9.561  30.539  27.920  0.00  0.00     0.033 H 
ATOM     29  H12 DGX d         -10.145  30.332  26.235  0.00  0.00     0.033 H 
ATOM     30  H13 DGX d         -12.160  29.241  27.033  0.00  0.00     0.045 H 
ATOM     31  H14 DGX d         -11.076  29.503  29.831  0.00  0.00     0.042 H 
ATOM     32  H15 DGX d         -13.570  28.145  28.731  0.00  0.00     0.037 H 
ATOM     33  H16 DGX d         -13.181  28.371  30.470  0.00  0.00     0.037 H 
ATOM     34  H17 DGX d         -11.016  27.204  30.072  0.00  0.00     0.084 H 
ATOM     35  H20 DGX d          -9.202  28.371  29.192  0.00  0.00     0.037 H 
ATOM     36  H21 DGX d          -8.363  28.189  27.614  0.00  0.00     0.037 H 
ATOM     37  H22 DGX d          -8.691  26.177  29.586  0.00  0.00     0.034 H 
ATOM     38  H23 DGX d          -8.166  25.928  27.886  0.00  0.00     0.034 H 
ATOM     39  H24 DGX d         -10.567  25.077  29.163  0.00  0.00     0.048 H 
ENDROOT
BRANCH   3  40
ATOM     40  O3  DGX d         -12.242  33.739  30.965  0.00  0.00    -0.356 OA
BRANCH  40  41
ATOM     41  C1X DGX d         -13.610  33.548  31.335  0.00  0.00     0.134 C 
ATOM     42  O5X DGX d         -14.411  33.993  30.251  0.00  0.00    -0.354 OA
ATOM     43  C5X DGX d         -15.810  33.899  30.429  0.00  0.00     0.065 C 
ATOM     44  C4X DGX d         -16.254  34.621  31.712  0.00  0.00     0.085 C 
ATOM     45  H41 DGX d         -16.134  32.849  30.468  0.00  0.00     0.086 H 
ATOM     46  C3X DGX d         -15.399  34.261  32.933  0.00  0.00     0.067 C 
ATOM     47  H39 DGX d         -16.180  35.706  31.543  0.00  0.00     0.090 H 
ATOM     48  C2X DGX d         -13.931  34.411  32.557  0.00  0.00     0.007 C 
ATOM     49  H37 DGX d         -15.627  34.970  33.742  0.00  0.00     0.087 H 
ATOM     50  H35 DGX d         -13.721  35.465  32.324  0.00  0.00     0.044 H 
ATOM     51  H36 DGX d         -13.305  34.090  33.403  0.00  0.00     0.044 H 
ATOM     52  H34 DGX d         -13.806  32.488  31.555  0.00  0.00     0.129 H 
BRANCH  43  53
ATOM     53  C6X DGX d         -16.354  34.593  29.194  0.00  0.00    -0.050 C 
ATOM     54  H42 DGX d         -15.690  34.394  28.340  0.00  0.00     0.031 H 
ATOM     55  H43 DGX d         -16.404  35.676  29.375  0.00  0.00     0.031 H 
ATOM     56  H44 DGX d         -17.361  34.211  28.972  0.00  0.00     0.031 H 
ENDBRANCH  43  53
BRANCH  44  57
ATOM     57  O4X DGX d         -17.619  34.277  31.993  0.00  0.00    -0.390 OA
ATOM     58  H40 DGX d         -18.062  34.058  31.181  0.00  0.00     0.210 HD
ENDBRANCH  44  57
BRANCH  46  59
ATOM     59  O3X DGX d         -15.702  32.930  33.407  0.00  0.00    -0.393 OA
ATOM     60  H38 DGX d         -16.162  32.988  34.236  0.00  0.00     0.210 HD
ENDBRANCH  46  59
ENDBRANCH  40  41
ENDBRANCH   3  40
BRANCH  10  61
ATOM     61  C19 DGX d         -14.054  30.730  28.533  0.00  0.00    -0.068 C 
ATOM     62  H28 DGX d         -13.865  30.868  27.458  0.00  0.00     0.028 H 
ATOM     63  H29 DGX d         -14.715  31.531  28.894  0.00  0.00     0.028 H 
ATOM     64  H30 DGX d         -14.535  29.755  28.699  0.00  0.00     0.028 H 
ENDBRANCH  10  61
BRANCH  14  65
ATOM     65  O14 DGX d         -10.200  27.851  26.103  0.00  0.00    -0.389 OA
ATOM     66  H19 DGX d          -9.366  28.274  25.941  0.00  0.00     0.210 HD
ENDBRANCH  14  65
BRANCH  12  67
ATOM     67  O12 DGX d         -12.574  25.879  29.983  0.00  0.00    -0.395 OA
ATOM     68  H18 DGX d         -13.483  25.897  29.707  0.00  0.00     0.210 HD
ENDBRANCH  12  67
BRANCH  13  69
ATOM     69  C18 DGX d         -12.518  26.356  27.058  0.00  0.00    -0.063 C 
ATOM     70  H25 DGX d         -12.774  27.235  26.448  0.00  0.00     0.028 H 
ATOM     71  H26 DGX d         -13.393  26.057  27.654  0.00  0.00     0.028 H 
ATOM     72  H27 DGX d         -12.222  25.527  26.400  0.00  0.00     0.028 H 
ENDBRANCH  13  69
BRANCH  17  73
ATOM     73  C20 DGX d         -10.223  24.495  27.212  0.00  0.00    -0.045 A 
ATOM     74  C22 DGX d         -10.685  23.241  27.317  0.00  0.00    -0.006 A 
ATOM     75  C23 DGX d         -10.512  22.566  26.045  0.00  0.00     0.283 A 
ATOM     76  H33 DGX d         -11.120  22.799  28.213  0.00  0.00     0.093 H 
ATOM     77  O21 DGX d          -9.988  23.420  25.165  0.00  0.00    -0.314 OA
ATOM     78  O23 DGX d         -10.825  21.434  25.697  0.00  0.00    -0.260 OA
ATOM     79  C21 DGX d          -9.699  24.666  25.840  0.00  0.00     0.050 A 
ATOM     80  H31 DGX d          -8.616  24.851  25.860  0.00  0.00     0.082 H 
ATOM     81  H32 DGX d         -10.205  25.503  25.336  0.00  0.00     0.082 H 
ENDBRANCH  17  73
TORSDOF 10
ENDMDL
MODEL 3
REMARK VINA RESULT:      -6.0      1.564      2.998
REMARK  10 active torsions:
REMARK  status: ('A' for Active; 'I' for Inactive)
REMARK    1  A    between atoms: C3_3  and  O3_4 
REMARK    2  A    between atoms: O3_4  and  C1X_29 
REMARK    3  A    between atoms: C10_11  and  C19_22 
REMARK    4  A    between atoms: C12_13  and  O12_14 
REMARK    5  A    between atoms: C13_15  and  C18_21 
REMARK    6  A    between atoms: C14_16  and  O14_17 
REMARK    7  A    between atoms: C17_20  and  C20_23 
REMARK    8  A    between atoms: C3X_31  and  O3X_32 
REMARK    9  A    between atoms: C4X_33  and  O4X_34 
REMARK   10  A    between atoms: C5X_35  and  C6X_37 
ROOT
ATOM      1  C1  DGX d         -15.541  30.083  30.842  0.00  0.00    -0.055 C 
ATOM      2  C2  DGX d         -14.764  30.282  32.140  0.00  0.00    -0.040 C 
ATOM      3  C3  DGX d         -13.941  31.563  32.100  0.00  0.00     0.042 C 
ATOM      4  C4  DGX d         -12.924  31.472  30.973  0.00  0.00    -0.037 C 
ATOM      5  C5  DGX d         -13.647  31.328  29.639  0.00  0.00    -0.044 C 
ATOM      6  C6  DGX d         -12.688  31.394  28.458  0.00  0.00    -0.060 C 
ATOM      7  C7  DGX d         -11.845  30.132  28.355  0.00  0.00    -0.058 C 
ATOM      8  C8  DGX d         -12.747  28.899  28.288  0.00  0.00    -0.019 C 
ATOM      9  C9  DGX d         -13.757  28.832  29.439  0.00  0.00    -0.038 C 
ATOM     10  C10 DGX d         -14.629  30.112  29.603  0.00  0.00    -0.036 C 
ATOM     11  C11 DGX d         -14.622  27.593  29.281  0.00  0.00    -0.036 C 
ATOM     12  C12 DGX d         -13.743  26.361  29.289  0.00  0.00     0.046 C 
ATOM     13  C13 DGX d         -12.782  26.319  28.066  0.00  0.00     0.021 C 
ATOM     14  C14 DGX d         -11.897  27.614  28.088  0.00  0.00     0.072 C 
ATOM     15  C15 DGX d         -10.832  27.306  29.159  0.00  0.00    -0.035 C 
ATOM     16  C16 DGX d         -10.664  25.788  29.216  0.00  0.00    -0.054 C 
ATOM     17  C17 DGX d         -11.798  25.154  28.401  0.00  0.00    -0.018 C 
ATOM     18  H1  DGX d         -16.052  29.109  30.882  0.00  0.00     0.034 H 
ATOM     19  H2  DGX d         -16.288  30.885  30.750  0.00  0.00     0.034 H 
ATOM     20  H3  DGX d         -14.088  29.427  32.289  0.00  0.00     0.036 H 
ATOM     21  H4  DGX d         -15.474  30.339  32.978  0.00  0.00     0.036 H 
ATOM     22  H5  DGX d         -13.422  31.694  33.061  0.00  0.00     0.083 H 
ATOM     23  H6  DGX d         -12.277  30.597  31.135  0.00  0.00     0.037 H 
ATOM     24  H7  DGX d         -12.310  32.385  30.960  0.00  0.00     0.037 H 
ATOM     25  H8  DGX d         -14.285  32.220  29.548  0.00  0.00     0.041 H 
ATOM     26  H9  DGX d         -12.021  32.259  28.586  0.00  0.00     0.033 H 
ATOM     27  H10 DGX d         -13.269  31.513  27.532  0.00  0.00     0.033 H 
ATOM     28  H11 DGX d         -11.193  30.058  29.237  0.00  0.00     0.033 H 
ATOM     29  H12 DGX d         -11.228  30.181  27.446  0.00  0.00     0.033 H 
ATOM     30  H13 DGX d         -13.351  29.007  27.375  0.00  0.00     0.045 H 
ATOM     31  H14 DGX d         -13.180  28.721  30.369  0.00  0.00     0.042 H 
ATOM     32  H15 DGX d         -15.171  27.647  28.329  0.00  0.00     0.037 H 
ATOM     33  H16 DGX d         -15.339  27.538  30.114  0.00  0.00     0.037 H 
ATOM     34  H17 DGX d         -13.115  26.416  30.191  0.00  0.00     0.084 H 
ATOM     35  H20 DGX d         -11.162  27.684  30.137  0.00  0.00     0.037 H 
ATOM     36  H21 DGX d          -9.877  27.779  28.886  0.00  0.00     0.037 H 
ATOM     37  H22 DGX d         -10.717  25.444  30.259  0.00  0.00     0.034 H 
ATOM     38  H23 DGX d          -9.691  25.503  28.786  0.00  0.00     0.034 H 
ATOM     39  H24 DGX d         -12.335  24.484  29.089  0.00  0.00     0.048 H 
ENDROOT
BRANCH   3  40
ATOM     40  O3  DGX d         -14.785  32.698  31.848  0.00  0.00    -0.356 OA
BRANCH  40  41
ATOM     41  C1X DGX d         -16.181  32.461  31.638  0.00  0.00     0.134 C 
ATOM     42  O5X DGX d         -16.570  33.199  30.490  0.00  0.00    -0.354 OA
ATOM     43  C5X DGX d         -17.931  33.106  30.120  0.00  0.00     0.065 C 
ATOM     44  C4X DGX d         -18.850  33.481  31.296  0.00  0.00     0.085 C 
ATOM     45  H41 DGX d         -18.178  32.093  29.770  0.00  0.00     0.086 H 
ATOM     46  C3X DGX d         -18.464  32.787  32.607  0.00  0.00     0.067 C 
ATOM     47  H39 DGX d         -18.792  34.568  31.448  0.00  0.00     0.090 H 
ATOM     48  C2X DGX d         -16.972  32.983  32.838  0.00  0.00     0.007 C 
ATOM     49  H37 DGX d         -19.012  33.265  33.432  0.00  0.00     0.087 H 
ATOM     50  H35 DGX d         -16.763  34.054  32.975  0.00  0.00     0.044 H 
ATOM     51  H36 DGX d         -16.668  32.432  33.741  0.00  0.00     0.044 H 
ATOM     52  H34 DGX d         -16.371  31.387  31.493  0.00  0.00     0.129 H 
BRANCH  43  53
ATOM     53  C6X DGX d         -18.043  34.116  28.994  0.00  0.00    -0.050 C 
ATOM     54  H42 DGX d         -17.875  33.611  28.031  0.00  0.00     0.031 H 
ATOM     55  H43 DGX d         -17.289  34.905  29.132  0.00  0.00     0.031 H 
ATOM     56  H44 DGX d         -19.048  34.564  29.002  0.00  0.00     0.031 H 
ENDBRANCH  43  53
BRANCH  44  57
ATOM     57  O4X DGX d         -20.200  33.118  30.966  0.00  0.00    -0.390 OA
ATOM     58  H40 DGX d         -20.694  33.902  30.757  0.00  0.00     0.210 HD
ENDBRANCH  44  57
BRANCH  46  59
ATOM     59  O3X DGX d         -18.828  31.388  32.583  0.00  0.00    -0.393 OA
ATOM     60  H38 DGX d         -18.047  30.858  32.688  0.00  0.00     0.210 HD
ENDBRANCH  46  59
ENDBRANCH  40  41
ENDBRANCH   3  40
BRANCH  10  61
ATOM     61  C19 DGX d         -15.663  30.234  28.470  0.00  0.00    -0.068 C 
ATOM     62  H28 DGX d         -16.175  31.205  28.544  0.00  0.00     0.028 H 
ATOM     63  H29 DGX d         -16.401  29.424  28.558  0.00  0.00     0.028 H 
ATOM     64  H30 DGX d         -15.153  30.161  27.498  0.00  0.00     0.028 H 
ENDBRANCH  10  61
BRANCH  14  65
ATOM     65  O14 DGX d         -11.152  27.769  26.851  0.00  0.00    -0.389 OA
ATOM     66  H19 DGX d         -10.355  27.256  26.896  0.00  0.00     0.210 HD
ENDBRANCH  14  65
BRANCH  12  67
ATOM     67  O12 DGX d         -14.524  25.167  29.388  0.00  0.00    -0.395 OA
ATOM     68  H18 DGX d         -14.549  24.734  28.543  0.00  0.00     0.210 HD
ENDBRANCH  12  67
BRANCH  13  69
ATOM     69  C18 DGX d         -13.597  26.176  26.760  0.00  0.00    -0.063 C 
ATOM     70  H25 DGX d         -13.526  25.141  26.395  0.00  0.00     0.028 H 
ATOM     71  H26 DGX d         -13.194  26.860  25.999  0.00  0.00     0.028 H 
ATOM     72  H27 DGX d         -14.650  26.425  26.955  0.00  0.00     0.028 H 
ENDBRANCH  13  69
BRANCH  17  73
ATOM     73  C20 DGX d         -11.393  24.267  27.265  0.00  0.00    -0.045 A 
ATOM     74  C22 DGX d         -10.155  23.968  26.848  0.00  0.00    -0.006 A 
ATOM     75  C23 DGX d         -10.238  22.982  25.788  0.00  0.00     0.283 A 
ATOM     76  H33 DGX d          -9.234  24.397  27.242  0.00  0.00     0.093 H 
ATOM     77  O21 DGX d         -11.516  22.657  25.592  0.00  0.00    -0.314 OA
ATOM     78  O23 DGX d          -9.353  22.417  25.157  0.00  0.00    -0.260 OA
ATOM     79  C21 DGX d         -12.343  23.481  26.446  0.00  0.00     0.050 A 
ATOM     80  H31 DGX d         -12.975  24.148  25.841  0.00  0.00     0.082 H 
ATOM     81  H32 DGX d         -12.979  22.855  27.088  0.00  0.00     0.082 H 
ENDBRANCH  17  73
TORSDOF 10
ENDMDL
MODEL 4
REMARK VINA RESULT:      -5.7      1.685      9.974
REMARK  10 active torsions:
REMARK  status: ('A' for Active; 'I' for Inactive)
REMARK    1  A    between atoms: C3_3  and  O3_4 
REMARK    2  A    between atoms: O3_4  and  C1X_29 
REMARK    3  A    between atoms: C10_11  and  C19_22 
REMARK    4  A    between atoms: C12_13  and  O12_14 
REMARK    5  A    between atoms: C13_15  and  C18_21 
REMARK    6  A    between atoms: C14_16  and  O14_17 
REMARK    7  A    between atoms: C17_20  and  C20_23 
REMARK    8  A    between atoms: C3X_31  and  O3X_32 
REMARK    9  A    between atoms: C4X_33  and  O4X_34 
REMARK   10  A    between atoms: C5X_35  and  C6X_37 
ROOT
ATOM      1  C1  DGX d          -9.761  29.753  28.774  0.00  0.00    -0.055 C 
ATOM      2  C2  DGX d          -9.461  28.542  29.653  0.00  0.00    -0.040 C 
ATOM      3  C3  DGX d         -10.005  27.261  29.034  0.00  0.00     0.042 C 
ATOM      4  C4  DGX d         -11.516  27.366  28.909  0.00  0.00    -0.037 C 
ATOM      5  C5  DGX d         -11.877  28.529  27.991  0.00  0.00    -0.044 C 
ATOM      6  C6  DGX d         -13.370  28.586  27.699  0.00  0.00    -0.060 C 
ATOM      7  C7  DGX d         -14.158  29.050  28.914  0.00  0.00    -0.058 C 
ATOM      8  C8  DGX d         -13.623  30.395  29.408  0.00  0.00    -0.019 C 
ATOM      9  C9  DGX d         -12.112  30.381  29.664  0.00  0.00    -0.038 C 
ATOM     10  C10 DGX d         -11.260  29.889  28.457  0.00  0.00    -0.036 C 
ATOM     11  C11 DGX d         -11.665  31.757  30.128  0.00  0.00    -0.036 C 
ATOM     12  C12 DGX d         -12.405  32.125  31.397  0.00  0.00     0.046 C 
ATOM     13  C13 DGX d         -13.934  32.275  31.161  0.00  0.00     0.021 C 
ATOM     14  C14 DGX d         -14.483  30.921  30.591  0.00  0.00     0.072 C 
ATOM     15  C15 DGX d         -14.585  30.019  31.837  0.00  0.00    -0.035 C 
ATOM     16  C16 DGX d         -14.784  30.930  33.048  0.00  0.00    -0.054 C 
ATOM     17  C17 DGX d         -14.529  32.375  32.601  0.00  0.00    -0.018 C 
ATOM     18  H1  DGX d          -9.426  30.661  29.297  0.00  0.00     0.034 H 
ATOM     19  H2  DGX d          -9.207  29.650  27.829  0.00  0.00     0.034 H 
ATOM     20  H3  DGX d          -9.927  28.689  30.638  0.00  0.00     0.036 H 
ATOM     21  H4  DGX d          -8.372  28.447  29.772  0.00  0.00     0.036 H 
ATOM     22  H5  DGX d          -9.741  26.406  29.673  0.00  0.00     0.083 H 
ATOM     23  H6  DGX d         -11.954  27.535  29.903  0.00  0.00     0.037 H 
ATOM     24  H7  DGX d         -11.913  26.431  28.487  0.00  0.00     0.037 H 
ATOM     25  H8  DGX d         -11.398  28.308  27.027  0.00  0.00     0.041 H 
ATOM     26  H9  DGX d         -13.716  27.583  27.411  0.00  0.00     0.033 H 
ATOM     27  H10 DGX d         -13.546  29.287  26.870  0.00  0.00     0.033 H 
ATOM     28  H11 DGX d         -14.062  28.304  29.716  0.00  0.00     0.033 H 
ATOM     29  H12 DGX d         -15.217  29.159  28.640  0.00  0.00     0.033 H 
ATOM     30  H13 DGX d         -13.774  31.108  28.585  0.00  0.00     0.045 H 
ATOM     31  H14 DGX d         -11.930  29.675  30.488  0.00  0.00     0.042 H 
ATOM     32  H15 DGX d         -11.887  32.498  29.346  0.00  0.00     0.037 H 
ATOM     33  H16 DGX d         -10.582  31.745  30.325  0.00  0.00     0.037 H 
ATOM     34  H17 DGX d         -12.267  31.294  32.105  0.00  0.00     0.084 H 
ATOM     35  H20 DGX d         -13.661  29.434  31.954  0.00  0.00     0.037 H 
ATOM     36  H21 DGX d         -15.441  29.335  31.737  0.00  0.00     0.037 H 
ATOM     37  H22 DGX d         -14.075  30.655  33.843  0.00  0.00     0.034 H 
ATOM     38  H23 DGX d         -15.813  30.831  33.424  0.00  0.00     0.034 H 
ATOM     39  H24 DGX d         -13.722  32.758  33.243  0.00  0.00     0.048 H 
ENDROOT
BRANCH   3  40
ATOM     40  O3  DGX d          -9.460  27.066  27.718  0.00  0.00    -0.356 OA
BRANCH  40  41
ATOM     41  C1X DGX d          -9.886  25.916  26.981  0.00  0.00     0.134 C 
ATOM     42  O5X DGX d         -11.291  26.016  26.807  0.00  0.00    -0.354 OA
ATOM     43  C5X DGX d         -11.911  24.957  26.107  0.00  0.00     0.065 C 
ATOM     44  C4X DGX d         -11.579  23.600  26.752  0.00  0.00     0.085 C 
ATOM     45  H41 DGX d         -11.603  24.946  25.051  0.00  0.00     0.086 H 
ATOM     46  C3X DGX d         -10.086  23.422  27.048  0.00  0.00     0.067 C 
ATOM     47  H39 DGX d         -12.133  23.521  27.698  0.00  0.00     0.090 H 
ATOM     48  C2X DGX d          -9.590  24.654  27.794  0.00  0.00     0.007 C 
ATOM     49  H37 DGX d          -9.959  22.545  27.698  0.00  0.00     0.087 H 
ATOM     50  H35 DGX d         -10.099  24.719  28.767  0.00  0.00     0.044 H 
ATOM     51  H36 DGX d          -8.505  24.571  27.953  0.00  0.00     0.044 H 
ATOM     52  H34 DGX d          -9.375  25.871  26.007  0.00  0.00     0.129 H 
BRANCH  43  53
ATOM     53  C6X DGX d         -13.386  25.282  26.243  0.00  0.00    -0.050 C 
ATOM     54  H42 DGX d         -13.902  25.046  25.300  0.00  0.00     0.031 H 
ATOM     55  H43 DGX d         -13.507  26.351  26.470  0.00  0.00     0.031 H 
ATOM     56  H44 DGX d         -13.820  24.683  27.057  0.00  0.00     0.031 H 
ENDBRANCH  43  53
BRANCH  44  57
ATOM     57  O4X DGX d         -11.998  22.549  25.867  0.00  0.00    -0.390 OA
ATOM     58  H40 DGX d         -12.004  21.724  26.339  0.00  0.00     0.210 HD
ENDBRANCH  44  57
BRANCH  46  59
ATOM     59  O3X DGX d          -9.338  23.189  25.834  0.00  0.00    -0.393 OA
ATOM     60  H38 DGX d          -8.543  23.709  25.848  0.00  0.00     0.210 HD
ENDBRANCH  46  59
ENDBRANCH  40  41
ENDBRANCH   3  40
BRANCH  10  61
ATOM     61  C19 DGX d         -11.236  30.932  27.326  0.00  0.00    -0.068 C 
ATOM     62  H28 DGX d         -11.306  31.942  27.757  0.00  0.00     0.028 H 
ATOM     63  H29 DGX d         -12.088  30.762  26.652  0.00  0.00     0.028 H 
ATOM     64  H30 DGX d         -10.298  30.839  26.761  0.00  0.00     0.028 H 
ENDBRANCH  10  61
BRANCH  14  65
ATOM     65  O14 DGX d         -15.847  31.059  30.113  0.00  0.00    -0.389 OA
ATOM     66  H19 DGX d         -16.387  30.381  30.502  0.00  0.00     0.210 HD
ENDBRANCH  14  65
BRANCH  12  67
ATOM     67  O12 DGX d         -11.846  33.295  32.003  0.00  0.00    -0.395 OA
ATOM     68  H18 DGX d         -10.899  33.221  32.015  0.00  0.00     0.210 HD
ENDBRANCH  12  67
BRANCH  13  69
ATOM     69  C18 DGX d         -14.208  33.472  30.221  0.00  0.00    -0.063 C 
ATOM     70  H25 DGX d         -15.210  33.370  29.780  0.00  0.00     0.028 H 
ATOM     71  H26 DGX d         -13.455  33.489  29.420  0.00  0.00     0.028 H 
ATOM     72  H27 DGX d         -14.154  34.409  30.794  0.00  0.00     0.028 H 
ENDBRANCH  13  69
BRANCH  17  73
ATOM     73  C20 DGX d         -15.651  33.347  32.801  0.00  0.00    -0.045 A 
ATOM     74  C22 DGX d         -16.969  33.104  32.782  0.00  0.00    -0.006 A 
ATOM     75  C23 DGX d         -17.677  34.319  33.135  0.00  0.00     0.283 A 
ATOM     76  H33 DGX d         -17.433  32.149  32.539  0.00  0.00     0.093 H 
ATOM     77  O21 DGX d         -16.792  35.278  33.407  0.00  0.00    -0.314 OA
ATOM     78  O23 DGX d         -18.877  34.530  33.268  0.00  0.00    -0.260 OA
ATOM     79  C21 DGX d         -15.463  34.771  33.152  0.00  0.00     0.050 A 
ATOM     80  H31 DGX d         -14.996  35.316  32.318  0.00  0.00     0.082 H 
ATOM     81  H32 DGX d         -14.834  34.868  34.049  0.00  0.00     0.082 H 
ENDBRANCH  17  73
TORSDOF 10
ENDMDL
