MODEL 1
REMARK VINA RESULT:     -10.9      0.000      0.000
REMARK  5 active torsions:
REMARK  status: ('A' for Active; 'I' for Inactive)
REMARK    1  A    between atoms: N19_3  and  C23_4 
REMARK    2  A    between atoms: C23_4  and  C24_5 
REMARK    3  A    between atoms: C10_20  and  C7_21 
REMARK    4  A    between atoms: C4_24  and  C3_27 
REMARK    5  A    between atoms: C3_27  and  N1_28 
ROOT
ATOM      1  O21 FSN d          16.781 -12.842  22.594  0.00  0.00    -0.272 OA
ATOM      2  C20 FSN d          17.521 -12.597  21.658  0.00  0.00     0.234 C 
ATOM      3  N19 FSN d          18.658 -13.384  21.368  0.00  0.00    -0.283 N 
ATOM      4  C17 FSN d          19.226 -12.998  20.119  0.00  0.00     0.233 C 
ATOM      5  O18 FSN d          20.223 -13.494  19.619  0.00  0.00    -0.272 OA
ATOM      6  C16 FSN d          18.415 -11.928  19.544  0.00  0.00     0.066 C 
ATOM      7  C15 FSN d          17.422 -12.357  18.464  0.00  0.00     0.117 C 
ATOM      8  N11 FSN d          15.990 -12.592  18.970  0.00  0.00    -0.057 N 
ATOM      9  C12 FSN d          15.192 -12.194  17.774  0.00  0.00     0.085 C 
ATOM     10  C13 FSN d          16.153 -12.425  16.563  0.00  0.00    -0.040 C 
ATOM     11  C14 FSN d          17.494 -11.877  17.072  0.00  0.00    -0.036 C 
ATOM     12  C10 FSN d          16.015 -11.454  19.988  0.00  0.00     0.142 C 
ATOM     13  C22 FSN d          17.381 -11.529  20.645  0.00  0.00     0.069 C 
ATOM     14  H7  FSN d          19.055 -11.100  19.208  0.00  0.00     0.059 H 
ATOM     15  H8  FSN d          17.763 -13.393  18.314  0.00  0.00     0.086 H 
ATOM     16  H9  FSN d          15.766 -13.503  19.338  0.00  0.00     0.281 HD
ATOM     17  H10 FSN d          14.897 -11.137  17.839  0.00  0.00     0.076 H 
ATOM     18  H11 FSN d          14.294 -12.822  17.681  0.00  0.00     0.076 H 
ATOM     19  H12 FSN d          15.811 -11.869  15.677  0.00  0.00     0.035 H 
ATOM     20  H13 FSN d          16.230 -13.494  16.318  0.00  0.00     0.035 H 
ATOM     21  H14 FSN d          18.349 -12.309  16.531  0.00  0.00     0.036 H 
ATOM     22  H15 FSN d          17.540 -10.779  17.016  0.00  0.00     0.036 H 
ATOM     23  H16 FSN d          16.027 -10.525  19.400  0.00  0.00     0.093 H 
ATOM     24  H25 FSN d          17.623 -10.553  21.090  0.00  0.00     0.059 H 
ENDROOT
BRANCH  12  25
ATOM     25  C7  FSN d          14.795 -11.301  20.845  0.00  0.00    -0.027 A 
ATOM     26  C8  FSN d          14.036 -12.438  21.105  0.00  0.00    -0.074 A 
ATOM     27  C9  FSN d          12.932 -12.360  21.942  0.00  0.00    -0.069 A 
ATOM     28  H17 FSN d          14.307 -13.385  20.653  0.00  0.00     0.084 H 
ATOM     29  C4  FSN d          12.595 -11.102  22.517  0.00  0.00     0.007 A 
ATOM     30  H18 FSN d          12.337 -13.240  22.155  0.00  0.00     0.085 H 
ATOM     31  C5  FSN d          13.358  -9.957  22.263  0.00  0.00    -0.069 A 
ATOM     32  C6  FSN d          14.471 -10.048  21.421  0.00  0.00    -0.074 A 
ATOM     33  H19 FSN d          13.088  -9.009  22.714  0.00  0.00     0.085 H 
ATOM     34  H20 FSN d          15.076  -9.173  21.213  0.00  0.00     0.084 H 
BRANCH  29  35
ATOM     35  C3  FSN d          11.426 -11.039  23.379  0.00  0.00     0.102 C 
ATOM     36  N2  FSN d          10.636 -12.115  23.624  0.00  0.00    -0.385 N 
ATOM     37  H23 FSN d          10.858 -13.025  23.197  0.00  0.00     0.157 HD
ATOM     38  H24 FSN d           9.814 -12.022  24.238  0.00  0.00     0.157 HD
BRANCH  35  39
ATOM     39  N1  FSN d          11.050  -9.886  23.989  0.00  0.00    -0.385 N 
ATOM     40  H21 FSN d          11.544  -9.007  23.778  0.00  0.00     0.157 HD
ATOM     41  H22 FSN d          10.271  -9.889  24.663  0.00  0.00     0.157 HD
ENDBRANCH  35  39
ENDBRANCH  29  35
ENDBRANCH  12  25
BRANCH   3  42
ATOM     42  C23 FSN d          18.980 -14.570  22.161  0.00  0.00     0.029 C 
ATOM     43  H1  FSN d          19.500 -15.302  21.526  0.00  0.00     0.072 H 
ATOM     44  H2  FSN d          18.050 -15.013  22.546  0.00  0.00     0.072 H 
BRANCH  42  45
ATOM     45  C24 FSN d          19.868 -14.193  23.316  0.00  0.00    -0.040 A 
ATOM     46  C32 FSN d          19.302 -14.064  24.599  0.00  0.00    -0.072 A 
ATOM     47  C31 FSN d          20.127 -13.749  25.678  0.00  0.00    -0.045 A 
ATOM     48  H3  FSN d          18.239 -14.208  24.746  0.00  0.00     0.084 H 
ATOM     49  C30 FSN d          21.496 -13.568  25.438  0.00  0.00     0.116 A 
ATOM     50  H4  FSN d          19.720 -13.647  26.677  0.00  0.00     0.088 H 
ATOM     51  F29 FSN d          22.239 -13.287  26.523  0.00  0.00    -0.206 F 
ATOM     52  C26 FSN d          22.106 -13.672  24.179  0.00  0.00    -0.045 A 
ATOM     53  C25 FSN d          21.252 -13.992  23.094  0.00  0.00    -0.072 A 
ATOM     54  H5  FSN d          23.170 -13.516  24.044  0.00  0.00     0.088 H 
ATOM     55  H6  FSN d          21.659 -14.082  22.093  0.00  0.00     0.084 H 
ENDBRANCH  42  45
ENDBRANCH   3  42
TORSDOF 5
ENDMDL
MODEL 2
REMARK VINA RESULT:      -8.6      3.090      7.114
REMARK  5 active torsions:
REMARK  status: ('A' for Active; 'I' for Inactive)
REMARK    1  A    between atoms: N19_3  and  C23_4 
REMARK    2  A    between atoms: C23_4  and  C24_5 
REMARK    3  A    between atoms: C10_20  and  C7_21 
REMARK    4  A    between atoms: C4_24  and  C3_27 
REMARK    5  A    between atoms: C3_27  and  N1_28 
ROOT
ATOM      1  O21 FSN d          16.651 -12.015  21.766  0.00  0.00    -0.272 OA
ATOM      2  C20 FSN d          16.144 -12.044  20.659  0.00  0.00     0.234 C 
ATOM      3  N19 FSN d          15.148 -11.125  20.259  0.00  0.00    -0.283 N 
ATOM      4  C17 FSN d          14.876 -11.259  18.866  0.00  0.00     0.233 C 
ATOM      5  O18 FSN d          14.052 -10.605  18.247  0.00  0.00    -0.272 OA
ATOM      6  C16 FSN d          15.748 -12.292  18.313  0.00  0.00     0.066 C 
ATOM      7  C15 FSN d          16.989 -11.787  17.578  0.00  0.00     0.117 C 
ATOM      8  N11 FSN d          18.269 -11.760  18.428  0.00  0.00    -0.057 N 
ATOM      9  C12 FSN d          19.309 -12.033  17.394  0.00  0.00     0.085 C 
ATOM     10  C13 FSN d          18.677 -11.533  16.055  0.00  0.00    -0.040 C 
ATOM     11  C14 FSN d          17.228 -12.034  16.144  0.00  0.00    -0.036 C 
ATOM     12  C10 FSN d          17.948 -13.037  19.201  0.00  0.00     0.142 C 
ATOM     13  C22 FSN d          16.470 -12.947  19.534  0.00  0.00     0.069 C 
ATOM     14  H7  FSN d          15.168 -12.998  17.703  0.00  0.00     0.059 H 
ATOM     15  H8  FSN d          16.744 -10.715  17.536  0.00  0.00     0.086 H 
ATOM     16  H9  FSN d          18.443 -10.941  18.989  0.00  0.00     0.281 HD
ATOM     17  H10 FSN d          19.529 -13.110  17.340  0.00  0.00     0.076 H 
ATOM     18  H11 FSN d          20.233 -11.480  17.617  0.00  0.00     0.076 H 
ATOM     19  H12 FSN d          19.193 -11.970  15.187  0.00  0.00     0.035 H 
ATOM     20  H13 FSN d          18.711 -10.436  15.988  0.00  0.00     0.035 H 
ATOM     21  H14 FSN d          16.549 -11.450  15.506  0.00  0.00     0.036 H 
ATOM     22  H15 FSN d          17.144 -13.101  15.890  0.00  0.00     0.036 H 
ATOM     23  H16 FSN d          18.031 -13.857  18.473  0.00  0.00     0.093 H 
ATOM     24  H25 FSN d          16.082 -13.956  19.737  0.00  0.00     0.059 H 
ENDROOT
BRANCH  12  25
ATOM     25  C7  FSN d          18.920 -13.429  20.272  0.00  0.00    -0.027 A 
ATOM     26  C8  FSN d          19.976 -12.564  20.540  0.00  0.00    -0.074 A 
ATOM     27  C9  FSN d          20.868 -12.852  21.564  0.00  0.00    -0.069 A 
ATOM     28  H17 FSN d          20.103 -11.664  19.949  0.00  0.00     0.084 H 
ATOM     29  C4  FSN d          20.682 -14.043  22.320  0.00  0.00     0.007 A 
ATOM     30  H18 FSN d          21.691 -12.182  21.784  0.00  0.00     0.085 H 
ATOM     31  C5  FSN d          19.619 -14.914  22.058  0.00  0.00    -0.069 A 
ATOM     32  C6  FSN d          18.723 -14.612  21.027  0.00  0.00    -0.074 A 
ATOM     33  H19 FSN d          19.491 -15.814  22.648  0.00  0.00     0.085 H 
ATOM     34  H20 FSN d          17.892 -15.272  20.809  0.00  0.00     0.084 H 
BRANCH  29  35
ATOM     35  C3  FSN d          21.636 -14.334  23.378  0.00  0.00     0.102 C 
ATOM     36  N2  FSN d          21.385 -15.228  24.368  0.00  0.00    -0.385 N 
ATOM     37  H23 FSN d          20.490 -15.737  24.386  0.00  0.00     0.157 HD
ATOM     38  H24 FSN d          22.089 -15.398  25.099  0.00  0.00     0.157 HD
BRANCH  35  39
ATOM     39  N1  FSN d          22.843 -13.715  23.440  0.00  0.00    -0.385 N 
ATOM     40  H21 FSN d          23.002 -12.964  24.128  0.00  0.00     0.157 HD
ATOM     41  H22 FSN d          23.600 -13.996  22.801  0.00  0.00     0.157 HD
ENDBRANCH  35  39
ENDBRANCH  29  35
ENDBRANCH  12  25
BRANCH   3  42
ATOM     42  C23 FSN d          14.704 -10.055  21.151  0.00  0.00     0.029 C 
ATOM     43  H1  FSN d          14.378  -9.192  20.551  0.00  0.00     0.072 H 
ATOM     44  H2  FSN d          15.538  -9.754  21.802  0.00  0.00     0.072 H 
BRANCH  42  45
ATOM     45  C24 FSN d          13.557 -10.533  21.999  0.00  0.00    -0.040 A 
ATOM     46  C32 FSN d          13.170 -11.884  21.926  0.00  0.00    -0.072 A 
ATOM     47  C31 FSN d          12.129 -12.339  22.736  0.00  0.00    -0.045 A 
ATOM     48  H3  FSN d          13.674 -12.564  21.249  0.00  0.00     0.084 H 
ATOM     49  C30 FSN d          11.505 -11.423  23.593  0.00  0.00     0.116 A 
ATOM     50  H4  FSN d          11.812 -13.375  22.703  0.00  0.00     0.088 H 
ATOM     51  F29 FSN d          10.524 -11.929  24.361  0.00  0.00    -0.206 F 
ATOM     52  C26 FSN d          11.842 -10.065  23.693  0.00  0.00    -0.045 A 
ATOM     53  C25 FSN d          12.902  -9.620  22.863  0.00  0.00    -0.072 A 
ATOM     54  H5  FSN d          11.323  -9.395  24.368  0.00  0.00     0.088 H 
ATOM     55  H6  FSN d          13.210  -8.582  22.888  0.00  0.00     0.084 H 
ENDBRANCH  42  45
ENDBRANCH   3  42
TORSDOF 5
ENDMDL
MODEL 3
REMARK VINA RESULT:      -8.6      3.157      7.203
REMARK  5 active torsions:
REMARK  status: ('A' for Active; 'I' for Inactive)
REMARK    1  A    between atoms: N19_3  and  C23_4 
REMARK    2  A    between atoms: C23_4  and  C24_5 
REMARK    3  A    between atoms: C10_20  and  C7_21 
REMARK    4  A    between atoms: C4_24  and  C3_27 
REMARK    5  A    between atoms: C3_27  and  N1_28 
ROOT
ATOM      1  O21 FSN d          17.143 -12.465  21.907  0.00  0.00    -0.272 OA
ATOM      2  C20 FSN d          16.836 -12.407  20.729  0.00  0.00     0.234 C 
ATOM      3  N19 FSN d          15.935 -11.440  20.230  0.00  0.00    -0.283 N 
ATOM      4  C17 FSN d          15.908 -11.473  18.805  0.00  0.00     0.233 C 
ATOM      5  O18 FSN d          15.212 -10.759  18.100  0.00  0.00    -0.272 OA
ATOM      6  C16 FSN d          16.851 -12.486  18.340  0.00  0.00     0.066 C 
ATOM      7  C15 FSN d          18.207 -11.962  17.868  0.00  0.00     0.117 C 
ATOM      8  N11 FSN d          19.320 -12.023  18.925  0.00  0.00    -0.057 N 
ATOM      9  C12 FSN d          20.520 -12.250  18.070  0.00  0.00     0.085 C 
ATOM     10  C13 FSN d          20.137 -11.645  16.681  0.00  0.00    -0.040 C 
ATOM     11  C14 FSN d          18.689 -12.117  16.483  0.00  0.00    -0.036 C 
ATOM     12  C10 FSN d          18.854 -13.341  19.539  0.00  0.00     0.142 C 
ATOM     13  C22 FSN d          17.342 -13.240  19.617  0.00  0.00     0.069 C 
ATOM     14  H7  FSN d          16.378 -13.136  17.590  0.00  0.00     0.059 H 
ATOM     15  H8  FSN d          17.986 -10.884  17.860  0.00  0.00     0.086 H 
ATOM     16  H9  FSN d          19.402 -11.248  19.565  0.00  0.00     0.281 HD
ATOM     17  H10 FSN d          20.734 -13.325  17.979  0.00  0.00     0.076 H 
ATOM     18  H11 FSN d          21.398 -11.735  18.488  0.00  0.00     0.076 H 
ATOM     19  H12 FSN d          20.791 -12.035  15.887  0.00  0.00     0.035 H 
ATOM     20  H13 FSN d          20.195 -10.547  16.699  0.00  0.00     0.035 H 
ATOM     21  H14 FSN d          18.138 -11.475  15.780  0.00  0.00     0.036 H 
ATOM     22  H15 FSN d          18.638 -13.163  16.143  0.00  0.00     0.036 H 
ATOM     23  H16 FSN d          19.054 -14.112  18.781  0.00  0.00     0.093 H 
ATOM     24  H25 FSN d          16.913 -14.251  19.678  0.00  0.00     0.059 H 
ENDROOT
BRANCH  12  25
ATOM     25  C7  FSN d          19.621 -13.828  20.732  0.00  0.00    -0.027 A 
ATOM     26  C8  FSN d          20.599 -12.992  21.261  0.00  0.00    -0.074 A 
ATOM     27  C9  FSN d          21.294 -13.371  22.402  0.00  0.00    -0.069 A 
ATOM     28  H17 FSN d          20.819 -12.045  20.782  0.00  0.00     0.084 H 
ATOM     29  C4  FSN d          20.989 -14.622  23.006  0.00  0.00     0.007 A 
ATOM     30  H18 FSN d          22.054 -12.725  22.825  0.00  0.00     0.085 H 
ATOM     31  C5  FSN d          20.003 -15.464  22.480  0.00  0.00    -0.069 A 
ATOM     32  C6  FSN d          19.305 -15.071  21.334  0.00  0.00    -0.074 A 
ATOM     33  H19 FSN d          19.782 -16.412  22.958  0.00  0.00     0.085 H 
ATOM     34  H20 FSN d          18.536 -15.708  20.912  0.00  0.00     0.084 H 
BRANCH  29  35
ATOM     35  C3  FSN d          21.739 -15.007  24.191  0.00  0.00     0.102 C 
ATOM     36  N2  FSN d          23.087 -15.164  24.188  0.00  0.00    -0.385 N 
ATOM     37  H23 FSN d          23.621 -15.004  23.322  0.00  0.00     0.157 HD
ATOM     38  H24 FSN d          23.575 -15.442  25.050  0.00  0.00     0.157 HD
BRANCH  35  39
ATOM     39  N1  FSN d          21.125 -15.239  25.380  0.00  0.00    -0.385 N 
ATOM     40  H21 FSN d          21.052 -16.201  25.743  0.00  0.00     0.157 HD
ATOM     41  H22 FSN d          20.732 -14.455  25.919  0.00  0.00     0.157 HD
ENDBRANCH  35  39
ENDBRANCH  29  35
ENDBRANCH  12  25
BRANCH   3  42
ATOM     42  C23 FSN d          15.355 -10.423  21.105  0.00  0.00     0.029 C 
ATOM     43  H1  FSN d          15.173  -9.505  20.526  0.00  0.00     0.072 H 
ATOM     44  H2  FSN d          16.055 -10.206  21.925  0.00  0.00     0.072 H 
BRANCH  42  45
ATOM     45  C24 FSN d          14.054 -10.916  21.678  0.00  0.00    -0.040 A 
ATOM     46  C32 FSN d          13.269 -10.035  22.447  0.00  0.00    -0.072 A 
ATOM     47  C31 FSN d          12.046 -10.477  22.952  0.00  0.00    -0.045 A 
ATOM     48  H3  FSN d          13.610  -9.026  22.645  0.00  0.00     0.084 H 
ATOM     49  C30 FSN d          11.649 -11.792  22.674  0.00  0.00     0.116 A 
ATOM     50  H4  FSN d          11.420  -9.821  23.544  0.00  0.00     0.088 H 
ATOM     51  F29 FSN d          10.452 -12.149  23.171  0.00  0.00    -0.206 F 
ATOM     52  C26 FSN d          12.398 -12.712  21.926  0.00  0.00    -0.045 A 
ATOM     53  C25 FSN d          13.639 -12.245  21.422  0.00  0.00    -0.072 A 
ATOM     54  H5  FSN d          12.049 -13.721  21.744  0.00  0.00     0.088 H 
ATOM     55  H6  FSN d          14.269 -12.907  20.839  0.00  0.00     0.084 H 
ENDBRANCH  42  45
ENDBRANCH   3  42
TORSDOF 5
ENDMDL
MODEL 4
REMARK VINA RESULT:      -8.0      1.745      2.492
REMARK  5 active torsions:
REMARK  status: ('A' for Active; 'I' for Inactive)
REMARK    1  A    between atoms: N19_3  and  C23_4 
REMARK    2  A    between atoms: C23_4  and  C24_5 
REMARK    3  A    between atoms: C10_20  and  C7_21 
REMARK    4  A    between atoms: C4_24  and  C3_27 
REMARK    5  A    between atoms: C3_27  and  N1_28 
ROOT
ATOM      1  O21 FSN d          16.583 -10.965  21.276  0.00  0.00    -0.272 OA
ATOM      2  C20 FSN d          16.891 -11.273  20.139  0.00  0.00     0.234 C 
ATOM      3  N19 FSN d          18.211 -11.628  19.783  0.00  0.00    -0.283 N 
ATOM      4  C17 FSN d          18.251 -12.130  18.450  0.00  0.00     0.233 C 
ATOM      5  O18 FSN d          19.259 -12.501  17.871  0.00  0.00    -0.272 OA
ATOM      6  C16 FSN d          16.895 -12.133  17.908  0.00  0.00     0.066 C 
ATOM      7  C15 FSN d          16.176 -13.481  17.929  0.00  0.00     0.117 C 
ATOM      8  N11 FSN d          15.239 -13.687  19.129  0.00  0.00    -0.057 N 
ATOM      9  C12 FSN d          14.184 -14.551  18.528  0.00  0.00     0.085 C 
ATOM     10  C13 FSN d          14.898 -15.288  17.349  0.00  0.00    -0.040 C 
ATOM     11  C14 FSN d          15.741 -14.177  16.704  0.00  0.00    -0.036 C 
ATOM     12  C10 FSN d          14.764 -12.237  19.184  0.00  0.00     0.142 C 
ATOM     13  C22 FSN d          16.007 -11.395  18.960  0.00  0.00     0.069 C 
ATOM     14  H7  FSN d          16.881 -11.675  16.908  0.00  0.00     0.059 H 
ATOM     15  H8  FSN d          17.021 -14.127  18.210  0.00  0.00     0.086 H 
ATOM     16  H9  FSN d          15.640 -14.048  19.980  0.00  0.00     0.281 HD
ATOM     17  H10 FSN d          13.348 -13.941  18.154  0.00  0.00     0.076 H 
ATOM     18  H11 FSN d          13.808 -15.276  19.266  0.00  0.00     0.076 H 
ATOM     19  H12 FSN d          14.166 -15.693  16.635  0.00  0.00     0.035 H 
ATOM     20  H13 FSN d          15.537 -16.102  17.721  0.00  0.00     0.035 H 
ATOM     21  H14 FSN d          16.591 -14.581  16.135  0.00  0.00     0.036 H 
ATOM     22  H15 FSN d          15.138 -13.527  16.052  0.00  0.00     0.036 H 
ATOM     23  H16 FSN d          14.148 -12.089  18.285  0.00  0.00     0.093 H 
ATOM     24  H25 FSN d          15.710 -10.397  18.607  0.00  0.00     0.059 H 
ENDROOT
BRANCH  12  25
ATOM     25  C7  FSN d          13.829 -11.884  20.301  0.00  0.00    -0.027 A 
ATOM     26  C8  FSN d          13.678 -12.802  21.336  0.00  0.00    -0.074 A 
ATOM     27  C9  FSN d          12.871 -12.495  22.424  0.00  0.00    -0.069 A 
ATOM     28  H17 FSN d          14.190 -13.756  21.293  0.00  0.00     0.084 H 
ATOM     29  C4  FSN d          12.206 -11.238  22.451  0.00  0.00     0.007 A 
ATOM     30  H18 FSN d          12.751 -13.201  23.237  0.00  0.00     0.085 H 
ATOM     31  C5  FSN d          12.358 -10.310  21.415  0.00  0.00    -0.069 A 
ATOM     32  C6  FSN d          13.177 -10.626  20.326  0.00  0.00    -0.074 A 
ATOM     33  H19 FSN d          11.847  -9.356  21.456  0.00  0.00     0.085 H 
ATOM     34  H20 FSN d          13.311  -9.921  19.514  0.00  0.00     0.084 H 
BRANCH  29  35
ATOM     35  C3  FSN d          11.353 -10.944  23.592  0.00  0.00     0.102 C 
ATOM     36  N2  FSN d          11.099  -9.678  24.010  0.00  0.00    -0.385 N 
ATOM     37  H23 FSN d          11.511  -8.878  23.510  0.00  0.00     0.157 HD
ATOM     38  H24 FSN d          10.492  -9.517  24.827  0.00  0.00     0.157 HD
BRANCH  35  39
ATOM     39  N1  FSN d          10.763 -11.929  24.315  0.00  0.00    -0.385 N 
ATOM     40  H21 FSN d          10.936 -11.999  25.328  0.00  0.00     0.157 HD
ATOM     41  H22 FSN d          10.143 -12.608  23.851  0.00  0.00     0.157 HD
ENDBRANCH  35  39
ENDBRANCH  29  35
ENDBRANCH  12  25
BRANCH   3  42
ATOM     42  C23 FSN d          19.275 -11.686  20.785  0.00  0.00     0.029 C 
ATOM     43  H1  FSN d          19.367 -10.704  21.275  0.00  0.00     0.072 H 
ATOM     44  H2  FSN d          20.225 -11.940  20.293  0.00  0.00     0.072 H 
BRANCH  42  45
ATOM     45  C24 FSN d          18.954 -12.729  21.820  0.00  0.00    -0.040 A 
ATOM     46  C32 FSN d          19.623 -12.693  23.058  0.00  0.00    -0.072 A 
ATOM     47  C31 FSN d          19.304 -13.638  24.033  0.00  0.00    -0.045 A 
ATOM     48  H3  FSN d          20.377 -11.939  23.252  0.00  0.00     0.084 H 
ATOM     49  C30 FSN d          18.326 -14.595  23.735  0.00  0.00     0.116 A 
ATOM     50  H4  FSN d          19.801 -13.631  24.996  0.00  0.00     0.088 H 
ATOM     51  F29 FSN d          18.050 -15.464  24.724  0.00  0.00    -0.206 F 
ATOM     52  C26 FSN d          17.641 -14.684  22.515  0.00  0.00    -0.045 A 
ATOM     53  C25 FSN d          17.978 -13.716  21.535  0.00  0.00    -0.072 A 
ATOM     54  H5  FSN d          16.896 -15.449  22.331  0.00  0.00     0.088 H 
ATOM     55  H6  FSN d          17.489 -13.731  20.568  0.00  0.00     0.084 H 
ENDBRANCH  42  45
ENDBRANCH   3  42
TORSDOF 5
ENDMDL
