MODEL 1
REMARK VINA RESULT:      -9.1      0.000      0.000
REMARK  9 active torsions:
REMARK  status: ('A' for Active; 'I' for Inactive)
REMARK       I    between atoms: N7_8  and  C9_9 
REMARK    1  A    between atoms: C9_9  and  C11_11 
REMARK    2  A    between atoms: C12_12  and  N19_20 
REMARK    3  A    between atoms: C13_13  and  O17_18 
REMARK    4  A    between atoms: O17_18  and  C18_19 
REMARK       I    between atoms: N19_20  and  C20_21 
REMARK    5  A    between atoms: C20_21  and  C22_23 
REMARK    6  A    between atoms: C25_26  and  C28_29 
REMARK    7  A    between atoms: C28_29  and  N29_30 
REMARK    8  A    between atoms: N29_30  and  C31_31 
REMARK    9  A    between atoms: N29_30  and  C32_32 
ROOT
ATOM      1  C11 XLD d           5.738   8.088  24.219  0.00  0.00     0.063 A 
ATOM      2  C12 XLD d           4.900   7.091  23.568  0.00  0.00     0.084 A 
ATOM      3  C13 XLD d           3.478   7.226  23.611  0.00  0.00     0.097 A 
ATOM      4  C14 XLD d           2.899   8.328  24.295  0.00  0.00    -0.028 A 
ATOM      5  C15 XLD d           3.720   9.287  24.932  0.00  0.00     0.037 A 
ATOM      6 CL2  XLD d           3.065  10.604  25.753  0.00  0.00    -0.084 Cl
ATOM      7  C16 XLD d           5.104   9.160  24.882  0.00  0.00    -0.044 A 
ATOM      8  H5  XLD d           1.821   8.435  24.329  0.00  0.00     0.090 H 
ATOM      9  H6  XLD d           5.717   9.911  25.368  0.00  0.00     0.087 H 
ENDROOT
BRANCH   2  10
ATOM     10  N19 XLD d           5.491   6.024  22.934  0.00  0.00    -0.319 N 
ATOM     11  C20 XLD d           5.677   5.868  21.589  0.00  0.00     0.264 C 
ATOM     12  O21 XLD d           5.253   6.785  20.835  0.00  0.00    -0.267 OA
ATOM     13  H10 XLD d           5.819   5.283  23.520  0.00  0.00     0.169 HD
BRANCH  11  14
ATOM     14  C22 XLD d           6.256   4.699  20.987  0.00  0.00     0.095 A 
ATOM     15  S23 XLD d           5.683   3.125  21.485  0.00  0.00    -0.094 SA
ATOM     16  C24 XLD d           6.807   2.378  20.428  0.00  0.00    -0.035 A 
ATOM     17  C25 XLD d           7.608   3.244  19.699  0.00  0.00    -0.011 A 
ATOM     18  H11 XLD d           6.888   1.296  20.335  0.00  0.00     0.096 H 
ATOM     19  C26 XLD d           7.285   4.584  20.011  0.00  0.00     0.065 A 
ATOM     20 CL3  XLD d           8.107   5.881  19.267  0.00  0.00    -0.082 Cl
BRANCH  17  21
ATOM     21  C28 XLD d           8.668   2.837  18.722  0.00  0.00     0.024 C 
ATOM     22  H12 XLD d           8.942   1.803  18.981  0.00  0.00     0.071 H 
ATOM     23  H13 XLD d           9.525   3.500  18.906  0.00  0.00     0.071 H 
BRANCH  21  24
ATOM     24  N29 XLD d           8.439   2.850  17.228  0.00  0.00    -0.346 N 
BRANCH  24  25
ATOM     25  C31 XLD d           9.140   1.821  16.410  0.00  0.00    -0.015 C 
ATOM     26  H14 XLD d           8.851   1.935  15.354  0.00  0.00     0.056 H 
ATOM     27  H15 XLD d           8.857   0.818  16.762  0.00  0.00     0.056 H 
ATOM     28  H16 XLD d          10.227   1.952  16.509  0.00  0.00     0.056 H 
ENDBRANCH  24  25
BRANCH  24  29
ATOM     29  C32 XLD d           7.077   3.027  16.877  0.00  0.00     0.239 A 
ATOM     30  N33 XLD d           6.558   4.200  16.446  0.00  0.00    -0.249 NA
ATOM     31  C34 XLD d           5.180   4.080  16.150  0.00  0.00     0.039 A 
ATOM     32  C35 XLD d           4.869   2.600  16.471  0.00  0.00     0.046 A 
ATOM     33  H17 XLD d           4.985   4.301  15.091  0.00  0.00     0.070 H 
ATOM     34  H18 XLD d           4.582   4.753  16.782  0.00  0.00     0.070 H 
ATOM     35  O36 XLD d           6.123   2.072  16.907  0.00  0.00    -0.319 OA
ATOM     36  H19 XLD d           4.513   2.071  15.575  0.00  0.00     0.077 H 
ATOM     37  H20 XLD d           4.114   2.522  17.267  0.00  0.00     0.077 H 
ENDBRANCH  24  29
ENDBRANCH  21  24
ENDBRANCH  17  21
ENDBRANCH  11  14
ENDBRANCH   2  10
BRANCH   1  38
ATOM     38  C9  XLD d           7.182   8.069  24.250  0.00  0.00     0.259 C 
ATOM     39  N7  XLD d           7.826   7.979  25.462  0.00  0.00    -0.307 N 
ATOM     40  C1  XLD d           9.168   7.985  25.718  0.00  0.00     0.130 A 
ATOM     41  H4  XLD d           7.233   7.898  26.262  0.00  0.00     0.170 HD
ATOM     42  N2  XLD d          10.062   8.612  24.889  0.00  0.00    -0.242 NA
ATOM     43  C6  XLD d           9.650   7.367  26.899  0.00  0.00    -0.037 A 
ATOM     44  C3  XLD d          11.378   8.648  25.113  0.00  0.00     0.025 A 
ATOM     45  C4  XLD d          11.925   8.023  26.261  0.00  0.00     0.051 A 
ATOM     46  H1  XLD d          12.030   9.158  24.413  0.00  0.00     0.117 H 
ATOM     47 CL1  XLD d          13.668   7.956  26.508  0.00  0.00    -0.083 Cl
ATOM     48  C5  XLD d          11.032   7.391  27.166  0.00  0.00    -0.057 A 
ATOM     49  H2  XLD d          11.415   6.925  28.067  0.00  0.00     0.086 H 
ATOM     50  H3  XLD d           8.965   6.884  27.585  0.00  0.00     0.089 H 
ATOM     51  O10 XLD d           7.836   8.162  23.175  0.00  0.00    -0.267 OA
ENDBRANCH   1  38
BRANCH   3  52
ATOM     52  O17 XLD d           2.719   6.280  22.989  0.00  0.00    -0.354 OA
BRANCH  52  53
ATOM     53  C18 XLD d           2.234   5.036  23.485  0.00  0.00     0.010 C 
ATOM     54  H7  XLD d           1.933   4.396  22.643  0.00  0.00     0.066 H 
ATOM     55  H8  XLD d           1.366   5.216  24.137  0.00  0.00     0.066 H 
ATOM     56  H9  XLD d           3.027   4.536  24.060  0.00  0.00     0.066 H 
ENDBRANCH  52  53
ENDBRANCH   3  52
TORSDOF 9
ENDMDL
MODEL 2
REMARK VINA RESULT:      -7.9      1.643      2.269
REMARK  9 active torsions:
REMARK  status: ('A' for Active; 'I' for Inactive)
REMARK       I    between atoms: N7_8  and  C9_9 
REMARK    1  A    between atoms: C9_9  and  C11_11 
REMARK    2  A    between atoms: C12_12  and  N19_20 
REMARK    3  A    between atoms: C13_13  and  O17_18 
REMARK    4  A    between atoms: O17_18  and  C18_19 
REMARK       I    between atoms: N19_20  and  C20_21 
REMARK    5  A    between atoms: C20_21  and  C22_23 
REMARK    6  A    between atoms: C25_26  and  C28_29 
REMARK    7  A    between atoms: C28_29  and  N29_30 
REMARK    8  A    between atoms: N29_30  and  C31_31 
REMARK    9  A    between atoms: N29_30  and  C32_32 
ROOT
ATOM      1  C11 XLD d           5.723   8.454  24.211  0.00  0.00     0.063 A 
ATOM      2  C12 XLD d           4.839   7.724  23.313  0.00  0.00     0.084 A 
ATOM      3  C13 XLD d           3.427   7.923  23.394  0.00  0.00     0.097 A 
ATOM      4  C14 XLD d           2.901   8.828  24.356  0.00  0.00    -0.028 A 
ATOM      5  C15 XLD d           3.767   9.527  25.229  0.00  0.00     0.037 A 
ATOM      6 CL2  XLD d           3.175  10.604  26.382  0.00  0.00    -0.084 Cl
ATOM      7  C16 XLD d           5.142   9.338  25.143  0.00  0.00    -0.044 A 
ATOM      8  H5  XLD d           1.831   8.984  24.421  0.00  0.00     0.090 H 
ATOM      9  H6  XLD d           5.789   9.890  25.815  0.00  0.00     0.087 H 
ENDROOT
BRANCH   2  10
ATOM     10  N19 XLD d           5.378   6.838  22.410  0.00  0.00    -0.319 N 
ATOM     11  C20 XLD d           5.638   7.070  21.088  0.00  0.00     0.264 C 
ATOM     12  O21 XLD d           5.345   8.208  20.630  0.00  0.00    -0.267 OA
ATOM     13  H10 XLD d           5.602   5.928  22.757  0.00  0.00     0.169 HD
BRANCH  11  14
ATOM     14  C22 XLD d           6.154   6.080  20.184  0.00  0.00     0.095 A 
ATOM     15  S23 XLD d           7.645   6.413  19.334  0.00  0.00    -0.094 SA
ATOM     16  C24 XLD d           7.525   4.905  18.527  0.00  0.00    -0.035 A 
ATOM     17  C25 XLD d           6.418   4.137  18.857  0.00  0.00    -0.011 A 
ATOM     18  H11 XLD d           8.268   4.572  17.804  0.00  0.00     0.096 H 
ATOM     19  C26 XLD d           5.631   4.808  19.820  0.00  0.00     0.065 A 
ATOM     20 CL3  XLD d           4.197   4.107  20.422  0.00  0.00    -0.082 Cl
BRANCH  17  21
ATOM     21  C28 XLD d           6.087   2.795  18.282  0.00  0.00     0.024 C 
ATOM     22  H12 XLD d           4.994   2.777  18.154  0.00  0.00     0.071 H 
ATOM     23  H13 XLD d           6.379   2.056  19.042  0.00  0.00     0.071 H 
BRANCH  21  24
ATOM     24  N29 XLD d           6.672   2.308  16.976  0.00  0.00    -0.346 N 
BRANCH  24  25
ATOM     25  C31 XLD d           6.513   3.179  15.778  0.00  0.00    -0.015 C 
ATOM     26  H14 XLD d           6.049   4.131  16.076  0.00  0.00     0.056 H 
ATOM     27  H15 XLD d           5.874   2.673  15.039  0.00  0.00     0.056 H 
ATOM     28  H16 XLD d           7.501   3.376  15.335  0.00  0.00     0.056 H 
ENDBRANCH  24  25
BRANCH  24  29
ATOM     29  C32 XLD d           7.973   1.766  17.118  0.00  0.00     0.239 A 
ATOM     30  N33 XLD d           8.682   1.801  18.271  0.00  0.00    -0.249 NA
ATOM     31  C34 XLD d           9.939   1.169  18.126  0.00  0.00     0.039 A 
ATOM     32  C35 XLD d           9.943   0.705  16.651  0.00  0.00     0.046 A 
ATOM     33  H17 XLD d          10.026   0.311  18.808  0.00  0.00     0.070 H 
ATOM     34  H18 XLD d          10.759   1.876  18.318  0.00  0.00     0.070 H 
ATOM     35  O36 XLD d           8.677   1.137  16.152  0.00  0.00    -0.319 OA
ATOM     36  H19 XLD d          10.037  -0.389  16.585  0.00  0.00     0.077 H 
ATOM     37  H20 XLD d          10.766   1.178  16.095  0.00  0.00     0.077 H 
ENDBRANCH  24  29
ENDBRANCH  21  24
ENDBRANCH  17  21
ENDBRANCH  11  14
ENDBRANCH   2  10
BRANCH   1  38
ATOM     38  C9  XLD d           7.163   8.343  24.232  0.00  0.00     0.259 C 
ATOM     39  N7  XLD d           7.810   8.229  25.441  0.00  0.00    -0.307 N 
ATOM     40  C1  XLD d           9.151   8.154  25.688  0.00  0.00     0.130 A 
ATOM     41  H4  XLD d           7.219   8.198  26.246  0.00  0.00     0.170 HD
ATOM     42  N2  XLD d          10.077   8.711  24.843  0.00  0.00    -0.242 NA
ATOM     43  C6  XLD d           9.602   7.523  26.874  0.00  0.00    -0.037 A 
ATOM     44  C3  XLD d          11.394   8.666  25.058  0.00  0.00     0.025 A 
ATOM     45  C4  XLD d          11.909   8.024  26.211  0.00  0.00     0.051 A 
ATOM     46  H1  XLD d          12.072   9.124  24.346  0.00  0.00     0.117 H 
ATOM     47 CL1  XLD d          13.646   7.850  26.447  0.00  0.00    -0.083 Cl
ATOM     48  C5  XLD d          10.984   7.463  27.132  0.00  0.00    -0.057 A 
ATOM     49  H2  XLD d          11.344   6.986  28.036  0.00  0.00     0.086 H 
ATOM     50  H3  XLD d           8.893   7.094  27.572  0.00  0.00     0.089 H 
ATOM     51  O10 XLD d           7.813   8.379  23.152  0.00  0.00    -0.267 OA
ENDBRANCH   1  38
BRANCH   3  52
ATOM     52  O17 XLD d           2.624   7.229  22.538  0.00  0.00    -0.354 OA
BRANCH  52  53
ATOM     53  C18 XLD d           1.877   7.695  21.419  0.00  0.00     0.010 C 
ATOM     54  H7  XLD d           1.350   8.622  21.689  0.00  0.00     0.066 H 
ATOM     55  H8  XLD d           1.144   6.929  21.124  0.00  0.00     0.066 H 
ATOM     56  H9  XLD d           2.559   7.893  20.579  0.00  0.00     0.066 H 
ENDBRANCH  52  53
ENDBRANCH   3  52
TORSDOF 9
ENDMDL
