MODEL 1
REMARK VINA RESULT:      -5.9      0.000      0.000
REMARK  5 active torsions:
REMARK  status: ('A' for Active; 'I' for Inactive)
REMARK    1  A    between atoms: N_1  and  CA_2 
REMARK    2  A    between atoms: CA_2  and  C_3 
REMARK    3  A    between atoms: CA_2  and  CB_6 
REMARK    4  A    between atoms: CB_6  and  CG_7 
REMARK    5  A    between atoms: CD2_9  and  CE2_10 
ROOT
ATOM      1  CB  MOL d          46.506  24.898  41.128  0.00  0.00     0.002 C 
ATOM      2  H5  MOL d          47.463  24.969  40.591  0.00  0.00     0.044 H 
ATOM      3  H6  MOL d          46.390  23.884  41.539  0.00  0.00     0.044 H 
ENDROOT
BRANCH   1   4
ATOM      4  CA  MOL d          45.359  25.149  40.117  0.00  0.00     0.186 C 
ATOM      5  H4  MOL d          44.601  25.787  40.595  0.00  0.00     0.101 H 
BRANCH   4   6
ATOM      6  N   MOL d          44.736  23.846  39.726  0.00  0.00    -0.065 N 
ATOM      7  H1  MOL d          45.026  23.128  40.370  0.00  0.00     0.275 HD
ATOM      8  H2  MOL d          45.030  23.599  38.794  0.00  0.00     0.275 HD
ATOM      9  H3  MOL d          43.732  23.932  39.750  0.00  0.00     0.275 HD
ENDBRANCH   4   6
BRANCH   4  10
ATOM     10  C   MOL d          45.881  25.862  38.812  0.00  0.00     0.204 C 
ATOM     11  OT1 MOL d          45.968  25.167  37.763  0.00  0.00    -0.646 OA
ATOM     12  OT2 MOL d          46.242  27.069  38.920  0.00  0.00    -0.646 OA
ENDBRANCH   4  10
ENDBRANCH   1   4
BRANCH   1  13
ATOM     13  CG  MOL d          46.529  25.873  42.271  0.00  0.00     0.031 A 
ATOM     14  CD1 MOL d          47.367  25.866  43.419  0.00  0.00     0.207 A 
ATOM     15  OE1 MOL d          48.170  24.809  43.565  0.00  0.00    -0.170 OA
ATOM     16  NE1 MOL d          47.286  26.858  44.257  0.00  0.00    -0.236 N 
ATOM     17  OE2 MOL d          46.260  27.661  43.631  0.00  0.00    -0.240 OA
ATOM     18  H10 MOL d          47.794  27.020  45.103  0.00  0.00     0.197 HD
ATOM     19  CD2 MOL d          45.853  27.036  42.472  0.00  0.00     0.083 A 
BRANCH  19  20
ATOM     20  CE2 MOL d          44.737  27.691  41.742  0.00  0.00    -0.029 C 
ATOM     21  H7  MOL d          44.954  27.691  40.663  0.00  0.00     0.036 H 
ATOM     22  H8  MOL d          44.626  28.727  42.094  0.00  0.00     0.036 H 
ATOM     23  H9  MOL d          43.803  27.139  41.927  0.00  0.00     0.036 H 
ENDBRANCH  19  20
ENDBRANCH   1  13
TORSDOF 5
ENDMDL
MODEL 2
REMARK VINA RESULT:      -5.8      1.544      1.851
REMARK  5 active torsions:
REMARK  status: ('A' for Active; 'I' for Inactive)
REMARK    1  A    between atoms: N_1  and  CA_2 
REMARK    2  A    between atoms: CA_2  and  C_3 
REMARK    3  A    between atoms: CA_2  and  CB_6 
REMARK    4  A    between atoms: CB_6  and  CG_7 
REMARK    5  A    between atoms: CD2_9  and  CE2_10 
ROOT
ATOM      1  CB  MOL d          44.966  25.217  40.615  0.00  0.00     0.002 C 
ATOM      2  H5  MOL d          44.739  24.141  40.648  0.00  0.00     0.044 H 
ATOM      3  H6  MOL d          44.059  25.790  40.859  0.00  0.00     0.044 H 
ENDROOT
BRANCH   1   4
ATOM      4  CA  MOL d          45.402  25.581  39.174  0.00  0.00     0.186 C 
ATOM      5  H4  MOL d          44.625  25.242  38.473  0.00  0.00     0.101 H 
BRANCH   4   6
ATOM      6  N   MOL d          46.696  24.900  38.850  0.00  0.00    -0.065 N 
ATOM      7  H1  MOL d          46.572  23.901  38.904  0.00  0.00     0.275 HD
ATOM      8  H2  MOL d          47.401  25.187  39.511  0.00  0.00     0.275 HD
ATOM      9  H3  MOL d          46.984  25.153  37.918  0.00  0.00     0.275 HD
ENDBRANCH   4   6
BRANCH   4  10
ATOM     10  C   MOL d          45.603  27.135  39.004  0.00  0.00     0.204 C 
ATOM     11  OT1 MOL d          44.736  27.895  39.515  0.00  0.00    -0.646 OA
ATOM     12  OT2 MOL d          46.587  27.515  38.307  0.00  0.00    -0.646 OA
ENDBRANCH   4  10
ENDBRANCH   1   4
BRANCH   1  13
ATOM     13  CG  MOL d          46.009  25.513  41.655  0.00  0.00     0.031 A 
ATOM     14  CD1 MOL d          47.137  24.729  42.022  0.00  0.00     0.207 A 
ATOM     15  OE1 MOL d          47.238  23.527  41.451  0.00  0.00    -0.170 OA
ATOM     16  NE1 MOL d          47.973  25.209  42.894  0.00  0.00    -0.236 N 
ATOM     17  OE2 MOL d          47.360  26.484  43.188  0.00  0.00    -0.240 OA
ATOM     18  H10 MOL d          48.811  24.806  43.262  0.00  0.00     0.197 HD
ATOM     19  CD2 MOL d          46.213  26.610  42.435  0.00  0.00     0.083 A 
BRANCH  19  20
ATOM     20  CE2 MOL d          45.410  27.836  42.677  0.00  0.00    -0.029 C 
ATOM     21  H7  MOL d          45.744  28.633  41.996  0.00  0.00     0.036 H 
ATOM     22  H8  MOL d          45.545  28.162  43.719  0.00  0.00     0.036 H 
ATOM     23  H9  MOL d          44.347  27.620  42.494  0.00  0.00     0.036 H 
ENDBRANCH  19  20
ENDBRANCH   1  13
TORSDOF 5
ENDMDL
MODEL 3
REMARK VINA RESULT:      -5.7      1.025      2.414
REMARK  5 active torsions:
REMARK  status: ('A' for Active; 'I' for Inactive)
REMARK    1  A    between atoms: N_1  and  CA_2 
REMARK    2  A    between atoms: CA_2  and  C_3 
REMARK    3  A    between atoms: CA_2  and  CB_6 
REMARK    4  A    between atoms: CB_6  and  CG_7 
REMARK    5  A    between atoms: CD2_9  and  CE2_10 
ROOT
ATOM      1  CB  MOL d          44.736  25.731  41.093  0.00  0.00     0.002 C 
ATOM      2  H5  MOL d          44.092  24.977  41.571  0.00  0.00     0.044 H 
ATOM      3  H6  MOL d          44.285  26.727  41.215  0.00  0.00     0.044 H 
ENDROOT
BRANCH   1   4
ATOM      4  CA  MOL d          44.820  25.413  39.579  0.00  0.00     0.186 C 
ATOM      5  H4  MOL d          43.922  25.812  39.084  0.00  0.00     0.101 H 
BRANCH   4   6
ATOM      6  N   MOL d          44.883  23.931  39.376  0.00  0.00    -0.065 N 
ATOM      7  H1  MOL d          44.191  23.484  39.957  0.00  0.00     0.275 HD
ATOM      8  H2  MOL d          45.800  23.596  39.628  0.00  0.00     0.275 HD
ATOM      9  H3  MOL d          44.699  23.717  38.409  0.00  0.00     0.275 HD
ENDBRANCH   4   6
BRANCH   4  10
ATOM     10  C   MOL d          46.098  26.059  38.921  0.00  0.00     0.204 C 
ATOM     11  OT1 MOL d          46.286  27.294  39.100  0.00  0.00    -0.646 OA
ATOM     12  OT2 MOL d          46.816  25.309  38.200  0.00  0.00    -0.646 OA
ENDBRANCH   4  10
ENDBRANCH   1   4
BRANCH   1  13
ATOM     13  CG  MOL d          46.069  25.725  41.787  0.00  0.00     0.031 A 
ATOM     14  CD1 MOL d          46.646  26.740  42.597  0.00  0.00     0.207 A 
ATOM     15  OE1 MOL d          45.976  27.892  42.677  0.00  0.00    -0.170 OA
ATOM     16  NE1 MOL d          47.784  26.501  43.181  0.00  0.00    -0.236 N 
ATOM     17  OE2 MOL d          48.049  25.156  42.722  0.00  0.00    -0.240 OA
ATOM     18  H10 MOL d          48.327  27.088  43.781  0.00  0.00     0.197 HD
ATOM     19  CD2 MOL d          47.012  24.752  41.909  0.00  0.00     0.083 A 
BRANCH  19  20
ATOM     20  CE2 MOL d          47.166  23.414  41.281  0.00  0.00    -0.029 C 
ATOM     21  H7  MOL d          46.838  23.461  40.233  0.00  0.00     0.036 H 
ATOM     22  H8  MOL d          46.552  22.681  41.825  0.00  0.00     0.036 H 
ATOM     23  H9  MOL d          48.222  23.109  41.322  0.00  0.00     0.036 H 
ENDBRANCH  19  20
ENDBRANCH   1  13
TORSDOF 5
ENDMDL
MODEL 4
REMARK VINA RESULT:      -5.0      1.627      4.923
REMARK  5 active torsions:
REMARK  status: ('A' for Active; 'I' for Inactive)
REMARK    1  A    between atoms: N_1  and  CA_2 
REMARK    2  A    between atoms: CA_2  and  C_3 
REMARK    3  A    between atoms: CA_2  and  CB_6 
REMARK    4  A    between atoms: CB_6  and  CG_7 
REMARK    5  A    between atoms: CD2_9  and  CE2_10 
ROOT
ATOM      1  CB  MOL d          44.935  26.488  41.763  0.00  0.00     0.002 C 
ATOM      2  H5  MOL d          43.990  27.017  41.570  0.00  0.00     0.044 H 
ATOM      3  H6  MOL d          44.740  25.611  42.399  0.00  0.00     0.044 H 
ENDROOT
BRANCH   1   4
ATOM      4  CA  MOL d          45.885  27.444  42.527  0.00  0.00     0.186 C 
ATOM      5  H4  MOL d          45.309  28.318  42.866  0.00  0.00     0.101 H 
BRANCH   4   6
ATOM      6  N   MOL d          46.985  27.896  41.617  0.00  0.00    -0.065 N 
ATOM      7  H1  MOL d          47.050  27.268  40.831  0.00  0.00     0.275 HD
ATOM      8  H2  MOL d          47.858  27.897  42.119  0.00  0.00     0.275 HD
ATOM      9  H3  MOL d          46.786  28.827  41.286  0.00  0.00     0.275 HD
ENDBRANCH   4   6
BRANCH   4  10
ATOM     10  C   MOL d          46.534  26.740  43.778  0.00  0.00     0.204 C 
ATOM     11  OT1 MOL d          46.575  27.391  44.858  0.00  0.00    -0.646 OA
ATOM     12  OT2 MOL d          47.032  25.592  43.599  0.00  0.00    -0.646 OA
ENDBRANCH   4  10
ENDBRANCH   1   4
BRANCH   1  13
ATOM     13  CG  MOL d          45.487  26.008  40.450  0.00  0.00     0.031 A 
ATOM     14  CD1 MOL d          45.443  26.656  39.186  0.00  0.00     0.207 A 
ATOM     15  OE1 MOL d          44.736  27.786  39.119  0.00  0.00    -0.170 OA
ATOM     16  NE1 MOL d          46.062  26.107  38.181  0.00  0.00    -0.236 N 
ATOM     17  OE2 MOL d          46.602  24.922  38.809  0.00  0.00    -0.240 OA
ATOM     18  H10 MOL d          46.141  26.419  37.235  0.00  0.00     0.197 HD
ATOM     19  CD2 MOL d          46.235  24.915  40.137  0.00  0.00     0.083 A 
BRANCH  19  20
ATOM     20  CE2 MOL d          46.642  23.717  40.915  0.00  0.00    -0.029 C 
ATOM     21  H7  MOL d          46.321  23.833  41.960  0.00  0.00     0.036 H 
ATOM     22  H8  MOL d          47.736  23.609  40.876  0.00  0.00     0.036 H 
ATOM     23  H9  MOL d          46.169  22.822  40.484  0.00  0.00     0.036 H 
ENDBRANCH  19  20
ENDBRANCH   1  13
TORSDOF 5
ENDMDL
MODEL 5
REMARK VINA RESULT:      -2.9      1.851      4.614
REMARK  5 active torsions:
REMARK  status: ('A' for Active; 'I' for Inactive)
REMARK    1  A    between atoms: N_1  and  CA_2 
REMARK    2  A    between atoms: CA_2  and  C_3 
REMARK    3  A    between atoms: CA_2  and  CB_6 
REMARK    4  A    between atoms: CB_6  and  CG_7 
REMARK    5  A    between atoms: CD2_9  and  CE2_10 
ROOT
ATOM      1  CB  MOL d          46.257  25.116  42.510  0.00  0.00     0.002 C 
ATOM      2  H5  MOL d          45.557  25.114  43.359  0.00  0.00     0.044 H 
ATOM      3  H6  MOL d          46.446  24.080  42.188  0.00  0.00     0.044 H 
ENDROOT
BRANCH   1   4
ATOM      4  CA  MOL d          47.597  25.733  42.981  0.00  0.00     0.186 C 
ATOM      5  H4  MOL d          47.876  26.541  42.290  0.00  0.00     0.101 H 
BRANCH   4   6
ATOM      6  N   MOL d          48.666  24.684  42.977  0.00  0.00    -0.065 N 
ATOM      7  H1  MOL d          48.288  23.822  42.617  0.00  0.00     0.275 HD
ATOM      8  H2  MOL d          48.998  24.538  43.917  0.00  0.00     0.275 HD
ATOM      9  H3  MOL d          49.430  24.986  42.393  0.00  0.00     0.275 HD
ENDBRANCH   4   6
BRANCH   4  10
ATOM     10  C   MOL d          47.485  26.321  44.439  0.00  0.00     0.204 C 
ATOM     11  OT1 MOL d          48.383  26.006  45.267  0.00  0.00    -0.646 OA
ATOM     12  OT2 MOL d          46.463  27.017  44.702  0.00  0.00    -0.646 OA
ENDBRANCH   4  10
ENDBRANCH   1   4
BRANCH   1  13
ATOM     13  CG  MOL d          45.618  25.857  41.370  0.00  0.00     0.031 A 
ATOM     14  CD1 MOL d          45.190  27.212  41.328  0.00  0.00     0.207 A 
ATOM     15  OE1 MOL d          45.264  27.896  42.473  0.00  0.00    -0.170 OA
ATOM     16  NE1 MOL d          44.735  27.689  40.207  0.00  0.00    -0.236 N 
ATOM     17  OE2 MOL d          44.848  26.529  39.352  0.00  0.00    -0.240 OA
ATOM     18  H10 MOL d          44.400  28.607  39.995  0.00  0.00     0.197 HD
ATOM     19  CD2 MOL d          45.369  25.486  40.085  0.00  0.00     0.083 A 
BRANCH  19  20
ATOM     20  CE2 MOL d          45.475  24.185  39.374  0.00  0.00    -0.029 C 
ATOM     21  H7  MOL d          44.881  23.428  39.907  0.00  0.00     0.036 H 
ATOM     22  H8  MOL d          46.528  23.869  39.342  0.00  0.00     0.036 H 
ATOM     23  H9  MOL d          45.093  24.295  38.349  0.00  0.00     0.036 H 
ENDBRANCH  19  20
ENDBRANCH   1  13
TORSDOF 5
ENDMDL
