MODEL 1
REMARK VINA RESULT:      -9.9      0.000      0.000
REMARK  7 active torsions:
REMARK  status: ('A' for Active; 'I' for Inactive)
REMARK    1  A    between atoms: C8_9  and  C4_10 
REMARK    2  A    between atoms: C1_11  and  C7_12 
REMARK    3  A    between atoms: C2_16  and  C6_18 
REMARK    4  A    between atoms: C14_20  and  C26_21 
REMARK    5  A    between atoms: C26_21  and  C27_22 
REMARK    6  A    between atoms: C13_23  and  O25_24 
REMARK    7  A    between atoms: C9_26  and  O24_27 
ROOT
ATOM      1  C4  MOL d           0.098  34.482  -4.977  0.00  0.00     0.041 A 
ATOM      2  C1  MOL d           0.035  34.530  -6.363  0.00  0.00     0.140 A 
ATOM      3  N5  MOL d          -0.664  33.473  -6.776  0.00  0.00    -0.270 N 
ATOM      4  C2  MOL d          -0.595  33.322  -4.648  0.00  0.00     0.103 A 
ATOM      5  N3  MOL d          -1.019  32.798  -5.802  0.00  0.00    -0.173 NA
ATOM      6  H6  MOL d          -0.876  33.251  -7.759  0.00  0.00     0.189 HD
ENDROOT
BRANCH   4   7
ATOM      7  C6  MOL d          -0.663  32.776  -3.366  0.00  0.00     0.029 A 
ATOM      8  C10 MOL d           0.492  32.424  -2.665  0.00  0.00    -0.059 A 
ATOM      9  C14 MOL d           0.422  31.942  -1.360  0.00  0.00    -0.024 A 
ATOM     10  H7  MOL d           1.458  32.526  -3.145  0.00  0.00     0.086 H 
ATOM     11  C13 MOL d          -0.814  31.840  -0.730  0.00  0.00     0.074 A 
ATOM     12  C11 MOL d          -1.975  32.159  -1.429  0.00  0.00    -0.018 A 
ATOM     13  C9  MOL d          -1.897  32.616  -2.745  0.00  0.00     0.081 A 
ATOM     14  H14 MOL d          -2.942  32.052  -0.951  0.00  0.00     0.092 H 
BRANCH   9  15
ATOM     15  C26 MOL d           1.698  31.434  -0.684  0.00  0.00    -0.042 C 
ATOM     16  H8  MOL d           1.566  31.460   0.409  0.00  0.00     0.039 H 
ATOM     17  H9  MOL d           2.542  32.079  -0.967  0.00  0.00     0.039 H 
BRANCH  15  18
ATOM     18  C27 MOL d           1.989  29.996  -1.125  0.00  0.00    -0.073 C 
ATOM     19  H10 MOL d           2.907  29.640  -0.635  0.00  0.00     0.028 H 
ATOM     20  H11 MOL d           2.123  29.968  -2.217  0.00  0.00     0.028 H 
ATOM     21  H12 MOL d           1.147  29.347  -0.842  0.00  0.00     0.028 H 
ENDBRANCH  15  18
ENDBRANCH   9  15
BRANCH  11  22
ATOM     22  O25 MOL d          -0.853  31.589   0.610  0.00  0.00    -0.360 OA
ATOM     23  H13 MOL d          -1.757  31.547   0.897  0.00  0.00     0.217 HD
ENDBRANCH  11  22
BRANCH  13  24
ATOM     24  O24 MOL d          -3.032  32.898  -3.434  0.00  0.00    -0.360 OA
ATOM     25  H15 MOL d          -2.806  33.195  -4.308  0.00  0.00     0.217 HD
ENDBRANCH  13  24
ENDBRANCH   4   7
BRANCH   1  26
ATOM     26  C8  MOL d           0.682  35.395  -4.099  0.00  0.00    -0.018 A 
ATOM     27  C15 MOL d           2.035  35.267  -3.800  0.00  0.00    -0.037 A 
ATOM     28  C12 MOL d           2.604  36.137  -2.877  0.00  0.00     0.105 A 
ATOM     29  H1  MOL d           2.635  34.501  -4.279  0.00  0.00     0.089 H 
ATOM     30  O17 MOL d           3.878  36.229  -2.392  0.00  0.00    -0.323 OA
ATOM     31  C16 MOL d           1.835  37.130  -2.271  0.00  0.00     0.105 A 
ATOM     32  C19 MOL d           3.897  37.280  -1.507  0.00  0.00     0.115 A 
ATOM     33  O18 MOL d           2.646  37.838  -1.430  0.00  0.00    -0.323 OA
ATOM     34  H2  MOL d           4.615  38.038  -1.854  0.00  0.00     0.118 H 
ATOM     35  H3  MOL d           4.199  36.916  -0.513  0.00  0.00     0.118 H 
ATOM     36  C22 MOL d           0.483  37.268  -2.570  0.00  0.00    -0.047 A 
ATOM     37  C20 MOL d          -0.083  36.388  -3.488  0.00  0.00    -0.069 A 
ATOM     38  H4  MOL d          -0.114  38.041  -2.100  0.00  0.00     0.087 H 
ATOM     39  H5  MOL d          -1.136  36.477  -3.732  0.00  0.00     0.085 H 
ENDBRANCH   1  26
BRANCH   2  40
ATOM     40  C7  MOL d           0.588  35.603  -7.303  0.00  0.00     0.229 C 
ATOM     41  O21 MOL d           0.924  35.268  -8.438  0.00  0.00    -0.643 OA
ATOM     42  O23 MOL d           0.699  36.775  -6.939  0.00  0.00    -0.643 OA
ENDBRANCH   2  40
TORSDOF 7
ENDMDL
