MODEL 1
REMARK VINA RESULT:      -9.8      0.000      0.000
REMARK  7 active torsions:
REMARK  status: ('A' for Active; 'I' for Inactive)
REMARK    1  A    between atoms: C8_9  and  C4_10 
REMARK    2  A    between atoms: C1_11  and  C7_12 
REMARK    3  A    between atoms: C2_16  and  C6_18 
REMARK    4  A    between atoms: C14_20  and  C26_21 
REMARK    5  A    between atoms: C26_21  and  C27_22 
REMARK    6  A    between atoms: C13_23  and  O25_24 
REMARK    7  A    between atoms: C9_26  and  O24_27 
ROOT
ATOM      1  C4  MOL d           0.143  34.328  -4.851  0.00  0.00     0.041 A 
ATOM      2  C1  MOL d           0.159  34.342  -6.240  0.00  0.00     0.140 A 
ATOM      3  N5  MOL d          -0.565  33.307  -6.665  0.00  0.00    -0.270 N 
ATOM      4  C2  MOL d          -0.620  33.210  -4.533  0.00  0.00     0.103 A 
ATOM      5  N3  MOL d          -1.005  32.675  -5.696  0.00  0.00    -0.173 NA
ATOM      6  H6  MOL d          -0.734  33.070  -7.653  0.00  0.00     0.189 HD
ENDROOT
BRANCH   4   7
ATOM      7  C6  MOL d          -0.784  32.703  -3.244  0.00  0.00     0.029 A 
ATOM      8  C10 MOL d           0.301  32.216  -2.513  0.00  0.00    -0.059 A 
ATOM      9  C14 MOL d           0.143  31.773  -1.202  0.00  0.00    -0.024 A 
ATOM     10  H7  MOL d           1.282  32.182  -2.973  0.00  0.00     0.086 H 
ATOM     11  C13 MOL d          -1.108  31.845  -0.597  0.00  0.00     0.074 A 
ATOM     12  C11 MOL d          -2.203  32.299  -1.327  0.00  0.00    -0.018 A 
ATOM     13  C9  MOL d          -2.040  32.717  -2.648  0.00  0.00     0.081 A 
ATOM     14  H14 MOL d          -3.185  32.328  -0.868  0.00  0.00     0.092 H 
BRANCH   9  15
ATOM     15  C26 MOL d           1.329  31.115  -0.490  0.00  0.00    -0.042 C 
ATOM     16  H8  MOL d           0.978  30.641   0.439  0.00  0.00     0.039 H 
ATOM     17  H9  MOL d           2.079  31.882  -0.249  0.00  0.00     0.039 H 
BRANCH  15  18
ATOM     18  C27 MOL d           1.961  30.053  -1.394  0.00  0.00    -0.073 C 
ATOM     19  H10 MOL d           1.947  30.404  -2.437  0.00  0.00     0.028 H 
ATOM     20  H11 MOL d           1.389  29.117  -1.315  0.00  0.00     0.028 H 
ATOM     21  H12 MOL d           3.000  29.876  -1.081  0.00  0.00     0.028 H 
ENDBRANCH  15  18
ENDBRANCH   9  15
BRANCH  11  22
ATOM     22  O25 MOL d          -1.205  31.627   0.745  0.00  0.00    -0.360 OA
ATOM     23  H13 MOL d          -1.123  30.696   0.921  0.00  0.00     0.217 HD
ENDBRANCH  11  22
BRANCH  13  24
ATOM     24  O24 MOL d          -3.115  33.131  -3.366  0.00  0.00    -0.360 OA
ATOM     25  H15 MOL d          -3.553  32.377  -3.742  0.00  0.00     0.217 HD
ENDBRANCH  13  24
ENDBRANCH   4   7
BRANCH   1  26
ATOM     26  C8  MOL d           0.719  35.238  -3.964  0.00  0.00    -0.018 A 
ATOM     27  C15 MOL d           2.022  35.014  -3.528  0.00  0.00    -0.037 A 
ATOM     28  C12 MOL d           2.576  35.884  -2.595  0.00  0.00     0.105 A 
ATOM     29  H1  MOL d           2.595  34.176  -3.908  0.00  0.00     0.089 H 
ATOM     30  O17 MOL d           3.801  35.897  -1.992  0.00  0.00    -0.323 OA
ATOM     31  C16 MOL d           1.844  36.970  -2.116  0.00  0.00     0.105 A 
ATOM     32  C19 MOL d           3.830  36.990  -1.160  0.00  0.00     0.115 A 
ATOM     33  O18 MOL d           2.631  37.654  -1.233  0.00  0.00    -0.323 OA
ATOM     34  H2  MOL d           4.641  37.666  -1.470  0.00  0.00     0.118 H 
ATOM     35  H3  MOL d           4.003  36.659  -0.125  0.00  0.00     0.118 H 
ATOM     36  C22 MOL d           0.543  37.203  -2.553  0.00  0.00    -0.047 A 
ATOM     37  C20 MOL d          -0.009  36.324  -3.479  0.00  0.00    -0.069 A 
ATOM     38  H4  MOL d          -0.025  38.048  -2.181  0.00  0.00     0.087 H 
ATOM     39  H5  MOL d          -1.022  36.485  -3.830  0.00  0.00     0.085 H 
ENDBRANCH   1  26
BRANCH   2  40
ATOM     40  C7  MOL d           0.811  35.364  -7.172  0.00  0.00     0.229 C 
ATOM     41  O21 MOL d           0.217  36.421  -7.387  0.00  0.00    -0.643 OA
ATOM     42  O23 MOL d           1.903  35.143  -7.700  0.00  0.00    -0.643 OA
ENDBRANCH   2  40
TORSDOF 7
ENDMDL
MODEL 2
REMARK VINA RESULT:      -7.3      1.775      5.449
REMARK  7 active torsions:
REMARK  status: ('A' for Active; 'I' for Inactive)
REMARK    1  A    between atoms: C8_9  and  C4_10 
REMARK    2  A    between atoms: C1_11  and  C7_12 
REMARK    3  A    between atoms: C2_16  and  C6_18 
REMARK    4  A    between atoms: C14_20  and  C26_21 
REMARK    5  A    between atoms: C26_21  and  C27_22 
REMARK    6  A    between atoms: C13_23  and  O25_24 
REMARK    7  A    between atoms: C9_26  and  O24_27 
ROOT
ATOM      1  C4  MOL d          -0.318  33.063  -2.554  0.00  0.00     0.041 A 
ATOM      2  C1  MOL d          -1.109  32.339  -1.671  0.00  0.00     0.140 A 
ATOM      3  N5  MOL d          -2.298  32.157  -2.245  0.00  0.00    -0.270 N 
ATOM      4  C2  MOL d          -1.150  33.287  -3.645  0.00  0.00     0.103 A 
ATOM      5  N3  MOL d          -2.312  32.692  -3.361  0.00  0.00    -0.173 NA
ATOM      6  H6  MOL d          -3.087  31.648  -1.822  0.00  0.00     0.189 HD
ENDROOT
BRANCH   4   7
ATOM      7  C6  MOL d          -0.835  34.112  -4.725  0.00  0.00     0.029 A 
ATOM      8  C10 MOL d          -0.617  35.480  -4.553  0.00  0.00    -0.059 A 
ATOM      9  C14 MOL d          -0.238  36.288  -5.622  0.00  0.00    -0.024 A 
ATOM     10  H7  MOL d          -0.747  35.921  -3.571  0.00  0.00     0.086 H 
ATOM     11  C13 MOL d          -0.039  35.720  -6.876  0.00  0.00     0.074 A 
ATOM     12  C11 MOL d          -0.283  34.362  -7.067  0.00  0.00    -0.018 A 
ATOM     13  C9  MOL d          -0.688  33.567  -5.995  0.00  0.00     0.081 A 
ATOM     14  H14 MOL d          -0.158  33.923  -8.050  0.00  0.00     0.092 H 
BRANCH   9  15
ATOM     15  C26 MOL d          -0.151  37.803  -5.418  0.00  0.00    -0.042 C 
ATOM     16  H8  MOL d          -1.167  38.223  -5.369  0.00  0.00     0.039 H 
ATOM     17  H9  MOL d           0.392  38.253  -6.262  0.00  0.00     0.039 H 
BRANCH  15  18
ATOM     18  C27 MOL d           0.591  38.115  -4.114  0.00  0.00    -0.073 C 
ATOM     19  H10 MOL d          -0.065  37.897  -3.258  0.00  0.00     0.028 H 
ATOM     20  H11 MOL d           0.873  39.179  -4.098  0.00  0.00     0.028 H 
ATOM     21  H12 MOL d           1.497  37.495  -4.050  0.00  0.00     0.028 H 
ENDBRANCH  15  18
ENDBRANCH   9  15
BRANCH  11  22
ATOM     22  O25 MOL d           0.549  36.468  -7.853  0.00  0.00    -0.360 OA
ATOM     23  H13 MOL d           0.260  36.159  -8.704  0.00  0.00     0.217 HD
ENDBRANCH  11  22
BRANCH  13  24
ATOM     24  O24 MOL d          -0.954  32.249  -6.191  0.00  0.00    -0.360 OA
ATOM     25  H15 MOL d          -0.138  31.777  -6.306  0.00  0.00     0.217 HD
ENDBRANCH  13  24
ENDBRANCH   4   7
BRANCH   1  26
ATOM     26  C8  MOL d           1.014  33.450  -2.412  0.00  0.00    -0.018 A 
ATOM     27  C15 MOL d           1.304  34.800  -2.238  0.00  0.00    -0.037 A 
ATOM     28  C12 MOL d           2.635  35.196  -2.160  0.00  0.00     0.105 A 
ATOM     29  H1  MOL d           0.506  35.531  -2.164  0.00  0.00     0.089 H 
ATOM     30  O17 MOL d           3.200  36.431  -2.010  0.00  0.00    -0.323 OA
ATOM     31  C16 MOL d           3.661  34.255  -2.242  0.00  0.00     0.105 A 
ATOM     32  C19 MOL d           4.562  36.250  -1.983  0.00  0.00     0.115 A 
ATOM     33  O18 MOL d           4.851  34.915  -2.123  0.00  0.00    -0.323 OA
ATOM     34  H2  MOL d           4.961  36.611  -1.023  0.00  0.00     0.118 H 
ATOM     35  H3  MOL d           5.023  36.814  -2.808  0.00  0.00     0.118 H 
ATOM     36  C22 MOL d           3.377  32.903  -2.410  0.00  0.00    -0.047 A 
ATOM     37  C20 MOL d           2.044  32.514  -2.496  0.00  0.00    -0.069 A 
ATOM     38  H4  MOL d           4.175  32.171  -2.473  0.00  0.00     0.087 H 
ATOM     39  H5  MOL d           1.802  31.466  -2.631  0.00  0.00     0.085 H 
ENDBRANCH   1  26
BRANCH   2  40
ATOM     40  C7  MOL d          -0.729  31.767  -0.304  0.00  0.00     0.229 C 
ATOM     41  O21 MOL d          -1.503  31.940   0.637  0.00  0.00    -0.643 OA
ATOM     42  O23 MOL d           0.325  31.149  -0.140  0.00  0.00    -0.643 OA
ENDBRANCH   2  40
TORSDOF 7
ENDMDL
