MODEL 1
REMARK VINA RESULT:      -7.0      0.000      0.000
REMARK  4 active torsions:
REMARK  status: ('A' for Active; 'I' for Inactive)
REMARK    1  A    between atoms: C4_4  and  O18_18 
REMARK    2  A    between atoms: C8_8  and  C21_21 
REMARK    3  A    between atoms: N9_9  and  C10_10 
REMARK    4  A    between atoms: C11_11  and  C16_16 
ROOT
ATOM      1  C10 LGB d          54.308   2.325   3.710  0.00  0.00     0.068 A 
ATOM      2  C11 LGB d          53.062   2.601   4.313  0.00  0.00    -0.010 A 
ATOM      3  C12 LGB d          52.605   3.915   4.269  0.00  0.00     0.062 A 
ATOM      4  C13 LGB d          53.341   4.945   3.650  0.00  0.00     0.067 A 
ATOM      5  C14 LGB d          54.558   4.682   3.062  0.00  0.00    -0.059 A 
ATOM      6  C15 LGB d          55.041   3.372   3.093  0.00  0.00    -0.053 A 
ATOM      7 CL17 LGB d          51.112   4.281   4.982  0.00  0.00    -0.082 Cl
ATOM      8  C19 LGB d          52.899   6.280   3.595  0.00  0.00     0.101 C 
ATOM      9  N20 LGB d          52.434   7.323   3.616  0.00  0.00    -0.191 NA
ATOM     10  H8  LGB d          55.127   5.472   2.586  0.00  0.00     0.086 H 
ATOM     11  H9  LGB d          55.998   3.150   2.636  0.00  0.00     0.087 H 
ENDROOT
BRANCH   2  12
ATOM     12  C16 LGB d          52.265   1.504   4.977  0.00  0.00    -0.047 C 
ATOM     13  H10 LGB d          51.642   0.997   4.226  0.00  0.00     0.033 H 
ATOM     14  H11 LGB d          51.620   1.939   5.755  0.00  0.00     0.033 H 
ATOM     15  H12 LGB d          52.953   0.777   5.434  0.00  0.00     0.033 H 
ENDBRANCH   2  12
BRANCH   1  16
ATOM     16  N9  LGB d          54.763   1.048   3.747  0.00  0.00    -0.213 NA
ATOM     17  C6  LGB d          55.954   0.609   4.171  0.00  0.00     0.223 C 
ATOM     18  N2  LGB d          56.281  -0.757   4.335  0.00  0.00    -0.237 NA
ATOM     19  O7  LGB d          56.981   1.405   4.493  0.00  0.00    -0.309 OA
ATOM     20  C1  LGB d          55.793  -1.809   3.408  0.00  0.00    -0.010 C 
ATOM     21  C3  LGB d          57.743  -0.735   4.302  0.00  0.00     0.061 C 
ATOM     22  C5  LGB d          57.009  -2.493   2.782  0.00  0.00    -0.028 C 
ATOM     23  H1  LGB d          55.175  -1.355   2.620  0.00  0.00     0.056 H 
ATOM     24  H2  LGB d          55.196  -2.547   3.963  0.00  0.00     0.056 H 
ATOM     25  C4  LGB d          58.144  -1.428   2.982  0.00  0.00     0.055 C 
ATOM     26  H5  LGB d          56.843  -2.700   1.715  0.00  0.00     0.038 H 
ATOM     27  H6  LGB d          57.249  -3.431   3.304  0.00  0.00     0.038 H 
ATOM     28  H4  LGB d          58.159  -0.707   2.152  0.00  0.00     0.085 H 
ATOM     29  C8  LGB d          58.175   0.712   4.527  0.00  0.00     0.159 C 
ATOM     30  H3  LGB d          58.149  -1.333   5.131  0.00  0.00     0.073 H 
ATOM     31  H7  LGB d          58.902   1.049   3.772  0.00  0.00     0.101 H 
BRANCH  25  32
ATOM     32  O18 LGB d          59.396  -2.051   3.076  0.00  0.00    -0.394 OA
ATOM     33  H13 LGB d          59.872  -1.928   2.263  0.00  0.00     0.210 HD
ENDBRANCH  25  32
BRANCH  29  34
ATOM     34  C21 LGB d          58.691   0.917   5.938  0.00  0.00     0.415 C 
ATOM     35  F22 LGB d          57.645   1.051   6.743  0.00  0.00    -0.168 F 
ATOM     36  F23 LGB d          59.484   1.991   6.055  0.00  0.00    -0.168 F 
ATOM     37  F24 LGB d          59.393  -0.136   6.280  0.00  0.00    -0.168 F 
ENDBRANCH  29  34
ENDBRANCH   1  16
TORSDOF 4
ENDMDL
MODEL 2
REMARK VINA RESULT:      -7.0      1.298      1.882
REMARK  4 active torsions:
REMARK  status: ('A' for Active; 'I' for Inactive)
REMARK    1  A    between atoms: C4_4  and  O18_18 
REMARK    2  A    between atoms: C8_8  and  C21_21 
REMARK    3  A    between atoms: N9_9  and  C10_10 
REMARK    4  A    between atoms: C11_11  and  C16_16 
ROOT
ATOM      1  C10 LGB d          53.291   2.417   4.244  0.00  0.00     0.068 A 
ATOM      2  C11 LGB d          53.994   3.493   3.661  0.00  0.00    -0.010 A 
ATOM      3  C12 LGB d          53.420   4.758   3.748  0.00  0.00     0.062 A 
ATOM      4  C13 LGB d          52.184   4.978   4.389  0.00  0.00     0.067 A 
ATOM      5  C14 LGB d          51.493   3.932   4.958  0.00  0.00    -0.059 A 
ATOM      6  C15 LGB d          52.047   2.652   4.885  0.00  0.00    -0.053 A 
ATOM      7 CL17 LGB d          54.238   6.072   3.058  0.00  0.00    -0.082 Cl
ATOM      8  C19 LGB d          51.583   6.247   4.487  0.00  0.00     0.101 C 
ATOM      9  N20 LGB d          51.201   7.323   4.501  0.00  0.00    -0.191 NA
ATOM     10  H8  LGB d          50.542   4.098   5.452  0.00  0.00     0.086 H 
ATOM     11  H9  LGB d          51.514   1.818   5.327  0.00  0.00     0.087 H 
ENDROOT
BRANCH   2  12
ATOM     12  C16 LGB d          55.319   3.268   2.972  0.00  0.00    -0.047 C 
ATOM     13  H10 LGB d          55.770   2.335   3.341  0.00  0.00     0.033 H 
ATOM     14  H11 LGB d          55.992   4.111   3.187  0.00  0.00     0.033 H 
ATOM     15  H12 LGB d          55.159   3.193   1.886  0.00  0.00     0.033 H 
ENDBRANCH   2  12
BRANCH   1  16
ATOM     16  N9  LGB d          53.842   1.181   4.166  0.00  0.00    -0.213 NA
ATOM     17  C6  LGB d          55.089   0.812   4.482  0.00  0.00     0.223 C 
ATOM     18  N2  LGB d          55.528  -0.531   4.533  0.00  0.00    -0.237 NA
ATOM     19  O7  LGB d          56.073   1.665   4.792  0.00  0.00    -0.309 OA
ATOM     20  C1  LGB d          55.059  -1.559   3.570  0.00  0.00    -0.010 C 
ATOM     21  C3  LGB d          56.979  -0.391   4.409  0.00  0.00     0.061 C 
ATOM     22  C5  LGB d          56.277  -2.104   2.823  0.00  0.00    -0.028 C 
ATOM     23  H1  LGB d          54.355  -1.107   2.855  0.00  0.00     0.056 H 
ATOM     24  H2  LGB d          54.558  -2.375   4.111  0.00  0.00     0.056 H 
ATOM     25  C4  LGB d          57.340  -0.967   3.023  0.00  0.00     0.055 C 
ATOM     26  H5  LGB d          56.054  -2.255   1.757  0.00  0.00     0.038 H 
ATOM     27  H6  LGB d          56.622  -3.050   3.264  0.00  0.00     0.038 H 
ATOM     28  H4  LGB d          57.244  -0.196   2.244  0.00  0.00     0.085 H 
ATOM     29  C8  LGB d          57.315   1.069   4.703  0.00  0.00     0.159 C 
ATOM     30  H3  LGB d          57.484  -1.006   5.168  0.00  0.00     0.073 H 
ATOM     31  H7  LGB d          57.961   1.509   3.929  0.00  0.00     0.101 H 
BRANCH  25  32
ATOM     32  O18 LGB d          58.638  -1.492   2.994  0.00  0.00    -0.394 OA
ATOM     33  H13 LGB d          59.266  -0.790   3.119  0.00  0.00     0.210 HD
ENDBRANCH  25  32
BRANCH  29  34
ATOM     34  C21 LGB d          57.910   1.225   6.090  0.00  0.00     0.415 C 
ATOM     35  F22 LGB d          57.277   2.220   6.699  0.00  0.00    -0.168 F 
ATOM     36  F23 LGB d          59.225   1.480   6.070  0.00  0.00    -0.168 F 
ATOM     37  F24 LGB d          57.731   0.105   6.747  0.00  0.00    -0.168 F 
ENDBRANCH  29  34
ENDBRANCH   1  16
TORSDOF 4
ENDMDL
