MODEL 1
REMARK VINA RESULT:     -11.7      0.000      0.000
REMARK  3 active torsions:
REMARK  status: ('A' for Active; 'I' for Inactive)
REMARK    1  A    between atoms: C14_16  and  N2_2 
REMARK    2  A    between atoms: C8_10  and  C18_20 
REMARK    3  A    between atoms: C18_20  and  C10_12 
ROOT
ATOM      1  N1  HUX d           5.565  69.772  65.229  0.00  0.00    -0.252 NA
ATOM      2  C1  HUX d           6.212  70.796  68.739  0.00  0.00     0.036 A 
ATOM      3  C2  HUX d           6.400  70.505  67.295  0.00  0.00    -0.033 A 
ATOM      4  C3  HUX d           5.273  70.063  66.629  0.00  0.00     0.071 A 
ATOM      5  C4  HUX d           4.553  69.290  64.478  0.00  0.00     0.044 A 
ATOM      6  C5  HUX d           4.990  68.976  62.946  0.00  0.00    -0.018 C 
ATOM      7  C6  HUX d           4.041  67.974  62.267  0.00  0.00    -0.032 C 
ATOM      8  C7  HUX d           4.050  66.465  62.989  0.00  0.00    -0.096 C 
ATOM      9  C8  HUX d           3.209  66.015  63.923  0.00  0.00    -0.083 C 
ATOM     10  C9  HUX d           2.120  66.970  64.356  0.00  0.00    -0.037 C 
ATOM     11  C11 HUX d           2.221  68.429  63.933  0.00  0.00    -0.020 C 
ATOM     12  C12 HUX d           2.619  68.480  62.394  0.00  0.00    -0.051 C 
ATOM     13  C13 HUX d           3.256  69.033  64.889  0.00  0.00    -0.002 A 
ATOM     14  C14 HUX d           2.960  69.355  66.327  0.00  0.00     0.047 A 
ATOM     15  C15 HUX d           4.011  69.857  67.132  0.00  0.00     0.019 A 
ATOM     16  C16 HUX d           3.778  70.175  68.588  0.00  0.00    -0.067 A 
ATOM     17  C17 HUX d           4.830  70.607  69.307  0.00  0.00    -0.061 A 
ATOM     18 CL1  HUX d           7.450  71.274  69.743  0.00  0.00    -0.084 Cl
ATOM     19  H3  HUX d           7.356  70.630  66.798  0.00  0.00     0.089 H 
ATOM     20  H4  HUX d           6.007  68.556  62.946  0.00  0.00     0.043 H 
ATOM     21  H5  HUX d           4.981  69.916  62.375  0.00  0.00     0.043 H 
ATOM     22  H6  HUX d           4.322  67.877  61.208  0.00  0.00     0.046 H 
ATOM     23  H7  HUX d           4.826  65.774  62.661  0.00  0.00     0.077 H 
ATOM     24  H8  HUX d           2.092  66.953  65.456  0.00  0.00     0.040 H 
ATOM     25  H9  HUX d           1.171  66.582  63.958  0.00  0.00     0.040 H 
ATOM     26  H13 HUX d           1.257  68.943  64.065  0.00  0.00     0.048 H 
ATOM     27  H14 HUX d           1.940  67.840  61.810  0.00  0.00     0.035 H 
ATOM     28  H15 HUX d           2.555  69.515  62.024  0.00  0.00     0.035 H 
ATOM     29  H16 HUX d           2.799  70.061  69.039  0.00  0.00     0.085 H 
ATOM     30  H17 HUX d           4.674  70.831  70.357  0.00  0.00     0.086 H 
ENDROOT
BRANCH   9  31
ATOM     31  C18 HUX d           3.418  64.557  64.491  0.00  0.00    -0.048 C 
ATOM     32  H18 HUX d           2.568  63.956  64.135  0.00  0.00     0.039 H 
ATOM     33  H19 HUX d           3.376  64.638  65.587  0.00  0.00     0.039 H 
BRANCH  31  34
ATOM     34  C10 HUX d           4.697  63.758  64.155  0.00  0.00    -0.073 C 
ATOM     35  H10 HUX d           4.419  62.768  63.764  0.00  0.00     0.028 H 
ATOM     36  H11 HUX d           5.303  63.636  65.065  0.00  0.00     0.028 H 
ATOM     37  H12 HUX d           5.280  64.301  63.396  0.00  0.00     0.028 H 
ENDBRANCH  31  34
ENDBRANCH   9  31
BRANCH  14  38
ATOM     38  N2  HUX d           1.677  69.105  66.778  0.00  0.00    -0.398 N 
ATOM     39  H1  HUX d           1.365  68.135  66.929  0.00  0.00     0.156 HD
ATOM     40  H2  HUX d           1.033  69.888  66.961  0.00  0.00     0.156 HD
ENDBRANCH  14  38
TORSDOF 3
ENDMDL
