MODEL 1
REMARK VINA RESULT:      -7.4      0.000      0.000
REMARK  16 active torsions:
REMARK  status: ('A' for Active; 'I' for Inactive)
REMARK    1  A    between atoms: PA_1  and  O5_4 
REMARK    2  A    between atoms: O3A_8  and  PA_1 
REMARK    3  A    between atoms: O5_4  and  C5_23 
REMARK    4  A    between atoms: PB_5  and  O3A_8 
REMARK    5  A    between atoms: O3_38  and  PB_5 
REMARK    6  A    between atoms: O3_30  and  PG_9 
REMARK    7  A    between atoms: C1_26  and  N9A_13 
REMARK    8  A    between atoms: C5_23  and  C4_24 
REMARK    9  A    between atoms: C2_27  and  O2_28 
REMARK   10  A    between atoms: C3_29  and  O3_30 
REMARK   11  A    between atoms: C5_32  and  O5_31 
REMARK   12  A    between atoms: O5_31  and  PD_39 
REMARK   13  A    between atoms: C4_33  and  C5_32 
REMARK   14  A    between atoms: C1_35  and  N1T_43 
REMARK   15  A    between atoms: C3_37  and  O3_38 
REMARK   16  A    between atoms: C5T_50  and  CM5_51 
ROOT
ATOM      1  PA  PAX d         -30.682 -34.113  14.650  0.00  0.00     0.417 P 
ATOM      2  O1A PAX d         -30.224 -34.503  13.242  0.00  0.00    -0.624 OA
ATOM      3  O2A PAX d         -31.909 -34.853  15.194  0.00  0.00    -0.624 OA
ENDROOT
BRANCH   1   4
ATOM      4  O5  PAX d         -29.498 -34.281  15.705  0.00  0.00    -0.287 OA
BRANCH   4   5
ATOM      5  C5  PAX d         -28.369 -33.437  15.672  0.00  0.00     0.058 C 
ATOM      6  H5  PAX d         -28.643 -32.476  15.211  0.00  0.00     0.079 H 
ATOM      7  H6  PAX d         -27.573 -33.913  15.081  0.00  0.00     0.079 H 
BRANCH   5   8
ATOM      8  C4  PAX d         -27.882 -33.200  17.067  0.00  0.00     0.090 C 
ATOM      9  O4  PAX d         -26.539 -33.762  17.239  0.00  0.00    -0.353 OA
ATOM     10  C1  PAX d         -25.833 -32.939  18.141  0.00  0.00     0.140 C 
ATOM     11  C2  PAX d         -26.274 -31.528  17.702  0.00  0.00     0.106 C 
ATOM     12  H8  PAX d         -26.201 -33.106  19.163  0.00  0.00     0.122 H 
ATOM     13  C3  PAX d         -27.775 -31.720  17.439  0.00  0.00     0.107 C 
ATOM     14  H9  PAX d         -25.771 -31.262  16.761  0.00  0.00     0.093 H 
ATOM     15  H11 PAX d         -28.131 -31.059  16.635  0.00  0.00     0.092 H 
ATOM     16  H7  PAX d         -28.579 -33.693  17.760  0.00  0.00     0.090 H 
BRANCH  10  17
ATOM     17  N9A PAX d         -24.378 -33.286  18.154  0.00  0.00    -0.294 N 
ATOM     18  C4A PAX d         -23.428 -33.280  17.139  0.00  0.00     0.167 A 
ATOM     19  N3A PAX d         -23.604 -32.939  15.823  0.00  0.00    -0.222 NA
ATOM     20  C5A PAX d         -22.223 -33.699  17.744  0.00  0.00     0.149 A 
ATOM     21  C2A PAX d         -22.443 -33.049  15.105  0.00  0.00     0.091 A 
ATOM     22  N1A PAX d         -21.210 -33.441  15.556  0.00  0.00    -0.222 NA
ATOM     23  H1  PAX d         -22.508 -32.796  14.053  0.00  0.00     0.146 H 
ATOM     24  C6A PAX d         -21.066 -33.776  16.886  0.00  0.00     0.155 A 
ATOM     25  N6A PAX d         -19.862 -34.150  17.309  0.00  0.00    -0.382 N 
ATOM     26  H2  PAX d         -19.719 -34.407  18.296  0.00  0.00     0.157 HD
ATOM     27  H3  PAX d         -19.071 -34.183  16.650  0.00  0.00     0.157 HD
ATOM     28  N7A PAX d         -22.416 -33.960  19.092  0.00  0.00    -0.236 NA
ATOM     29  C8A PAX d         -23.694 -33.702  19.285  0.00  0.00     0.071 A 
ATOM     30  H4  PAX d         -24.176 -33.809  20.256  0.00  0.00     0.144 H 
ENDBRANCH  10  17
BRANCH  11  31
ATOM     31  O2  PAX d         -25.959 -30.513  18.646  0.00  0.00    -0.388 OA
ATOM     32  H10 PAX d         -26.609 -30.515  19.340  0.00  0.00     0.210 HD
ENDBRANCH  11  31
BRANCH  13  33
ATOM     33  O3  PAX d         -28.545 -31.529  18.629  0.00  0.00    -0.272 OA
BRANCH  33  34
ATOM     34  PG  PAX d         -29.578 -30.274  18.812  0.00  0.00     0.422 P 
ATOM     35  O1G PAX d         -30.977 -30.816  18.525  0.00  0.00    -0.617 OA
ATOM     36  O2G PAX d         -29.391 -29.804  20.248  0.00  0.00    -0.617 OA
ATOM     37  O3G PAX d         -29.193 -29.171  17.808  0.00  0.00    -0.617 OA
ENDBRANCH  33  34
ENDBRANCH  13  33
ENDBRANCH   5   8
ENDBRANCH   4   5
ENDBRANCH   1   4
BRANCH   1  38
ATOM     38  O3A PAX d         -30.938 -32.551  14.727  0.00  0.00    -0.180 OA
BRANCH  38  39
ATOM     39  PB  PAX d         -32.202 -31.637  14.484  0.00  0.00     0.418 P 
ATOM     40  O1B PAX d         -33.013 -32.223  13.400  0.00  0.00    -0.624 OA
ATOM     41  O2B PAX d         -32.839 -31.387  15.796  0.00  0.00    -0.624 OA
BRANCH  39  42
ATOM     42  O3  PAX d         -31.540 -30.209  14.071  0.00  0.00    -0.281 OA
BRANCH  42  43
ATOM     43  C3  PAX d         -31.009 -29.318  15.054  0.00  0.00     0.081 C 
ATOM     44  C4  PAX d         -31.922 -28.092  15.172  0.00  0.00     0.087 C 
ATOM     45  O4  PAX d         -31.221 -26.991  14.531  0.00  0.00    -0.356 OA
ATOM     46  H14 PAX d         -32.859 -28.295  14.632  0.00  0.00     0.090 H 
ATOM     47  C1  PAX d         -30.095 -27.489  13.837  0.00  0.00     0.116 C 
ATOM     48  C2  PAX d         -29.681 -28.754  14.578  0.00  0.00     0.003 C 
ATOM     49  H15 PAX d         -30.367 -27.739  12.801  0.00  0.00     0.118 H 
ATOM     50  H16 PAX d         -29.023 -28.518  15.428  0.00  0.00     0.043 H 
ATOM     51  H17 PAX d         -29.170 -29.458  13.904  0.00  0.00     0.043 H 
ATOM     52  H18 PAX d         -30.901 -29.834  16.020  0.00  0.00     0.088 H 
BRANCH  44  53
ATOM     53  C5  PAX d         -32.272 -27.729  16.607  0.00  0.00     0.059 C 
ATOM     54  H12 PAX d         -33.284 -28.097  16.835  0.00  0.00     0.079 H 
ATOM     55  H13 PAX d         -31.548 -28.203  17.285  0.00  0.00     0.079 H 
BRANCH  53  56
ATOM     56  O5  PAX d         -32.234 -26.294  16.799  0.00  0.00    -0.280 OA
BRANCH  56  57
ATOM     57  PD  PAX d         -31.708 -25.608  18.200  0.00  0.00     0.422 P 
ATOM     58  O1D PAX d         -32.817 -24.619  18.606  0.00  0.00    -0.617 OA
ATOM     59  O2D PAX d         -30.372 -24.905  17.868  0.00  0.00    -0.617 OA
ATOM     60  O3D PAX d         -31.546 -26.761  19.206  0.00  0.00    -0.617 OA
ENDBRANCH  56  57
ENDBRANCH  53  56
ENDBRANCH  44  53
BRANCH  47  61
ATOM     61  N1T PAX d         -29.010 -26.452  13.819  0.00  0.00    -0.282 N 
ATOM     62  C6T PAX d         -29.085 -25.275  14.608  0.00  0.00    -0.002 A 
ATOM     63  C5T PAX d         -28.119 -24.327  14.610  0.00  0.00     0.022 A 
ATOM     64  H19 PAX d         -29.959 -25.128  15.240  0.00  0.00     0.113 H 
ATOM     65  C4T PAX d         -26.935 -24.516  13.765  0.00  0.00     0.256 A 
ATOM     66  N3T PAX d         -26.921 -25.701  13.003  0.00  0.00    -0.275 N 
ATOM     67  O4T PAX d         -25.975 -23.747  13.678  0.00  0.00    -0.267 OA
ATOM     68  C2T PAX d         -27.898 -26.694  12.976  0.00  0.00     0.331 A 
ATOM     69  H20 PAX d         -26.123 -25.844  12.417  0.00  0.00     0.173 HD
ATOM     70  O2T PAX d         -27.791 -27.681  12.285  0.00  0.00    -0.246 OA
BRANCH  63  71
ATOM     71  CM5 PAX d         -28.265 -23.114  15.474  0.00  0.00    -0.045 C 
ATOM     72  H21 PAX d         -29.118 -23.249  16.154  0.00  0.00     0.033 H 
ATOM     73  H22 PAX d         -28.438 -22.231  14.840  0.00  0.00     0.033 H 
ATOM     74  H23 PAX d         -27.347 -22.969  16.061  0.00  0.00     0.033 H 
ENDBRANCH  63  71
ENDBRANCH  47  61
ENDBRANCH  42  43
ENDBRANCH  39  42
ENDBRANCH  38  39
ENDBRANCH   1  38
TORSDOF 16
ENDMDL
MODEL 2
REMARK VINA RESULT:      -5.7      3.378      8.566
REMARK  16 active torsions:
REMARK  status: ('A' for Active; 'I' for Inactive)
REMARK    1  A    between atoms: PA_1  and  O5_4 
REMARK    2  A    between atoms: O3A_8  and  PA_1 
REMARK    3  A    between atoms: O5_4  and  C5_23 
REMARK    4  A    between atoms: PB_5  and  O3A_8 
REMARK    5  A    between atoms: O3_38  and  PB_5 
REMARK    6  A    between atoms: O3_30  and  PG_9 
REMARK    7  A    between atoms: C1_26  and  N9A_13 
REMARK    8  A    between atoms: C5_23  and  C4_24 
REMARK    9  A    between atoms: C2_27  and  O2_28 
REMARK   10  A    between atoms: C3_29  and  O3_30 
REMARK   11  A    between atoms: C5_32  and  O5_31 
REMARK   12  A    between atoms: O5_31  and  PD_39 
REMARK   13  A    between atoms: C4_33  and  C5_32 
REMARK   14  A    between atoms: C1_35  and  N1T_43 
REMARK   15  A    between atoms: C3_37  and  O3_38 
REMARK   16  A    between atoms: C5T_50  and  CM5_51 
ROOT
ATOM      1  PA  PAX d         -29.470 -30.053  13.209  0.00  0.00     0.417 P 
ATOM      2  O1A PAX d         -30.638 -29.699  12.283  0.00  0.00    -0.624 OA
ATOM      3  O2A PAX d         -28.064 -29.798  12.655  0.00  0.00    -0.624 OA
ENDROOT
BRANCH   1   4
ATOM      4  O5  PAX d         -29.595 -29.293  14.605  0.00  0.00    -0.287 OA
BRANCH   4   5
ATOM      5  C5  PAX d         -29.645 -27.885  14.665  0.00  0.00     0.058 C 
ATOM      6  H5  PAX d         -29.508 -27.470  13.655  0.00  0.00     0.079 H 
ATOM      7  H6  PAX d         -28.844 -27.518  15.324  0.00  0.00     0.079 H 
BRANCH   5   8
ATOM      8  C4  PAX d         -30.972 -27.455  15.205  0.00  0.00     0.090 C 
ATOM      9  O4  PAX d         -31.803 -28.625  15.504  0.00  0.00    -0.353 OA
ATOM     10  C1  PAX d         -32.600 -28.319  16.627  0.00  0.00     0.140 C 
ATOM     11  C2  PAX d         -31.614 -27.544  17.522  0.00  0.00     0.106 C 
ATOM     12  H8  PAX d         -33.406 -27.630  16.334  0.00  0.00     0.122 H 
ATOM     13  C3  PAX d         -30.878 -26.656  16.506  0.00  0.00     0.107 C 
ATOM     14  H9  PAX d         -30.899 -28.246  17.976  0.00  0.00     0.093 H 
ATOM     15  H11 PAX d         -29.837 -26.473  16.811  0.00  0.00     0.092 H 
ATOM     16  H7  PAX d         -31.467 -26.836  14.442  0.00  0.00     0.090 H 
BRANCH  10  17
ATOM     17  N9A PAX d         -33.268 -29.548  17.157  0.00  0.00    -0.294 N 
ATOM     18  C4A PAX d         -32.982 -30.895  16.972  0.00  0.00     0.167 A 
ATOM     19  N3A PAX d         -31.975 -31.447  16.225  0.00  0.00    -0.222 NA
ATOM     20  C5A PAX d         -33.952 -31.596  17.723  0.00  0.00     0.149 A 
ATOM     21  C2A PAX d         -31.992 -32.816  16.271  0.00  0.00     0.091 A 
ATOM     22  N1A PAX d         -32.867 -33.623  16.952  0.00  0.00    -0.222 NA
ATOM     23  H1  PAX d         -31.222 -33.321  15.700  0.00  0.00     0.146 H 
ATOM     24  C6A PAX d         -33.869 -33.036  17.695  0.00  0.00     0.155 A 
ATOM     25  N6A PAX d         -34.706 -33.833  18.353  0.00  0.00    -0.382 N 
ATOM     26  H2  PAX d         -35.466 -33.427  18.918  0.00  0.00     0.157 HD
ATOM     27  H3  PAX d         -34.596 -34.856  18.297  0.00  0.00     0.157 HD
ATOM     28  N7A PAX d         -34.815 -30.713  18.354  0.00  0.00    -0.236 NA
ATOM     29  C8A PAX d         -34.374 -29.525  17.993  0.00  0.00     0.071 A 
ATOM     30  H4  PAX d         -34.840 -28.599  18.324  0.00  0.00     0.144 H 
ENDBRANCH  10  17
BRANCH  11  31
ATOM     31  O2  PAX d         -32.241 -26.839  18.584  0.00  0.00    -0.388 OA
ATOM     32  H10 PAX d         -32.078 -27.292  19.404  0.00  0.00     0.210 HD
ENDBRANCH  11  31
BRANCH  13  33
ATOM     33  O3  PAX d         -31.566 -25.420  16.293  0.00  0.00    -0.272 OA
BRANCH  33  34
ATOM     34  PG  PAX d         -30.975 -23.987  16.813  0.00  0.00     0.422 P 
ATOM     35  O1G PAX d         -29.469 -24.020  16.562  0.00  0.00    -0.617 OA
ATOM     36  O2G PAX d         -31.704 -22.930  15.996  0.00  0.00    -0.617 OA
ATOM     37  O3G PAX d         -31.285 -23.844  18.315  0.00  0.00    -0.617 OA
ENDBRANCH  33  34
ENDBRANCH  13  33
ENDBRANCH   5   8
ENDBRANCH   4   5
ENDBRANCH   1   4
BRANCH   1  38
ATOM     38  O3A PAX d         -29.582 -31.564  13.674  0.00  0.00    -0.180 OA
BRANCH  38  39
ATOM     39  PB  PAX d         -28.524 -32.699  13.966  0.00  0.00     0.418 P 
ATOM     40  O1B PAX d         -29.238 -33.915  14.400  0.00  0.00    -0.624 OA
ATOM     41  O2B PAX d         -27.617 -32.783  12.799  0.00  0.00    -0.624 OA
BRANCH  39  42
ATOM     42  O3  PAX d         -27.613 -32.050  15.147  0.00  0.00    -0.281 OA
BRANCH  42  43
ATOM     43  C3  PAX d         -27.177 -32.824  16.266  0.00  0.00     0.081 C 
ATOM     44  C4  PAX d         -26.779 -31.882  17.409  0.00  0.00     0.087 C 
ATOM     45  O4  PAX d         -25.327 -31.902  17.475  0.00  0.00    -0.356 OA
ATOM     46  H14 PAX d         -27.122 -30.866  17.166  0.00  0.00     0.090 H 
ATOM     47  C1  PAX d         -24.813 -32.569  16.340  0.00  0.00     0.116 C 
ATOM     48  C2  PAX d         -25.892 -33.558  15.918  0.00  0.00     0.003 C 
ATOM     49  H15 PAX d         -24.629 -31.851  15.527  0.00  0.00     0.118 H 
ATOM     50  H16 PAX d         -25.809 -34.499  16.481  0.00  0.00     0.043 H 
ATOM     51  H17 PAX d         -25.836 -33.769  14.840  0.00  0.00     0.043 H 
ATOM     52  H18 PAX d         -27.966 -33.525  16.577  0.00  0.00     0.088 H 
BRANCH  44  53
ATOM     53  C5  PAX d         -27.373 -32.273  18.753  0.00  0.00     0.059 C 
ATOM     54  H12 PAX d         -28.181 -33.002  18.593  0.00  0.00     0.079 H 
ATOM     55  H13 PAX d         -26.588 -32.726  19.376  0.00  0.00     0.079 H 
BRANCH  53  56
ATOM     56  O5  PAX d         -27.908 -31.112  19.436  0.00  0.00    -0.280 OA
BRANCH  56  57
ATOM     57  PD  PAX d         -29.382 -30.478  19.067  0.00  0.00     0.422 P 
ATOM     58  O1D PAX d         -29.256 -29.984  17.613  0.00  0.00    -0.617 OA
ATOM     59  O2D PAX d         -29.627 -29.328  20.070  0.00  0.00    -0.617 OA
ATOM     60  O3D PAX d         -30.392 -31.630  19.214  0.00  0.00    -0.617 OA
ENDBRANCH  56  57
ENDBRANCH  53  56
ENDBRANCH  44  53
BRANCH  47  61
ATOM     61  N1T PAX d         -23.519 -33.246  16.692  0.00  0.00    -0.282 N 
ATOM     62  C6T PAX d         -22.362 -33.119  15.882  0.00  0.00    -0.002 A 
ATOM     63  C5T PAX d         -21.185 -33.716  16.179  0.00  0.00     0.022 A 
ATOM     64  H19 PAX d         -22.424 -32.513  14.979  0.00  0.00     0.113 H 
ATOM     65  C4T PAX d         -21.088 -34.532  17.394  0.00  0.00     0.256 A 
ATOM     66  N3T PAX d         -22.271 -34.624  18.155  0.00  0.00    -0.275 N 
ATOM     67  O4T PAX d         -20.082 -35.120  17.796  0.00  0.00    -0.267 OA
ATOM     68  C2T PAX d         -23.497 -34.023  17.876  0.00  0.00     0.331 A 
ATOM     69  H20 PAX d         -22.225 -35.180  18.985  0.00  0.00     0.173 HD
ATOM     70  O2T PAX d         -24.458 -34.162  18.597  0.00  0.00    -0.246 OA
BRANCH  63  71
ATOM     71  CM5 PAX d         -20.005 -33.532  15.278  0.00  0.00    -0.045 C 
ATOM     72  H21 PAX d         -20.341 -33.521  14.231  0.00  0.00     0.033 H 
ATOM     73  H22 PAX d         -19.297 -34.361  15.426  0.00  0.00     0.033 H 
ATOM     74  H23 PAX d         -19.509 -32.579  15.513  0.00  0.00     0.033 H 
ENDBRANCH  63  71
ENDBRANCH  47  61
ENDBRANCH  42  43
ENDBRANCH  39  42
ENDBRANCH  38  39
ENDBRANCH   1  38
TORSDOF 16
ENDMDL
MODEL 3
REMARK VINA RESULT:      -5.1      2.990      7.620
REMARK  16 active torsions:
REMARK  status: ('A' for Active; 'I' for Inactive)
REMARK    1  A    between atoms: PA_1  and  O5_4 
REMARK    2  A    between atoms: O3A_8  and  PA_1 
REMARK    3  A    between atoms: O5_4  and  C5_23 
REMARK    4  A    between atoms: PB_5  and  O3A_8 
REMARK    5  A    between atoms: O3_38  and  PB_5 
REMARK    6  A    between atoms: O3_30  and  PG_9 
REMARK    7  A    between atoms: C1_26  and  N9A_13 
REMARK    8  A    between atoms: C5_23  and  C4_24 
REMARK    9  A    between atoms: C2_27  and  O2_28 
REMARK   10  A    between atoms: C3_29  and  O3_30 
REMARK   11  A    between atoms: C5_32  and  O5_31 
REMARK   12  A    between atoms: O5_31  and  PD_39 
REMARK   13  A    between atoms: C4_33  and  C5_32 
REMARK   14  A    between atoms: C1_35  and  N1T_43 
REMARK   15  A    between atoms: C3_37  and  O3_38 
REMARK   16  A    between atoms: C5T_50  and  CM5_51 
ROOT
ATOM      1  PA  PAX d         -30.537 -26.170  16.308  0.00  0.00     0.417 P 
ATOM      2  O1A PAX d         -29.638 -24.932  16.247  0.00  0.00    -0.624 OA
ATOM      3  O2A PAX d         -32.044 -25.911  16.410  0.00  0.00    -0.624 OA
ENDROOT
BRANCH   1   4
ATOM      4  O5  PAX d         -30.285 -27.123  15.054  0.00  0.00    -0.287 OA
BRANCH   4   5
ATOM      5  C5  PAX d         -31.073 -27.016  13.889  0.00  0.00     0.058 C 
ATOM      6  H5  PAX d         -30.475 -26.564  13.084  0.00  0.00     0.079 H 
ATOM      7  H6  PAX d         -31.949 -26.384  14.096  0.00  0.00     0.079 H 
BRANCH   5   8
ATOM      8  C4  PAX d         -31.528 -28.378  13.469  0.00  0.00     0.090 C 
ATOM      9  O4  PAX d         -30.376 -29.267  13.287  0.00  0.00    -0.353 OA
ATOM     10  C1  PAX d         -30.767 -30.570  13.658  0.00  0.00     0.140 C 
ATOM     11  C2  PAX d         -31.632 -30.304  14.906  0.00  0.00     0.106 C 
ATOM     12  H8  PAX d         -31.416 -31.000  12.881  0.00  0.00     0.122 H 
ATOM     13  C3  PAX d         -32.439 -29.065  14.488  0.00  0.00     0.107 C 
ATOM     14  H9  PAX d         -30.983 -30.046  15.755  0.00  0.00     0.093 H 
ATOM     15  H11 PAX d         -32.663 -28.421  15.351  0.00  0.00     0.092 H 
ATOM     16  H7  PAX d         -32.071 -28.278  12.517  0.00  0.00     0.090 H 
BRANCH  10  17
ATOM     17  N9A PAX d         -29.580 -31.473  13.763  0.00  0.00    -0.294 N 
ATOM     18  C4A PAX d         -29.488 -32.834  14.033  0.00  0.00     0.167 A 
ATOM     19  N3A PAX d         -30.508 -33.714  14.278  0.00  0.00    -0.222 NA
ATOM     20  C5A PAX d         -28.108 -33.135  14.000  0.00  0.00     0.149 A 
ATOM     21  C2A PAX d         -30.048 -34.984  14.503  0.00  0.00     0.091 A 
ATOM     22  N1A PAX d         -28.748 -35.419  14.503  0.00  0.00    -0.222 NA
ATOM     23  H1  PAX d         -30.802 -35.735  14.706  0.00  0.00     0.146 H 
ATOM     24  C6A PAX d         -27.744 -34.508  14.252  0.00  0.00     0.155 A 
ATOM     25  N6A PAX d         -26.488 -34.946  14.252  0.00  0.00    -0.382 N 
ATOM     26  H2  PAX d         -25.714 -34.293  14.067  0.00  0.00     0.157 HD
ATOM     27  H3  PAX d         -26.289 -35.940  14.436  0.00  0.00     0.157 HD
ATOM     28  N7A PAX d         -27.364 -31.998  13.721  0.00  0.00    -0.236 NA
ATOM     29  C8A PAX d         -28.271 -31.051  13.590  0.00  0.00     0.071 A 
ATOM     30  H4  PAX d         -28.013 -30.017  13.363  0.00  0.00     0.144 H 
ENDBRANCH  10  17
BRANCH  11  31
ATOM     31  O2  PAX d         -32.418 -31.420  15.303  0.00  0.00    -0.388 OA
ATOM     32  H10 PAX d         -32.125 -31.725  16.155  0.00  0.00     0.210 HD
ENDBRANCH  11  31
BRANCH  13  33
ATOM     33  O3  PAX d         -33.641 -29.428  13.802  0.00  0.00    -0.272 OA
BRANCH  33  34
ATOM     34  PG  PAX d         -35.111 -29.356  14.515  0.00  0.00     0.422 P 
ATOM     35  O1G PAX d         -35.573 -27.904  14.416  0.00  0.00    -0.617 OA
ATOM     36  O2G PAX d         -35.986 -30.325  13.731  0.00  0.00    -0.617 OA
ATOM     37  O3G PAX d         -34.967 -29.796  15.983  0.00  0.00    -0.617 OA
ENDBRANCH  33  34
ENDBRANCH  13  33
ENDBRANCH   5   8
ENDBRANCH   4   5
ENDBRANCH   1   4
BRANCH   1  38
ATOM     38  O3A PAX d         -30.087 -27.112  17.501  0.00  0.00    -0.180 OA
BRANCH  38  39
ATOM     39  PB  PAX d         -30.869 -27.980  18.563  0.00  0.00     0.418 P 
ATOM     40  O1B PAX d         -31.134 -27.151  19.754  0.00  0.00    -0.624 OA
ATOM     41  O2B PAX d         -32.011 -28.621  17.872  0.00  0.00    -0.624 OA
BRANCH  39  42
ATOM     42  O3  PAX d         -29.835 -29.200  18.864  0.00  0.00    -0.281 OA
BRANCH  42  43
ATOM     43  C3  PAX d         -29.778 -30.356  18.025  0.00  0.00     0.081 C 
ATOM     44  C4  PAX d         -30.041 -31.607  18.871  0.00  0.00     0.087 C 
ATOM     45  O4  PAX d         -28.761 -32.281  19.025  0.00  0.00    -0.356 OA
ATOM     46  H14 PAX d         -30.413 -31.296  19.858  0.00  0.00     0.090 H 
ATOM     47  C1  PAX d         -27.727 -31.436  18.562  0.00  0.00     0.116 C 
ATOM     48  C2  PAX d         -28.363 -30.546  17.502  0.00  0.00     0.003 C 
ATOM     49  H15 PAX d         -27.344 -30.816  19.386  0.00  0.00     0.118 H 
ATOM     50  H16 PAX d         -28.368 -31.041  16.520  0.00  0.00     0.043 H 
ATOM     51  H17 PAX d         -27.837 -29.583  17.426  0.00  0.00     0.043 H 
ATOM     52  H18 PAX d         -30.500 -30.267  17.201  0.00  0.00     0.088 H 
BRANCH  44  53
ATOM     53  C5  PAX d         -31.063 -32.552  18.258  0.00  0.00     0.059 C 
ATOM     54  H12 PAX d         -31.269 -32.238  17.223  0.00  0.00     0.079 H 
ATOM     55  H13 PAX d         -30.655 -33.573  18.256  0.00  0.00     0.079 H 
BRANCH  53  56
ATOM     56  O5  PAX d         -32.299 -32.535  19.014  0.00  0.00    -0.280 OA
BRANCH  56  57
ATOM     57  PD  PAX d         -33.575 -33.502  18.633  0.00  0.00     0.422 P 
ATOM     58  O1D PAX d         -34.171 -32.895  17.348  0.00  0.00    -0.617 OA
ATOM     59  O2D PAX d         -34.548 -33.436  19.832  0.00  0.00    -0.617 OA
ATOM     60  O3D PAX d         -32.994 -34.909  18.407  0.00  0.00    -0.617 OA
ENDBRANCH  56  57
ENDBRANCH  53  56
ENDBRANCH  44  53
BRANCH  47  61
ATOM     61  N1T PAX d         -26.602 -32.266  18.015  0.00  0.00    -0.282 N 
ATOM     62  C6T PAX d         -25.861 -31.866  16.873  0.00  0.00    -0.002 A 
ATOM     63  C5T PAX d         -24.841 -32.595  16.362  0.00  0.00     0.022 A 
ATOM     64  H19 PAX d         -26.126 -30.930  16.384  0.00  0.00     0.113 H 
ATOM     65  C4T PAX d         -24.474 -33.857  17.014  0.00  0.00     0.256 A 
ATOM     66  N3T PAX d         -25.248 -34.203  18.140  0.00  0.00    -0.275 N 
ATOM     67  O4T PAX d         -23.563 -34.614  16.670  0.00  0.00    -0.267 OA
ATOM     68  C2T PAX d         -26.303 -33.476  18.688  0.00  0.00     0.331 A 
ATOM     69  H20 PAX d         -25.015 -35.062  18.594  0.00  0.00     0.173 HD
ATOM     70  O2T PAX d         -26.907 -33.859  19.663  0.00  0.00    -0.246 OA
BRANCH  63  71
ATOM     71  CM5 PAX d         -24.103 -32.106  15.157  0.00  0.00    -0.045 C 
ATOM     72  H21 PAX d         -23.076 -32.499  15.172  0.00  0.00     0.033 H 
ATOM     73  H22 PAX d         -24.073 -31.006  15.167  0.00  0.00     0.033 H 
ATOM     74  H23 PAX d         -24.615 -32.451  14.247  0.00  0.00     0.033 H 
ENDBRANCH  63  71
ENDBRANCH  47  61
ENDBRANCH  42  43
ENDBRANCH  39  42
ENDBRANCH  38  39
ENDBRANCH   1  38
TORSDOF 16
ENDMDL
MODEL 4
REMARK VINA RESULT:      -5.1      2.103      3.206
REMARK  16 active torsions:
REMARK  status: ('A' for Active; 'I' for Inactive)
REMARK    1  A    between atoms: PA_1  and  O5_4 
REMARK    2  A    between atoms: O3A_8  and  PA_1 
REMARK    3  A    between atoms: O5_4  and  C5_23 
REMARK    4  A    between atoms: PB_5  and  O3A_8 
REMARK    5  A    between atoms: O3_38  and  PB_5 
REMARK    6  A    between atoms: O3_30  and  PG_9 
REMARK    7  A    between atoms: C1_26  and  N9A_13 
REMARK    8  A    between atoms: C5_23  and  C4_24 
REMARK    9  A    between atoms: C2_27  and  O2_28 
REMARK   10  A    between atoms: C3_29  and  O3_30 
REMARK   11  A    between atoms: C5_32  and  O5_31 
REMARK   12  A    between atoms: O5_31  and  PD_39 
REMARK   13  A    between atoms: C4_33  and  C5_32 
REMARK   14  A    between atoms: C1_35  and  N1T_43 
REMARK   15  A    between atoms: C3_37  and  O3_38 
REMARK   16  A    between atoms: C5T_50  and  CM5_51 
ROOT
ATOM      1  PA  PAX d         -33.892 -32.033  14.088  0.00  0.00     0.417 P 
ATOM      2  O1A PAX d         -34.128 -33.203  13.129  0.00  0.00    -0.624 OA
ATOM      3  O2A PAX d         -34.766 -32.001  15.347  0.00  0.00    -0.624 OA
ENDROOT
BRANCH   1   4
ATOM      4  O5  PAX d         -32.367 -31.965  14.546  0.00  0.00    -0.287 OA
BRANCH   4   5
ATOM      5  C5  PAX d         -31.994 -31.313  15.739  0.00  0.00     0.058 C 
ATOM      6  H5  PAX d         -32.897 -30.997  16.282  0.00  0.00     0.079 H 
ATOM      7  H6  PAX d         -31.383 -30.430  15.499  0.00  0.00     0.079 H 
BRANCH   5   8
ATOM      8  C4  PAX d         -31.200 -32.251  16.594  0.00  0.00     0.090 C 
ATOM      9  O4  PAX d         -29.871 -32.465  16.015  0.00  0.00    -0.353 OA
ATOM     10  C1  PAX d         -28.957 -32.643  17.074  0.00  0.00     0.140 C 
ATOM     11  C2  PAX d         -29.440 -31.595  18.096  0.00  0.00     0.106 C 
ATOM     12  H8  PAX d         -29.092 -33.639  17.520  0.00  0.00     0.122 H 
ATOM     13  C3  PAX d         -30.967 -31.740  18.017  0.00  0.00     0.107 C 
ATOM     14  H9  PAX d         -29.152 -30.590  17.757  0.00  0.00     0.093 H 
ATOM     15  H11 PAX d         -31.473 -30.781  18.206  0.00  0.00     0.092 H 
ATOM     16  H7  PAX d         -31.740 -33.208  16.643  0.00  0.00     0.090 H 
BRANCH  10  17
ATOM     17  N9A PAX d         -27.547 -32.592  16.577  0.00  0.00    -0.294 N 
ATOM     18  C4A PAX d         -26.354 -32.992  17.168  0.00  0.00     0.167 A 
ATOM     19  N3A PAX d         -26.175 -33.556  18.404  0.00  0.00    -0.222 NA
ATOM     20  C5A PAX d         -25.346 -32.701  16.223  0.00  0.00     0.149 A 
ATOM     21  C2A PAX d         -24.857 -33.826  18.658  0.00  0.00     0.091 A 
ATOM     22  N1A PAX d         -23.779 -33.599  17.842  0.00  0.00    -0.222 NA
ATOM     23  H1  PAX d         -24.640 -34.274  19.621  0.00  0.00     0.146 H 
ATOM     24  C6A PAX d         -23.994 -33.031  16.604  0.00  0.00     0.155 A 
ATOM     25  N6A PAX d         -22.939 -32.820  15.822  0.00  0.00    -0.382 N 
ATOM     26  H2  PAX d         -23.063 -32.398  14.891  0.00  0.00     0.157 HD
ATOM     27  H3  PAX d         -21.996 -33.079  16.148  0.00  0.00     0.157 HD
ATOM     28  N7A PAX d         -25.892 -32.135  15.081  0.00  0.00    -0.236 NA
ATOM     29  C8A PAX d         -27.185 -32.092  15.336  0.00  0.00     0.071 A 
ATOM     30  H4  PAX d         -27.911 -31.695  14.628  0.00  0.00     0.144 H 
ENDBRANCH  10  17
BRANCH  11  31
ATOM     31  O2  PAX d         -28.892 -31.771  19.396  0.00  0.00    -0.388 OA
ATOM     32  H10 PAX d         -29.540 -31.528  20.048  0.00  0.00     0.210 HD
ENDBRANCH  11  31
BRANCH  13  33
ATOM     33  O3  PAX d         -31.447 -32.749  18.911  0.00  0.00    -0.272 OA
BRANCH  33  34
ATOM     34  PG  PAX d         -33.037 -33.100  19.063  0.00  0.00     0.422 P 
ATOM     35  O1G PAX d         -33.317 -34.267  18.120  0.00  0.00    -0.617 OA
ATOM     36  O2G PAX d         -33.233 -33.447  20.533  0.00  0.00    -0.617 OA
ATOM     37  O3G PAX d         -33.854 -31.857  18.668  0.00  0.00    -0.617 OA
ENDBRANCH  33  34
ENDBRANCH  13  33
ENDBRANCH   5   8
ENDBRANCH   4   5
ENDBRANCH   1   4
BRANCH   1  38
ATOM     38  O3A PAX d         -34.039 -30.656  13.316  0.00  0.00    -0.180 OA
BRANCH  38  39
ATOM     39  PB  PAX d         -34.404 -29.187  13.762  0.00  0.00     0.418 P 
ATOM     40  O1B PAX d         -35.592 -28.741  13.009  0.00  0.00    -0.624 OA
ATOM     41  O2B PAX d         -34.446 -29.159  15.242  0.00  0.00    -0.624 OA
BRANCH  39  42
ATOM     42  O3  PAX d         -33.064 -28.349  13.375  0.00  0.00    -0.281 OA
BRANCH  42  43
ATOM     43  C3  PAX d         -32.403 -27.513  14.327  0.00  0.00     0.081 C 
ATOM     44  C4  PAX d         -32.772 -26.050  14.058  0.00  0.00     0.087 C 
ATOM     45  O4  PAX d         -31.600 -25.430  13.460  0.00  0.00    -0.356 OA
ATOM     46  H14 PAX d         -33.608 -26.021  13.343  0.00  0.00     0.090 H 
ATOM     47  C1  PAX d         -30.658 -26.429  13.128  0.00  0.00     0.116 C 
ATOM     48  C2  PAX d         -30.900 -27.569  14.109  0.00  0.00     0.003 C 
ATOM     49  H15 PAX d         -30.825 -26.784  12.100  0.00  0.00     0.118 H 
ATOM     50  H16 PAX d         -30.357 -27.402  15.051  0.00  0.00     0.043 H 
ATOM     51  H17 PAX d         -30.598 -28.534  13.677  0.00  0.00     0.043 H 
ATOM     52  H18 PAX d         -32.670 -27.815  15.351  0.00  0.00     0.088 H 
BRANCH  44  53
ATOM     53  C5  PAX d         -33.191 -25.288  15.306  0.00  0.00     0.059 C 
ATOM     54  H12 PAX d         -33.710 -24.364  15.008  0.00  0.00     0.079 H 
ATOM     55  H13 PAX d         -33.872 -25.916  15.899  0.00  0.00     0.079 H 
BRANCH  53  56
ATOM     56  O5  PAX d         -32.037 -24.947  16.112  0.00  0.00    -0.280 OA
BRANCH  56  57
ATOM     57  PD  PAX d         -32.146 -24.671  17.731  0.00  0.00     0.422 P 
ATOM     58  O1D PAX d         -32.760 -23.263  17.860  0.00  0.00    -0.617 OA
ATOM     59  O2D PAX d         -30.706 -24.748  18.287  0.00  0.00    -0.617 OA
ATOM     60  O3D PAX d         -33.067 -25.770  18.292  0.00  0.00    -0.617 OA
ENDBRANCH  56  57
ENDBRANCH  53  56
ENDBRANCH  44  53
BRANCH  47  61
ATOM     61  N1T PAX d         -29.268 -25.869  13.229  0.00  0.00    -0.282 N 
ATOM     62  C6T PAX d         -29.016 -24.584  13.772  0.00  0.00    -0.002 A 
ATOM     63  C5T PAX d         -27.773 -24.058  13.876  0.00  0.00     0.022 A 
ATOM     64  H19 PAX d         -29.861 -23.992  14.121  0.00  0.00     0.113 H 
ATOM     65  C4T PAX d         -26.626 -24.847  13.411  0.00  0.00     0.256 A 
ATOM     66  N3T PAX d         -26.941 -26.113  12.879  0.00  0.00    -0.275 N 
ATOM     67  O4T PAX d         -25.443 -24.504  13.457  0.00  0.00    -0.267 OA
ATOM     68  C2T PAX d         -28.208 -26.681  12.756  0.00  0.00     0.331 A 
ATOM     69  H20 PAX d         -26.172 -26.663  12.553  0.00  0.00     0.173 HD
ATOM     70  O2T PAX d         -28.374 -27.782  12.284  0.00  0.00    -0.246 OA
BRANCH  63  71
ATOM     71  CM5 PAX d         -27.584 -22.696  14.466  0.00  0.00    -0.045 C 
ATOM     72  H21 PAX d         -28.425 -22.051  14.174  0.00  0.00     0.033 H 
ATOM     73  H22 PAX d         -26.644 -22.263  14.094  0.00  0.00     0.033 H 
ATOM     74  H23 PAX d         -27.544 -22.774  15.562  0.00  0.00     0.033 H 
ENDBRANCH  63  71
ENDBRANCH  47  61
ENDBRANCH  42  43
ENDBRANCH  39  42
ENDBRANCH  38  39
ENDBRANCH   1  38
TORSDOF 16
ENDMDL
MODEL 5
REMARK VINA RESULT:      -5.0      3.889      9.488
REMARK  16 active torsions:
REMARK  status: ('A' for Active; 'I' for Inactive)
REMARK    1  A    between atoms: PA_1  and  O5_4 
REMARK    2  A    between atoms: O3A_8  and  PA_1 
REMARK    3  A    between atoms: O5_4  and  C5_23 
REMARK    4  A    between atoms: PB_5  and  O3A_8 
REMARK    5  A    between atoms: O3_38  and  PB_5 
REMARK    6  A    between atoms: O3_30  and  PG_9 
REMARK    7  A    between atoms: C1_26  and  N9A_13 
REMARK    8  A    between atoms: C5_23  and  C4_24 
REMARK    9  A    between atoms: C2_27  and  O2_28 
REMARK   10  A    between atoms: C3_29  and  O3_30 
REMARK   11  A    between atoms: C5_32  and  O5_31 
REMARK   12  A    between atoms: O5_31  and  PD_39 
REMARK   13  A    between atoms: C4_33  and  C5_32 
REMARK   14  A    between atoms: C1_35  and  N1T_43 
REMARK   15  A    between atoms: C3_37  and  O3_38 
REMARK   16  A    between atoms: C5T_50  and  CM5_51 
ROOT
ATOM      1  PA  PAX d         -30.312 -27.119  15.920  0.00  0.00     0.417 P 
ATOM      2  O1A PAX d         -29.265 -26.519  14.977  0.00  0.00    -0.624 OA
ATOM      3  O2A PAX d         -30.504 -26.406  17.263  0.00  0.00    -0.624 OA
ENDROOT
BRANCH   1   4
ATOM      4  O5  PAX d         -31.734 -27.219  15.207  0.00  0.00    -0.287 OA
BRANCH   4   5
ATOM      5  C5  PAX d         -32.764 -26.303  15.507  0.00  0.00     0.058 C 
ATOM      6  H5  PAX d         -33.031 -25.741  14.599  0.00  0.00     0.079 H 
ATOM      7  H6  PAX d         -32.419 -25.604  16.283  0.00  0.00     0.079 H 
BRANCH   5   8
ATOM      8  C4  PAX d         -33.964 -27.047  16.004  0.00  0.00     0.090 C 
ATOM      9  O4  PAX d         -34.265 -28.176  15.119  0.00  0.00    -0.353 OA
ATOM     10  C1  PAX d         -34.788 -29.222  15.908  0.00  0.00     0.140 C 
ATOM     11  C2  PAX d         -33.899 -29.152  17.166  0.00  0.00     0.106 C 
ATOM     12  H8  PAX d         -35.819 -28.983  16.208  0.00  0.00     0.122 H 
ATOM     13  C3  PAX d         -33.785 -27.639  17.404  0.00  0.00     0.107 C 
ATOM     14  H9  PAX d         -32.904 -29.560  16.936  0.00  0.00     0.093 H 
ATOM     15  H11 PAX d         -32.816 -27.373  17.850  0.00  0.00     0.092 H 
ATOM     16  H7  PAX d         -34.816 -26.351  16.018  0.00  0.00     0.090 H 
BRANCH  10  17
ATOM     17  N9A PAX d         -34.860 -30.495  15.126  0.00  0.00    -0.294 N 
ATOM     18  C4A PAX d         -35.169 -31.792  15.519  0.00  0.00     0.167 A 
ATOM     19  N3A PAX d         -35.496 -32.236  16.773  0.00  0.00    -0.222 NA
ATOM     20  C5A PAX d         -35.081 -32.575  14.346  0.00  0.00     0.149 A 
ATOM     21  C2A PAX d         -35.741 -33.584  16.792  0.00  0.00     0.091 A 
ATOM     22  N1A PAX d         -35.693 -34.462  15.741  0.00  0.00    -0.222 NA
ATOM     23  H1  PAX d         -36.005 -34.006  17.755  0.00  0.00     0.146 H 
ATOM     24  C6A PAX d         -35.362 -33.982  14.491  0.00  0.00     0.155 A 
ATOM     25  N6A PAX d         -35.323 -34.846  13.481  0.00  0.00    -0.382 N 
ATOM     26  H2  PAX d         -35.080 -34.521  12.534  0.00  0.00     0.157 HD
ATOM     27  H3  PAX d         -35.537 -35.841  13.645  0.00  0.00     0.157 HD
ATOM     28  N7A PAX d         -34.726 -31.791  13.259  0.00  0.00    -0.236 NA
ATOM     29  C8A PAX d         -34.609 -30.580  13.766  0.00  0.00     0.071 A 
ATOM     30  H4  PAX d         -34.336 -29.714  13.164  0.00  0.00     0.144 H 
ENDBRANCH  10  17
BRANCH  11  31
ATOM     31  O2  PAX d         -34.410 -29.891  18.267  0.00  0.00    -0.388 OA
ATOM     32  H10 PAX d         -33.862 -29.743  19.029  0.00  0.00     0.210 HD
ENDBRANCH  11  31
BRANCH  13  33
ATOM     33  O3  PAX d         -34.863 -27.151  18.208  0.00  0.00    -0.272 OA
BRANCH  33  34
ATOM     34  PG  PAX d         -34.729 -25.806  19.130  0.00  0.00     0.422 P 
ATOM     35  O1G PAX d         -33.242 -25.466  19.190  0.00  0.00    -0.617 OA
ATOM     36  O2G PAX d         -35.566 -24.749  18.423  0.00  0.00    -0.617 OA
ATOM     37  O3G PAX d         -35.286 -26.115  20.532  0.00  0.00    -0.617 OA
ENDBRANCH  33  34
ENDBRANCH  13  33
ENDBRANCH   5   8
ENDBRANCH   4   5
ENDBRANCH   1   4
BRANCH   1  38
ATOM     38  O3A PAX d         -29.996 -28.650  16.183  0.00  0.00    -0.180 OA
BRANCH  38  39
ATOM     39  PB  PAX d         -29.993 -29.938  15.271  0.00  0.00     0.418 P 
ATOM     40  O1B PAX d         -31.388 -30.346  15.018  0.00  0.00    -0.624 OA
ATOM     41  O2B PAX d         -29.107 -29.673  14.115  0.00  0.00    -0.624 OA
BRANCH  39  42
ATOM     42  O3  PAX d         -29.177 -31.018  16.174  0.00  0.00    -0.281 OA
BRANCH  42  43
ATOM     43  C3  PAX d         -28.550 -32.161  15.588  0.00  0.00     0.081 C 
ATOM     44  C4  PAX d         -28.850 -33.397  16.444  0.00  0.00     0.087 C 
ATOM     45  O4  PAX d         -27.621 -33.718  17.152  0.00  0.00    -0.356 OA
ATOM     46  H14 PAX d         -29.636 -33.142  17.171  0.00  0.00     0.090 H 
ATOM     47  C1  PAX d         -26.694 -32.664  16.988  0.00  0.00     0.116 C 
ATOM     48  C2  PAX d         -27.039 -32.014  15.654  0.00  0.00     0.003 C 
ATOM     49  H15 PAX d         -26.807 -31.929  17.799  0.00  0.00     0.118 H 
ATOM     50  H16 PAX d         -26.553 -32.541  14.820  0.00  0.00     0.043 H 
ATOM     51  H17 PAX d         -26.743 -30.954  15.642  0.00  0.00     0.043 H 
ATOM     52  H18 PAX d         -28.894 -32.296  14.551  0.00  0.00     0.088 H 
BRANCH  44  53
ATOM     53  C5  PAX d         -29.323 -34.596  15.638  0.00  0.00     0.059 C 
ATOM     54  H12 PAX d         -29.733 -34.247  14.678  0.00  0.00     0.079 H 
ATOM     55  H13 PAX d         -28.469 -35.263  15.450  0.00  0.00     0.079 H 
BRANCH  53  56
ATOM     56  O5  PAX d         -30.348 -35.328  16.355  0.00  0.00    -0.280 OA
BRANCH  56  57
ATOM     57  PD  PAX d         -31.930 -34.873  16.333  0.00  0.00     0.422 P 
ATOM     58  O1D PAX d         -32.278 -34.551  17.799  0.00  0.00    -0.617 OA
ATOM     59  O2D PAX d         -32.723 -36.079  15.780  0.00  0.00    -0.617 OA
ATOM     60  O3D PAX d         -32.006 -33.635  15.422  0.00  0.00    -0.617 OA
ENDBRANCH  56  57
ENDBRANCH  53  56
ENDBRANCH  44  53
BRANCH  47  61
ATOM     61  N1T PAX d         -25.296 -33.209  17.017  0.00  0.00    -0.282 N 
ATOM     62  C6T PAX d         -24.394 -33.019  15.939  0.00  0.00    -0.002 A 
ATOM     63  C5T PAX d         -23.128 -33.498  15.942  0.00  0.00     0.022 A 
ATOM     64  H19 PAX d         -24.736 -32.462  15.068  0.00  0.00     0.113 H 
ATOM     65  C4T PAX d         -22.655 -34.248  17.111  0.00  0.00     0.256 A 
ATOM     66  N3T PAX d         -23.597 -34.407  18.147  0.00  0.00    -0.275 N 
ATOM     67  O4T PAX d         -21.529 -34.727  17.259  0.00  0.00    -0.267 OA
ATOM     68  C2T PAX d         -24.905 -33.928  18.173  0.00  0.00     0.331 A 
ATOM     69  H20 PAX d         -23.293 -34.919  18.951  0.00  0.00     0.173 HD
ATOM     70  O2T PAX d         -25.639 -34.117  19.116  0.00  0.00    -0.246 OA
BRANCH  63  71
ATOM     71  CM5 PAX d         -22.233 -33.253  14.769  0.00  0.00    -0.045 C 
ATOM     72  H21 PAX d         -21.184 -33.280  15.097  0.00  0.00     0.033 H 
ATOM     73  H22 PAX d         -22.456 -32.265  14.338  0.00  0.00     0.033 H 
ATOM     74  H23 PAX d         -22.401 -34.031  14.011  0.00  0.00     0.033 H 
ENDBRANCH  63  71
ENDBRANCH  47  61
ENDBRANCH  42  43
ENDBRANCH  39  42
ENDBRANCH  38  39
ENDBRANCH   1  38
TORSDOF 16
ENDMDL
MODEL 6
REMARK VINA RESULT:      -4.6      3.031      8.493
REMARK  16 active torsions:
REMARK  status: ('A' for Active; 'I' for Inactive)
REMARK    1  A    between atoms: PA_1  and  O5_4 
REMARK    2  A    between atoms: O3A_8  and  PA_1 
REMARK    3  A    between atoms: O5_4  and  C5_23 
REMARK    4  A    between atoms: PB_5  and  O3A_8 
REMARK    5  A    between atoms: O3_38  and  PB_5 
REMARK    6  A    between atoms: O3_30  and  PG_9 
REMARK    7  A    between atoms: C1_26  and  N9A_13 
REMARK    8  A    between atoms: C5_23  and  C4_24 
REMARK    9  A    between atoms: C2_27  and  O2_28 
REMARK   10  A    between atoms: C3_29  and  O3_30 
REMARK   11  A    between atoms: C5_32  and  O5_31 
REMARK   12  A    between atoms: O5_31  and  PD_39 
REMARK   13  A    between atoms: C4_33  and  C5_32 
REMARK   14  A    between atoms: C1_35  and  N1T_43 
REMARK   15  A    between atoms: C3_37  and  O3_38 
REMARK   16  A    between atoms: C5T_50  and  CM5_51 
ROOT
ATOM      1  PA  PAX d         -30.633 -25.400  16.721  0.00  0.00     0.417 P 
ATOM      2  O1A PAX d         -29.486 -24.389  16.805  0.00  0.00    -0.624 OA
ATOM      3  O2A PAX d         -32.051 -24.828  16.823  0.00  0.00    -0.624 OA
ENDROOT
BRANCH   1   4
ATOM      4  O5  PAX d         -30.543 -26.259  15.381  0.00  0.00    -0.287 OA
BRANCH   4   5
ATOM      5  C5  PAX d         -30.850 -25.688  14.129  0.00  0.00     0.058 C 
ATOM      6  H5  PAX d         -29.932 -25.606  13.529  0.00  0.00     0.079 H 
ATOM      7  H6  PAX d         -31.282 -24.687  14.279  0.00  0.00     0.079 H 
BRANCH   5   8
ATOM      8  C4  PAX d         -31.838 -26.555  13.414  0.00  0.00     0.090 C 
ATOM      9  O4  PAX d         -31.304 -27.911  13.257  0.00  0.00    -0.353 OA
ATOM     10  C1  PAX d         -32.383 -28.817  13.332  0.00  0.00     0.140 C 
ATOM     11  C2  PAX d         -33.237 -28.207  14.462  0.00  0.00     0.106 C 
ATOM     12  H8  PAX d         -32.969 -28.775  12.403  0.00  0.00     0.122 H 
ATOM     13  C3  PAX d         -33.171 -26.705  14.148  0.00  0.00     0.107 C 
ATOM     14  H9  PAX d         -32.754 -28.398  15.431  0.00  0.00     0.093 H 
ATOM     15  H11 PAX d         -33.214 -26.100  15.066  0.00  0.00     0.092 H 
ATOM     16  H7  PAX d         -32.024 -26.115  12.423  0.00  0.00     0.090 H 
BRANCH  10  17
ATOM     17  N9A PAX d         -31.891 -30.224  13.457  0.00  0.00    -0.294 N 
ATOM     18  C4A PAX d         -30.617 -30.729  13.694  0.00  0.00     0.167 A 
ATOM     19  N3A PAX d         -29.455 -30.028  13.879  0.00  0.00    -0.222 NA
ATOM     20  C5A PAX d         -30.763 -32.134  13.711  0.00  0.00     0.149 A 
ATOM     21  C2A PAX d         -28.384 -30.855  14.091  0.00  0.00     0.091 A 
ATOM     22  N1A PAX d         -28.377 -32.225  14.132  0.00  0.00    -0.222 NA
ATOM     23  H1  PAX d         -27.428 -30.368  14.244  0.00  0.00     0.146 H 
ATOM     24  C6A PAX d         -29.564 -32.901  13.944  0.00  0.00     0.155 A 
ATOM     25  N6A PAX d         -29.540 -34.230  13.991  0.00  0.00    -0.382 N 
ATOM     26  H2  PAX d         -30.409 -34.766  13.855  0.00  0.00     0.157 HD
ATOM     27  H3  PAX d         -28.653 -34.724  14.164  0.00  0.00     0.157 HD
ATOM     28  N7A PAX d         -32.084 -32.492  13.489  0.00  0.00    -0.236 NA
ATOM     29  C8A PAX d         -32.706 -31.339  13.347  0.00  0.00     0.071 A 
ATOM     30  H4  PAX d         -33.776 -31.268  13.158  0.00  0.00     0.144 H 
ENDBRANCH  10  17
BRANCH  11  31
ATOM     31  O2  PAX d         -34.551 -28.744  14.535  0.00  0.00    -0.388 OA
ATOM     32  H10 PAX d         -34.600 -29.362  15.255  0.00  0.00     0.210 HD
ENDBRANCH  11  31
BRANCH  13  33
ATOM     33  O3  PAX d         -34.201 -26.313  13.236  0.00  0.00    -0.272 OA
BRANCH  33  34
ATOM     34  PG  PAX d         -34.704 -24.763  13.096  0.00  0.00     0.422 P 
ATOM     35  O1G PAX d         -33.590 -24.007  12.376  0.00  0.00    -0.617 OA
ATOM     36  O2G PAX d         -36.002 -24.831  12.302  0.00  0.00    -0.617 OA
ATOM     37  O3G PAX d         -34.941 -24.195  14.507  0.00  0.00    -0.617 OA
ENDBRANCH  33  34
ENDBRANCH  13  33
ENDBRANCH   5   8
ENDBRANCH   4   5
ENDBRANCH   1   4
BRANCH   1  38
ATOM     38  O3A PAX d         -30.446 -26.528  17.819  0.00  0.00    -0.180 OA
BRANCH  38  39
ATOM     39  PB  PAX d         -31.446 -27.444  18.627  0.00  0.00     0.418 P 
ATOM     40  O1B PAX d         -31.775 -26.781  19.903  0.00  0.00    -0.624 OA
ATOM     41  O2B PAX d         -32.549 -27.824  17.716  0.00  0.00    -0.624 OA
BRANCH  39  42
ATOM     42  O3  PAX d         -30.594 -28.815  18.833  0.00  0.00    -0.281 OA
BRANCH  42  43
ATOM     43  C3  PAX d         -30.400 -29.743  17.764  0.00  0.00     0.081 C 
ATOM     44  C4  PAX d         -30.986 -31.103  18.162  0.00  0.00     0.087 C 
ATOM     45  O4  PAX d         -29.855 -31.973  18.446  0.00  0.00    -0.356 OA
ATOM     46  H14 PAX d         -31.589 -30.976  19.072  0.00  0.00     0.090 H 
ATOM     47  C1  PAX d         -28.670 -31.206  18.489  0.00  0.00     0.116 C 
ATOM     48  C2  PAX d         -28.916 -30.012  17.575  0.00  0.00     0.003 C 
ATOM     49  H15 PAX d         -28.481 -30.854  19.514  0.00  0.00     0.118 H 
ATOM     50  H16 PAX d         -28.689 -30.262  16.528  0.00  0.00     0.043 H 
ATOM     51  H17 PAX d         -28.314 -29.145  17.884  0.00  0.00     0.043 H 
ATOM     52  H18 PAX d         -30.858 -29.362  16.839  0.00  0.00     0.088 H 
BRANCH  44  53
ATOM     53  C5  PAX d         -31.870 -31.722  17.091  0.00  0.00     0.059 C 
ATOM     54  H12 PAX d         -32.919 -31.454  17.290  0.00  0.00     0.079 H 
ATOM     55  H13 PAX d         -31.573 -31.330  16.107  0.00  0.00     0.079 H 
BRANCH  53  56
ATOM     56  O5  PAX d         -31.740 -33.165  17.086  0.00  0.00    -0.280 OA
BRANCH  56  57
ATOM     57  PD  PAX d         -32.928 -34.156  17.649  0.00  0.00     0.422 P 
ATOM     58  O1D PAX d         -34.209 -33.704  16.920  0.00  0.00    -0.617 OA
ATOM     59  O2D PAX d         -32.999 -33.931  19.177  0.00  0.00    -0.617 OA
ATOM     60  O3D PAX d         -32.508 -35.587  17.270  0.00  0.00    -0.617 OA
ENDBRANCH  56  57
ENDBRANCH  53  56
ENDBRANCH  44  53
BRANCH  47  61
ATOM     61  N1T PAX d         -27.507 -32.043  18.040  0.00  0.00    -0.282 N 
ATOM     62  C6T PAX d         -27.688 -33.295  17.398  0.00  0.00    -0.002 A 
ATOM     63  C5T PAX d         -26.657 -34.067  16.982  0.00  0.00     0.022 A 
ATOM     64  H19 PAX d         -28.704 -33.651  17.232  0.00  0.00     0.113 H 
ATOM     65  C4T PAX d         -25.284 -33.595  17.198  0.00  0.00     0.256 A 
ATOM     66  N3T PAX d         -25.169 -32.348  17.844  0.00  0.00    -0.275 N 
ATOM     67  O4T PAX d         -24.254 -34.182  16.861  0.00  0.00    -0.267 OA
ATOM     68  C2T PAX d         -26.209 -31.532  18.285  0.00  0.00     0.331 A 
ATOM     69  H20 PAX d         -24.240 -32.013  18.003  0.00  0.00     0.173 HD
ATOM     70  O2T PAX d         -26.005 -30.472  18.830  0.00  0.00    -0.246 OA
BRANCH  63  71
ATOM     71  CM5 PAX d         -26.927 -35.374  16.307  0.00  0.00    -0.045 C 
ATOM     72  H21 PAX d         -27.706 -35.238  15.543  0.00  0.00     0.033 H 
ATOM     73  H22 PAX d         -27.268 -36.108  17.052  0.00  0.00     0.033 H 
ATOM     74  H23 PAX d         -26.005 -35.737  15.830  0.00  0.00     0.033 H 
ENDBRANCH  63  71
ENDBRANCH  47  61
ENDBRANCH  42  43
ENDBRANCH  39  42
ENDBRANCH  38  39
ENDBRANCH   1  38
TORSDOF 16
ENDMDL
