MODEL 1
REMARK VINA RESULT:      -5.4      0.000      0.000
REMARK WARNING: 32 MAX_TORS EXCEEDED!!!
REMARK  34 active torsions:
REMARK  status: ('A' for Active; 'I' for Inactive)
REMARK    1  A    between atoms: N_1  and  CA_2 
REMARK    2  A    between atoms: CA_2  and  CB_3 
REMARK    3  A    between atoms: CA_2  and  C_6 
REMARK    4  A    between atoms: CB_3  and  CG1_4 
REMARK    5  A    between atoms: CB_3  and  CG2_5 
REMARK       I    between atoms: C_6  and  N_8 
REMARK    6  A    between atoms: CA_9  and  C_13 
REMARK       I    between atoms: C_13  and  N_15 
REMARK    7  A    between atoms: N_15  and  CA_16 
REMARK    8  A    between atoms: CA_16  and  C_17 
REMARK       I    between atoms: C_17  and  N_19 
REMARK    9  A    between atoms: N_19  and  CA_20 
REMARK   10  A    between atoms: CA_20  and  C_21 
REMARK   11  A    between atoms: CA_20  and  CB_23 
REMARK       I    between atoms: C_21  and  N_25 
REMARK   12  A    between atoms: CB_23  and  OG_24 
REMARK   13  A    between atoms: N_25  and  CA_26 
REMARK   14  A    between atoms: CA_26  and  C_27 
REMARK   15  A    between atoms: CA_26  and  CB_29 
REMARK       I    between atoms: C_27  and  N_34 
REMARK   16  A    between atoms: CB_29  and  CG_30 
REMARK   17  A    between atoms: CG_30  and  CD_31 
REMARK       I    between atoms: CD_31  and  NE2_33 
REMARK   18  A    between atoms: N_34  and  CA_35 
REMARK   19  A    between atoms: CA_35  and  C_36 
REMARK   20  A    between atoms: CA_35  and  CB_38 
REMARK       I    between atoms: C_36  and  N_44 
REMARK   21  A    between atoms: CB_38  and  CG_39 
REMARK   22  A    between atoms: N_44  and  CA_45 
REMARK   23  A    between atoms: CA_45  and  C_46 
REMARK   24  A    between atoms: CA_45  and  CB_48 
REMARK       I    between atoms: C_46  and  N_56 
REMARK   25  A    between atoms: CB_48  and  CG_49 
REMARK   26  A    between atoms: CZ_54  and  OH_55 
REMARK   27  A    between atoms: N_56  and  CA_57 
REMARK   28  A    between atoms: CA_57  and  C_58 
REMARK   29  A    between atoms: CA_57  and  CB_60 
REMARK       I    between atoms: C_58  and  N_64 
REMARK   30  A    between atoms: CB_60  and  CG_61 
REMARK   31  A    between atoms: N_64  and  CA_65 
REMARK   32  A    between atoms: CA_65  and  C_66 
REMARK   33  A    between atoms: CA_65  and  CB_69 
REMARK   34  A    between atoms: CB_69  and  OG_70 
ROOT
ATOM      1  CA  DVA d          41.518  53.535  89.585  0.00  0.00     0.090 C 
ATOM      2  H28 DVA d          40.529  53.596  89.107  0.00  0.00     0.087 H 
ENDROOT
BRANCH   1   3
ATOM      3  N   DVA d          41.846  54.833  90.151  0.00  0.00    -0.346 N 
ATOM      4  C   DVA d          41.184  55.900  89.741  0.00  0.00     0.243 C 
ATOM      5  O   DVA d          40.291  55.836  88.911  0.00  0.00    -0.271 OA
ATOM      6  H27 DVA d          42.564  54.917  90.842  0.00  0.00     0.163 HD
BRANCH   4   7
ATOM      7  CA  DVA d          41.595  57.237  90.328  0.00  0.00     0.109 C 
ATOM      8  H23 DVA d          42.578  57.167  90.817  0.00  0.00     0.090 H 
BRANCH   7   9
ATOM      9  N   DVA d          40.584  57.625  91.286  0.00  0.00    -0.344 N 
ATOM     10  C   DVA d          40.896  58.171  92.450  0.00  0.00     0.236 C 
ATOM     11  O   DVA d          42.056  58.392  92.802  0.00  0.00    -0.272 OA
ATOM     12  H22 DVA d          39.621  57.476  91.062  0.00  0.00     0.163 HD
BRANCH  10  13
ATOM     13  CA  DVA d          39.741  58.523  93.350  0.00  0.00     0.069 C 
ATOM     14  H20 DVA d          39.721  59.608  93.532  0.00  0.00     0.078 H 
ATOM     15  H21 DVA d          38.794  58.212  92.886  0.00  0.00     0.078 H 
BRANCH  13  16
ATOM     16  N   DVA d          39.935  57.817  94.593  0.00  0.00    -0.351 N 
ATOM     17  C   DVA d          39.802  56.500  94.662  0.00  0.00     0.241 C 
ATOM     18  O   DVA d          39.523  55.795  93.687  0.00  0.00    -0.271 OA
ATOM     19  H19 DVA d          40.175  58.331  95.418  0.00  0.00     0.163 HD
BRANCH  17  20
ATOM     20  CA  DVA d          40.035  55.898  96.046  0.00  0.00     0.091 C 
ATOM     21  N   DVA d          40.413  54.481  95.933  0.00  0.00    -0.337 N 
ATOM     22  C   DVA d          41.556  53.830  95.593  0.00  0.00     0.251 C 
ATOM     23  CD  DVA d          39.262  53.627  96.286  0.00  0.00    -0.001 C 
ATOM     24  O   DVA d          41.599  52.595  95.538  0.00  0.00    -0.271 OA
ATOM     25  CG  DVA d          38.109  54.614  96.316  0.00  0.00    -0.048 C 
ATOM     26  H17 DVA d          39.405  53.156  97.269  0.00  0.00     0.064 H 
ATOM     27  H18 DVA d          39.098  52.849  95.526  0.00  0.00     0.064 H 
ATOM     28  CB  DVA d          38.750  55.842  96.860  0.00  0.00    -0.036 C 
ATOM     29  H15 DVA d          37.708  54.787  95.307  0.00  0.00     0.035 H 
ATOM     30  H16 DVA d          37.303  54.262  96.976  0.00  0.00     0.035 H 
ATOM     31  H13 DVA d          38.125  56.731  96.687  0.00  0.00     0.036 H 
ATOM     32  H14 DVA d          38.959  55.744  97.936  0.00  0.00     0.036 H 
ATOM     33  H12 DVA d          40.809  56.477  96.571  0.00  0.00     0.087 H 
BRANCH  22  34
ATOM     34  CA  DVA d          42.818  54.646  95.224  0.00  0.00     0.178 C 
ATOM     35  H4  DVA d          42.484  55.652  94.932  0.00  0.00     0.099 H 
BRANCH  34  36
ATOM     36  N   DVA d          43.479  54.014  94.048  0.00  0.00    -0.066 N 
ATOM     37  H1  DVA d          42.854  54.039  93.257  0.00  0.00     0.275 HD
ATOM     38  H2  DVA d          43.708  53.056  94.265  0.00  0.00     0.275 HD
ATOM     39  H3  DVA d          44.323  54.518  93.826  0.00  0.00     0.275 HD
ENDBRANCH  34  36
BRANCH  34  40
ATOM     40  CB  DVA d          43.833  54.817  96.371  0.00  0.00    -0.025 C 
ATOM     41  H5  DVA d          44.350  55.782  96.257  0.00  0.00     0.042 H 
BRANCH  40  42
ATOM     42  CG1 DVA d          43.120  54.795  97.714  0.00  0.00    -0.071 C 
ATOM     43  H6  DVA d          42.223  55.429  97.664  0.00  0.00     0.028 H 
ATOM     44  H7  DVA d          43.796  55.176  98.494  0.00  0.00     0.028 H 
ATOM     45  H8  DVA d          42.827  53.762  97.956  0.00  0.00     0.028 H 
ENDBRANCH  40  42
BRANCH  40  46
ATOM     46  CG2 DVA d          44.858  53.683  96.299  0.00  0.00    -0.071 C 
ATOM     47  H9  DVA d          44.619  53.026  95.449  0.00  0.00     0.028 H 
ATOM     48  H10 DVA d          44.828  53.101  97.232  0.00  0.00     0.028 H 
ATOM     49  H11 DVA d          45.864  54.106  96.163  0.00  0.00     0.028 H 
ENDBRANCH  40  46
ENDBRANCH  34  40
ENDBRANCH  22  34
ENDBRANCH  17  20
ENDBRANCH  13  16
ENDBRANCH  10  13
ENDBRANCH   7   9
BRANCH   7  50
ATOM     50  CB  DVA d          41.641  58.238  89.179  0.00  0.00     0.044 C 
ATOM     51  H24 DVA d          41.359  59.234  89.552  0.00  0.00     0.077 H 
ATOM     52  H25 DVA d          40.933  57.926  88.396  0.00  0.00     0.077 H 
BRANCH  50  53
ATOM     53  OG  DVA d          42.949  58.295  88.634  0.00  0.00    -0.398 OA
ATOM     54  H26 DVA d          43.575  58.439  89.333  0.00  0.00     0.209 HD
ENDBRANCH  50  53
ENDBRANCH   7  50
ENDBRANCH   4   7
ENDBRANCH   1   3
BRANCH   1  55
ATOM     55  C   DVA d          42.546  53.134  88.530  0.00  0.00     0.241 C 
ATOM     56  O   DVA d          43.158  52.066  88.624  0.00  0.00    -0.271 OA
ATOM     57  N   DVA d          42.734  53.995  87.528  0.00  0.00    -0.346 N 
ATOM     58  H35 DVA d          42.185  54.831  87.495  0.00  0.00     0.163 HD
BRANCH  57  59
ATOM     59  CA  DVA d          43.731  53.744  86.465  0.00  0.00     0.094 C 
ATOM     60  H36 DVA d          43.812  54.657  85.858  0.00  0.00     0.088 H 
BRANCH  59  61
ATOM     61  C   DVA d          45.091  53.371  86.982  0.00  0.00     0.241 C 
ATOM     62  O   DVA d          45.901  54.255  87.292  0.00  0.00    -0.271 OA
ATOM     63  N   DVA d          45.349  52.069  87.038  0.00  0.00    -0.346 N 
ATOM     64  H42 DVA d          44.623  51.410  86.844  0.00  0.00     0.163 HD
BRANCH  63  65
ATOM     65  CA  DVA d          46.689  51.594  87.383  0.00  0.00     0.093 C 
ATOM     66  H43 DVA d          47.406  52.153  86.764  0.00  0.00     0.088 H 
BRANCH  65  67
ATOM     67  C   DVA d          47.105  51.790  88.836  0.00  0.00     0.241 C 
ATOM     68  O   DVA d          48.243  51.477  89.198  0.00  0.00    -0.271 OA
ATOM     69  N   DVA d          46.182  52.292  89.653  0.00  0.00    -0.345 N 
ATOM     70  H51 DVA d          45.276  52.506  89.288  0.00  0.00     0.163 HD
BRANCH  69  71
ATOM     71  CA  DVA d          46.452  52.541  91.076  0.00  0.00     0.098 C 
ATOM     72  H52 DVA d          47.544  52.553  91.211  0.00  0.00     0.088 H 
BRANCH  71  73
ATOM     73  C   DVA d          45.892  53.864  91.596  0.00  0.00     0.241 C 
ATOM     74  O   DVA d          44.741  54.230  91.324  0.00  0.00    -0.271 OA
ATOM     75  N   DVA d          46.745  54.544  92.365  0.00  0.00    -0.343 N 
ATOM     76  H55 DVA d          47.652  54.143  92.495  0.00  0.00     0.163 HD
BRANCH  75  77
ATOM     77  CA  DVA d          46.483  55.818  93.036  0.00  0.00     0.116 C 
ATOM     78  H56 DVA d          45.392  55.893  93.157  0.00  0.00     0.093 H 
BRANCH  77  79
ATOM     79  C   DVA d          47.090  55.915  94.429  0.00  0.00     0.198 C 
ATOM     80  O   DVA d          48.075  55.199  94.701  0.00  0.00    -0.646 OA
ATOM     81  OXT DVA d          46.562  56.723  95.228  0.00  0.00    -0.646 OA
ENDBRANCH  77  79
BRANCH  77  82
ATOM     82  CB  DVA d          46.932  57.008  92.180  0.00  0.00     0.045 C 
ATOM     83  H57 DVA d          46.114  57.742  92.127  0.00  0.00     0.077 H 
ATOM     84  H58 DVA d          47.173  56.652  91.167  0.00  0.00     0.077 H 
BRANCH  82  85
ATOM     85  OG  DVA d          48.082  57.634  92.738  0.00  0.00    -0.398 OA
ATOM     86  H59 DVA d          47.919  58.565  92.834  0.00  0.00     0.209 HD
ENDBRANCH  82  85
ENDBRANCH  77  82
ENDBRANCH  75  77
ENDBRANCH  71  73
BRANCH  71  87
ATOM     87  CB  DVA d          45.857  51.424  91.937  0.00  0.00     0.043 C 
ATOM     88  H53 DVA d          45.256  50.766  91.294  0.00  0.00     0.052 H 
ATOM     89  H54 DVA d          45.212  51.877  92.704  0.00  0.00     0.052 H 
BRANCH  87  90
ATOM     90  CG  DVA d          46.912  50.596  92.623  0.00  0.00     0.175 C 
ATOM     91  OD1 DVA d          48.048  51.093  92.786  0.00  0.00    -0.648 OA
ATOM     92  OD2 DVA d          46.606  49.458  93.013  0.00  0.00    -0.648 OA
ENDBRANCH  87  90
ENDBRANCH  71  87
ENDBRANCH  69  71
ENDBRANCH  65  67
BRANCH  65  93
ATOM     93  CB  DVA d          46.776  50.110  87.011  0.00  0.00    -0.014 C 
ATOM     94  H44 DVA d          46.385  49.514  87.849  0.00  0.00     0.043 H 
ATOM     95  H45 DVA d          47.831  49.853  86.838  0.00  0.00     0.043 H 
BRANCH  93  96
ATOM     96  CG  DVA d          45.980  49.769  85.760  0.00  0.00    -0.056 A 
ATOM     97  CD1 DVA d          46.413  50.191  84.499  0.00  0.00    -0.074 A 
ATOM     98  CE1 DVA d          45.676  49.917  83.334  0.00  0.00    -0.051 A 
ATOM     99  H46 DVA d          47.341  50.744  84.417  0.00  0.00     0.084 H 
ATOM    100  CZ  DVA d          44.474  49.191  83.448  0.00  0.00     0.065 A 
ATOM    101  H48 DVA d          46.027  50.257  82.366  0.00  0.00     0.087 H 
ATOM    102  CE2 DVA d          44.029  48.766  84.691  0.00  0.00    -0.051 A 
ATOM    103  CD2 DVA d          44.778  49.054  85.846  0.00  0.00    -0.074 A 
ATOM    104  H49 DVA d          43.102  48.210  84.772  0.00  0.00     0.087 H 
ATOM    105  H47 DVA d          44.421  48.718  86.813  0.00  0.00     0.084 H 
BRANCH 100 106
ATOM    106  OH  DVA d          43.733  48.880  82.330  0.00  0.00    -0.361 OA
ATOM    107  H50 DVA d          43.891  49.530  81.656  0.00  0.00     0.217 HD
ENDBRANCH 100 106
ENDBRANCH  93  96
ENDBRANCH  65  93
ENDBRANCH  63  65
ENDBRANCH  59  61
BRANCH  59 108
ATOM    108  CB  DVA d          43.332  52.567  85.573  0.00  0.00     0.004 C 
ATOM    109  H37 DVA d          42.647  51.921  86.141  0.00  0.00     0.046 H 
ATOM    110  H38 DVA d          44.242  52.003  85.320  0.00  0.00     0.046 H 
BRANCH 108 111
ATOM    111  CG  DVA d          42.654  52.960  84.295  0.00  0.00     0.053 A 
ATOM    112  ND1 DVA d          43.321  53.049  83.089  0.00  0.00    -0.247 NA
ATOM    113  CE1 DVA d          42.462  53.389  82.139  0.00  0.00     0.064 A 
ATOM    114  NE2 DVA d          41.262  53.526  82.689  0.00  0.00    -0.359 N 
ATOM    115  H40 DVA d          42.700  53.530  81.085  0.00  0.00     0.143 H 
ATOM    116  CD2 DVA d          41.360  53.264  84.038  0.00  0.00     0.002 A 
ATOM    117  H41 DVA d          40.400  53.786  82.190  0.00  0.00     0.166 HD
ATOM    118  H39 DVA d          40.548  53.297  84.763  0.00  0.00     0.114 H 
ENDBRANCH 108 111
ENDBRANCH  59 108
ENDBRANCH  57  59
ENDBRANCH   1  55
BRANCH   1 119
ATOM    119  CB  DVA d          41.464  52.486  90.703  0.00  0.00    -0.030 C 
ATOM    120  H29 DVA d          42.475  52.087  90.870  0.00  0.00     0.037 H 
ATOM    121  H30 DVA d          40.792  51.669  90.397  0.00  0.00     0.037 H 
BRANCH 119 122
ATOM    122  CG  DVA d          40.940  53.105  92.022  0.00  0.00     0.011 C 
ATOM    123  H31 DVA d          40.807  54.185  91.867  0.00  0.00     0.047 H 
ATOM    124  H32 DVA d          41.694  52.937  92.806  0.00  0.00     0.047 H 
BRANCH 122 125
ATOM    125  CD  DVA d          39.602  52.519  92.507  0.00  0.00     0.215 C 
ATOM    126  OE1 DVA d          39.559  51.418  93.085  0.00  0.00    -0.274 OA
ATOM    127  NE2 DVA d          38.526  53.245  92.285  0.00  0.00    -0.370 N 
ATOM    128  H33 DVA d          37.629  52.913  92.578  0.00  0.00     0.159 HD
ATOM    129  H34 DVA d          38.605  54.128  91.823  0.00  0.00     0.159 HD
ENDBRANCH 122 125
ENDBRANCH 119 122
ENDBRANCH   1 119
TORSDOF 34
ENDMDL
MODEL 2
REMARK VINA RESULT:      -5.0      1.707      2.448
REMARK WARNING: 32 MAX_TORS EXCEEDED!!!
REMARK  34 active torsions:
REMARK  status: ('A' for Active; 'I' for Inactive)
REMARK    1  A    between atoms: N_1  and  CA_2 
REMARK    2  A    between atoms: CA_2  and  CB_3 
REMARK    3  A    between atoms: CA_2  and  C_6 
REMARK    4  A    between atoms: CB_3  and  CG1_4 
REMARK    5  A    between atoms: CB_3  and  CG2_5 
REMARK       I    between atoms: C_6  and  N_8 
REMARK    6  A    between atoms: CA_9  and  C_13 
REMARK       I    between atoms: C_13  and  N_15 
REMARK    7  A    between atoms: N_15  and  CA_16 
REMARK    8  A    between atoms: CA_16  and  C_17 
REMARK       I    between atoms: C_17  and  N_19 
REMARK    9  A    between atoms: N_19  and  CA_20 
REMARK   10  A    between atoms: CA_20  and  C_21 
REMARK   11  A    between atoms: CA_20  and  CB_23 
REMARK       I    between atoms: C_21  and  N_25 
REMARK   12  A    between atoms: CB_23  and  OG_24 
REMARK   13  A    between atoms: N_25  and  CA_26 
REMARK   14  A    between atoms: CA_26  and  C_27 
REMARK   15  A    between atoms: CA_26  and  CB_29 
REMARK       I    between atoms: C_27  and  N_34 
REMARK   16  A    between atoms: CB_29  and  CG_30 
REMARK   17  A    between atoms: CG_30  and  CD_31 
REMARK       I    between atoms: CD_31  and  NE2_33 
REMARK   18  A    between atoms: N_34  and  CA_35 
REMARK   19  A    between atoms: CA_35  and  C_36 
REMARK   20  A    between atoms: CA_35  and  CB_38 
REMARK       I    between atoms: C_36  and  N_44 
REMARK   21  A    between atoms: CB_38  and  CG_39 
REMARK   22  A    between atoms: N_44  and  CA_45 
REMARK   23  A    between atoms: CA_45  and  C_46 
REMARK   24  A    between atoms: CA_45  and  CB_48 
REMARK       I    between atoms: C_46  and  N_56 
REMARK   25  A    between atoms: CB_48  and  CG_49 
REMARK   26  A    between atoms: CZ_54  and  OH_55 
REMARK   27  A    between atoms: N_56  and  CA_57 
REMARK   28  A    between atoms: CA_57  and  C_58 
REMARK   29  A    between atoms: CA_57  and  CB_60 
REMARK       I    between atoms: C_58  and  N_64 
REMARK   30  A    between atoms: CB_60  and  CG_61 
REMARK   31  A    between atoms: N_64  and  CA_65 
REMARK   32  A    between atoms: CA_65  and  C_66 
REMARK   33  A    between atoms: CA_65  and  CB_69 
REMARK   34  A    between atoms: CB_69  and  OG_70 
ROOT
ATOM      1  CA  DVA d          42.717  53.764  89.423  0.00  0.00     0.090 C 
ATOM      2  H28 DVA d          41.681  53.986  89.126  0.00  0.00     0.087 H 
ENDROOT
BRANCH   1   3
ATOM      3  N   DVA d          43.336  54.984  89.915  0.00  0.00    -0.346 N 
ATOM      4  C   DVA d          42.665  56.120  89.845  0.00  0.00     0.243 C 
ATOM      5  O   DVA d          41.532  56.183  89.394  0.00  0.00    -0.271 OA
ATOM      6  H27 DVA d          44.259  54.964  90.301  0.00  0.00     0.163 HD
BRANCH   4   7
ATOM      7  CA  DVA d          43.372  57.371  90.328  0.00  0.00     0.109 C 
ATOM      8  H23 DVA d          44.299  57.118  90.864  0.00  0.00     0.090 H 
BRANCH   7   9
ATOM      9  N   DVA d          42.464  58.078  91.202  0.00  0.00    -0.344 N 
ATOM     10  C   DVA d          42.811  58.441  92.427  0.00  0.00     0.236 C 
ATOM     11  O   DVA d          43.921  58.212  92.909  0.00  0.00    -0.272 OA
ATOM     12  H22 DVA d          41.546  58.300  90.872  0.00  0.00     0.163 HD
BRANCH  10  13
ATOM     13  CA  DVA d          41.762  59.169  93.227  0.00  0.00     0.069 C 
ATOM     14  H20 DVA d          42.074  60.210  93.397  0.00  0.00     0.078 H 
ATOM     15  H21 DVA d          40.803  59.157  92.688  0.00  0.00     0.078 H 
BRANCH  13  16
ATOM     16  N   DVA d          41.629  58.480  94.487  0.00  0.00    -0.351 N 
ATOM     17  C   DVA d          40.437  58.247  95.018  0.00  0.00     0.241 C 
ATOM     18  O   DVA d          39.377  58.580  94.479  0.00  0.00    -0.271 OA
ATOM     19  H19 DVA d          42.451  58.174  94.969  0.00  0.00     0.163 HD
BRANCH  17  20
ATOM     20  CA  DVA d          40.459  57.512  96.356  0.00  0.00     0.091 C 
ATOM     21  N   DVA d          39.162  56.866  96.609  0.00  0.00    -0.337 N 
ATOM     22  C   DVA d          38.557  55.743  96.143  0.00  0.00     0.251 C 
ATOM     23  CD  DVA d          38.398  57.649  97.600  0.00  0.00    -0.001 C 
ATOM     24  O   DVA d          37.413  55.435  96.499  0.00  0.00    -0.271 OA
ATOM     25  CG  DVA d          39.186  58.943  97.685  0.00  0.00    -0.048 C 
ATOM     26  H17 DVA d          38.371  57.138  98.574  0.00  0.00     0.064 H 
ATOM     27  H18 DVA d          37.371  57.833  97.253  0.00  0.00     0.064 H 
ATOM     28  CB  DVA d          40.590  58.477  97.527  0.00  0.00    -0.036 C 
ATOM     29  H15 DVA d          38.903  59.634  96.877  0.00  0.00     0.035 H 
ATOM     30  H16 DVA d          39.038  59.436  98.657  0.00  0.00     0.035 H 
ATOM     31  H13 DVA d          41.266  59.311  97.286  0.00  0.00     0.036 H 
ATOM     32  H14 DVA d          40.948  57.964  98.432  0.00  0.00     0.036 H 
ATOM     33  H12 DVA d          41.278  56.777  96.358  0.00  0.00     0.087 H 
BRANCH  22  34
ATOM     34  CA  DVA d          39.291  54.852  95.113  0.00  0.00     0.178 C 
ATOM     35  H4  DVA d          40.102  55.454  94.677  0.00  0.00     0.099 H 
BRANCH  34  36
ATOM     36  N   DVA d          38.344  54.484  94.024  0.00  0.00    -0.066 N 
ATOM     37  H1  DVA d          37.417  54.797  94.265  0.00  0.00     0.275 HD
ATOM     38  H2  DVA d          38.340  53.483  93.905  0.00  0.00     0.275 HD
ATOM     39  H3  DVA d          38.634  54.923  93.164  0.00  0.00     0.275 HD
ENDBRANCH  34  36
BRANCH  34  40
ATOM     40  CB  DVA d          39.935  53.581  95.703  0.00  0.00    -0.025 C 
ATOM     41  H5  DVA d          39.473  53.359  96.676  0.00  0.00     0.042 H 
BRANCH  40  42
ATOM     42  CG1 DVA d          39.719  52.399  94.772  0.00  0.00    -0.071 C 
ATOM     43  H6  DVA d          39.727  51.467  95.355  0.00  0.00     0.028 H 
ATOM     44  H7  DVA d          40.525  52.369  94.023  0.00  0.00     0.028 H 
ATOM     45  H8  DVA d          38.749  52.505  94.263  0.00  0.00     0.028 H 
ENDBRANCH  40  42
BRANCH  40  46
ATOM     46  CG2 DVA d          41.432  53.831  95.900  0.00  0.00    -0.071 C 
ATOM     47  H9  DVA d          41.882  54.138  94.944  0.00  0.00     0.028 H 
ATOM     48  H10 DVA d          41.915  52.908  96.253  0.00  0.00     0.028 H 
ATOM     49  H11 DVA d          41.576  54.627  96.645  0.00  0.00     0.028 H 
ENDBRANCH  40  46
ENDBRANCH  34  40
ENDBRANCH  22  34
ENDBRANCH  17  20
ENDBRANCH  13  16
ENDBRANCH  10  13
ENDBRANCH   7   9
BRANCH   7  50
ATOM     50  CB  DVA d          43.681  58.218  89.098  0.00  0.00     0.044 C 
ATOM     51  H24 DVA d          44.688  58.650  89.196  0.00  0.00     0.077 H 
ATOM     52  H25 DVA d          42.941  59.028  89.018  0.00  0.00     0.077 H 
BRANCH  50  53
ATOM     53  OG  DVA d          43.628  57.416  87.929  0.00  0.00    -0.398 OA
ATOM     54  H26 DVA d          43.405  57.960  87.184  0.00  0.00     0.209 HD
ENDBRANCH  50  53
ENDBRANCH   7  50
ENDBRANCH   4   7
ENDBRANCH   1   3
BRANCH   1  55
ATOM     55  C   DVA d          43.471  53.233  88.206  0.00  0.00     0.241 C 
ATOM     56  O   DVA d          43.631  52.019  88.047  0.00  0.00    -0.271 OA
ATOM     57  N   DVA d          43.932  54.146  87.349  0.00  0.00    -0.346 N 
ATOM     58  H35 DVA d          43.743  55.114  87.520  0.00  0.00     0.163 HD
BRANCH  57  59
ATOM     59  CA  DVA d          44.714  53.764  86.154  0.00  0.00     0.094 C 
ATOM     60  H36 DVA d          44.766  54.641  85.492  0.00  0.00     0.088 H 
BRANCH  59  61
ATOM     61  C   DVA d          46.105  53.292  86.461  0.00  0.00     0.241 C 
ATOM     62  O   DVA d          47.073  54.042  86.269  0.00  0.00    -0.271 OA
ATOM     63  N   DVA d          46.207  52.042  86.902  0.00  0.00    -0.346 N 
ATOM     64  H42 DVA d          45.380  51.519  87.106  0.00  0.00     0.163 HD
BRANCH  63  65
ATOM     65  CA  DVA d          47.520  51.428  87.092  0.00  0.00     0.093 C 
ATOM     66  H43 DVA d          48.221  51.930  86.408  0.00  0.00     0.088 H 
BRANCH  65  67
ATOM     67  C   DVA d          48.107  51.543  88.493  0.00  0.00     0.241 C 
ATOM     68  O   DVA d          49.315  51.749  88.640  0.00  0.00    -0.271 OA
ATOM     69  N   DVA d          47.254  51.396  89.505  0.00  0.00    -0.345 N 
ATOM     70  H51 DVA d          46.291  51.215  89.305  0.00  0.00     0.163 HD
BRANCH  69  71
ATOM     71  CA  DVA d          47.683  51.492  90.907  0.00  0.00     0.098 C 
ATOM     72  H52 DVA d          48.760  51.269  90.942  0.00  0.00     0.088 H 
BRANCH  71  73
ATOM     73  C   DVA d          47.459  52.865  91.537  0.00  0.00     0.241 C 
ATOM     74  O   DVA d          46.745  53.009  92.538  0.00  0.00    -0.271 OA
ATOM     75  N   DVA d          48.111  53.853  90.921  0.00  0.00    -0.343 N 
ATOM     76  H55 DVA d          48.644  53.605  90.112  0.00  0.00     0.163 HD
BRANCH  75  77
ATOM     77  CA  DVA d          48.125  55.263  91.313  0.00  0.00     0.116 C 
ATOM     78  H56 DVA d          49.077  55.681  90.953  0.00  0.00     0.093 H 
BRANCH  77  79
ATOM     79  C   DVA d          47.013  56.088  90.681  0.00  0.00     0.198 C 
ATOM     80  O   DVA d          46.255  55.535  89.858  0.00  0.00    -0.646 OA
ATOM     81  OXT DVA d          46.918  57.287  91.033  0.00  0.00    -0.646 OA
ENDBRANCH  77  79
BRANCH  77  82
ATOM     82  CB  DVA d          48.101  55.424  92.838  0.00  0.00     0.045 C 
ATOM     83  H57 DVA d          48.813  56.212  93.128  0.00  0.00     0.077 H 
ATOM     84  H58 DVA d          48.396  54.473  93.305  0.00  0.00     0.077 H 
BRANCH  82  85
ATOM     85  OG  DVA d          46.802  55.782  93.293  0.00  0.00    -0.398 OA
ATOM     86  H59 DVA d          46.451  55.080  93.829  0.00  0.00     0.209 HD
ENDBRANCH  82  85
ENDBRANCH  77  82
ENDBRANCH  75  77
ENDBRANCH  71  73
BRANCH  71  87
ATOM     87  CB  DVA d          46.936  50.469  91.767  0.00  0.00     0.043 C 
ATOM     88  H53 DVA d          45.941  50.301  91.329  0.00  0.00     0.052 H 
ATOM     89  H54 DVA d          46.826  50.877  92.782  0.00  0.00     0.052 H 
BRANCH  87  90
ATOM     90  CG  DVA d          47.656  49.149  91.853  0.00  0.00     0.175 C 
ATOM     91  OD1 DVA d          47.331  48.350  92.759  0.00  0.00    -0.648 OA
ATOM     92  OD2 DVA d          48.532  48.899  91.009  0.00  0.00    -0.648 OA
ENDBRANCH  87  90
ENDBRANCH  71  87
ENDBRANCH  69  71
ENDBRANCH  65  67
BRANCH  65  93
ATOM     93  CB  DVA d          47.417  49.954  86.688  0.00  0.00    -0.014 C 
ATOM     94  H44 DVA d          47.089  49.372  87.562  0.00  0.00     0.043 H 
ATOM     95  H45 DVA d          48.410  49.607  86.368  0.00  0.00     0.043 H 
BRANCH  93  96
ATOM     96  CG  DVA d          46.432  49.722  85.553  0.00  0.00    -0.056 A 
ATOM     97  CD1 DVA d          45.182  49.144  85.795  0.00  0.00    -0.074 A 
ATOM     98  CE1 DVA d          44.270  48.889  84.757  0.00  0.00    -0.051 A 
ATOM     99  H46 DVA d          44.909  48.885  86.812  0.00  0.00     0.084 H 
ATOM    100  CZ  DVA d          44.630  49.235  83.440  0.00  0.00     0.065 A 
ATOM    101  H48 DVA d          43.307  48.435  84.965  0.00  0.00     0.087 H 
ATOM    102  CE2 DVA d          45.866  49.809  83.179  0.00  0.00    -0.051 A 
ATOM    103  CD2 DVA d          46.767  50.052  84.232  0.00  0.00    -0.074 A 
ATOM    104  H49 DVA d          46.138  50.070  82.163  0.00  0.00     0.087 H 
ATOM    105  H47 DVA d          47.731  50.499  84.019  0.00  0.00     0.084 H 
BRANCH 100 106
ATOM    106  OH  DVA d          43.758  49.025  82.394  0.00  0.00    -0.361 OA
ATOM    107  H50 DVA d          43.865  48.139  82.068  0.00  0.00     0.217 HD
ENDBRANCH 100 106
ENDBRANCH  93  96
ENDBRANCH  65  93
ENDBRANCH  63  65
ENDBRANCH  59  61
BRANCH  59 108
ATOM    108  CB  DVA d          44.076  52.592  85.404  0.00  0.00     0.004 C 
ATOM    109  H37 DVA d          43.613  51.922  86.143  0.00  0.00     0.046 H 
ATOM    110  H38 DVA d          44.871  52.052  84.868  0.00  0.00     0.046 H 
BRANCH 108 111
ATOM    111  CG  DVA d          43.028  52.989  84.409  0.00  0.00     0.053 A 
ATOM    112  ND1 DVA d          43.328  53.593  83.204  0.00  0.00    -0.247 NA
ATOM    113  CE1 DVA d          42.207  53.800  82.527  0.00  0.00     0.064 A 
ATOM    114  NE2 DVA d          41.191  53.354  83.256  0.00  0.00    -0.359 N 
ATOM    115  H40 DVA d          42.133  54.256  81.541  0.00  0.00     0.143 H 
ATOM    116  CD2 DVA d          41.682  52.845  84.438  0.00  0.00     0.002 A 
ATOM    117  H41 DVA d          40.198  53.385  82.983  0.00  0.00     0.166 HD
ATOM    118  H39 DVA d          41.096  52.408  85.246  0.00  0.00     0.114 H 
ENDBRANCH 108 111
ENDBRANCH  59 108
ENDBRANCH  57  59
ENDBRANCH   1  55
BRANCH   1 119
ATOM    119  CB  DVA d          42.697  52.712  90.539  0.00  0.00    -0.030 C 
ATOM    120  H29 DVA d          43.133  53.147  91.450  0.00  0.00     0.037 H 
ATOM    121  H30 DVA d          43.294  51.843  90.225  0.00  0.00     0.037 H 
BRANCH 119 122
ATOM    122  CG  DVA d          41.251  52.249  90.842  0.00  0.00     0.011 C 
ATOM    123  H31 DVA d          41.269  51.635  91.754  0.00  0.00     0.047 H 
ATOM    124  H32 DVA d          40.899  51.639  89.996  0.00  0.00     0.047 H 
BRANCH 122 125
ATOM    125  CD  DVA d          40.251  53.400  91.055  0.00  0.00     0.215 C 
ATOM    126  OE1 DVA d          40.426  54.240  91.957  0.00  0.00    -0.274 OA
ATOM    127  NE2 DVA d          39.223  53.446  90.233  0.00  0.00    -0.370 N 
ATOM    128  H33 DVA d          38.542  54.173  90.325  0.00  0.00     0.159 HD
ATOM    129  H34 DVA d          39.124  52.756  89.517  0.00  0.00     0.159 HD
ENDBRANCH 122 125
ENDBRANCH 119 122
ENDBRANCH   1 119
TORSDOF 34
ENDMDL
MODEL 3
REMARK VINA RESULT:      -4.6      1.648      2.104
REMARK WARNING: 32 MAX_TORS EXCEEDED!!!
REMARK  34 active torsions:
REMARK  status: ('A' for Active; 'I' for Inactive)
REMARK    1  A    between atoms: N_1  and  CA_2 
REMARK    2  A    between atoms: CA_2  and  CB_3 
REMARK    3  A    between atoms: CA_2  and  C_6 
REMARK    4  A    between atoms: CB_3  and  CG1_4 
REMARK    5  A    between atoms: CB_3  and  CG2_5 
REMARK       I    between atoms: C_6  and  N_8 
REMARK    6  A    between atoms: CA_9  and  C_13 
REMARK       I    between atoms: C_13  and  N_15 
REMARK    7  A    between atoms: N_15  and  CA_16 
REMARK    8  A    between atoms: CA_16  and  C_17 
REMARK       I    between atoms: C_17  and  N_19 
REMARK    9  A    between atoms: N_19  and  CA_20 
REMARK   10  A    between atoms: CA_20  and  C_21 
REMARK   11  A    between atoms: CA_20  and  CB_23 
REMARK       I    between atoms: C_21  and  N_25 
REMARK   12  A    between atoms: CB_23  and  OG_24 
REMARK   13  A    between atoms: N_25  and  CA_26 
REMARK   14  A    between atoms: CA_26  and  C_27 
REMARK   15  A    between atoms: CA_26  and  CB_29 
REMARK       I    between atoms: C_27  and  N_34 
REMARK   16  A    between atoms: CB_29  and  CG_30 
REMARK   17  A    between atoms: CG_30  and  CD_31 
REMARK       I    between atoms: CD_31  and  NE2_33 
REMARK   18  A    between atoms: N_34  and  CA_35 
REMARK   19  A    between atoms: CA_35  and  C_36 
REMARK   20  A    between atoms: CA_35  and  CB_38 
REMARK       I    between atoms: C_36  and  N_44 
REMARK   21  A    between atoms: CB_38  and  CG_39 
REMARK   22  A    between atoms: N_44  and  CA_45 
REMARK   23  A    between atoms: CA_45  and  C_46 
REMARK   24  A    between atoms: CA_45  and  CB_48 
REMARK       I    between atoms: C_46  and  N_56 
REMARK   25  A    between atoms: CB_48  and  CG_49 
REMARK   26  A    between atoms: CZ_54  and  OH_55 
REMARK   27  A    between atoms: N_56  and  CA_57 
REMARK   28  A    between atoms: CA_57  and  C_58 
REMARK   29  A    between atoms: CA_57  and  CB_60 
REMARK       I    between atoms: C_58  and  N_64 
REMARK   30  A    between atoms: CB_60  and  CG_61 
REMARK   31  A    between atoms: N_64  and  CA_65 
REMARK   32  A    between atoms: CA_65  and  C_66 
REMARK   33  A    between atoms: CA_65  and  CB_69 
REMARK   34  A    between atoms: CB_69  and  OG_70 
ROOT
ATOM      1  CA  DVA d          42.465  53.935  89.719  0.00  0.00     0.090 C 
ATOM      2  H28 DVA d          41.431  54.138  89.403  0.00  0.00     0.087 H 
ENDROOT
BRANCH   1   3
ATOM      3  N   DVA d          43.062  55.173  90.193  0.00  0.00    -0.346 N 
ATOM      4  C   DVA d          42.292  56.230  90.374  0.00  0.00     0.243 C 
ATOM      5  O   DVA d          41.089  56.206  90.172  0.00  0.00    -0.271 OA
ATOM      6  H27 DVA d          44.044  55.222  90.379  0.00  0.00     0.163 HD
BRANCH   4   7
ATOM      7  CA  DVA d          42.971  57.510  90.825  0.00  0.00     0.109 C 
ATOM      8  H23 DVA d          43.933  57.295  91.311  0.00  0.00     0.090 H 
BRANCH   7   9
ATOM      9  N   DVA d          42.080  58.177  91.747  0.00  0.00    -0.344 N 
ATOM     10  C   DVA d          42.348  58.263  93.041  0.00  0.00     0.236 C 
ATOM     11  O   DVA d          43.366  57.793  93.551  0.00  0.00    -0.272 OA
ATOM     12  H22 DVA d          41.236  58.584  91.399  0.00  0.00     0.163 HD
BRANCH  10  13
ATOM     13  CA  DVA d          41.329  58.984  93.884  0.00  0.00     0.069 C 
ATOM     14  H20 DVA d          41.767  59.903  94.301  0.00  0.00     0.078 H 
ATOM     15  H21 DVA d          40.450  59.240  93.275  0.00  0.00     0.078 H 
BRANCH  13  16
ATOM     16  N   DVA d          40.947  58.091  94.951  0.00  0.00    -0.351 N 
ATOM     17  C   DVA d          41.389  58.272  96.187  0.00  0.00     0.241 C 
ATOM     18  O   DVA d          42.130  59.204  96.513  0.00  0.00    -0.271 OA
ATOM     19  H19 DVA d          40.338  57.322  94.754  0.00  0.00     0.163 HD
BRANCH  17  20
ATOM     20  CA  DVA d          40.901  57.243  97.205  0.00  0.00     0.091 C 
ATOM     21  N   DVA d          40.872  55.901  96.605  0.00  0.00    -0.337 N 
ATOM     22  C   DVA d          41.821  54.975  96.308  0.00  0.00     0.251 C 
ATOM     23  CD  DVA d          39.481  55.528  96.282  0.00  0.00    -0.001 C 
ATOM     24  O   DVA d          41.527  53.909  95.754  0.00  0.00    -0.271 OA
ATOM     25  CG  DVA d          38.735  56.839  96.445  0.00  0.00    -0.048 C 
ATOM     26  H17 DVA d          39.102  54.768  96.981  0.00  0.00     0.064 H 
ATOM     27  H18 DVA d          39.400  55.152  95.252  0.00  0.00     0.064 H 
ATOM     28  CB  DVA d          39.446  57.475  97.588  0.00  0.00    -0.036 C 
ATOM     29  H15 DVA d          38.812  57.455  95.537  0.00  0.00     0.035 H 
ATOM     30  H16 DVA d          37.675  56.667  96.683  0.00  0.00     0.035 H 
ATOM     31  H13 DVA d          39.215  58.548  97.658  0.00  0.00     0.036 H 
ATOM     32  H14 DVA d          39.198  56.982  98.540  0.00  0.00     0.036 H 
ATOM     33  H12 DVA d          41.551  57.269  98.092  0.00  0.00     0.087 H 
BRANCH  22  34
ATOM     34  CA  DVA d          43.305  55.275  96.626  0.00  0.00     0.178 C 
ATOM     35  H4  DVA d          43.441  56.365  96.564  0.00  0.00     0.099 H 
BRANCH  34  36
ATOM     36  N   DVA d          44.164  54.638  95.589  0.00  0.00    -0.066 N 
ATOM     37  H1  DVA d          43.862  53.688  95.440  0.00  0.00     0.275 HD
ATOM     38  H2  DVA d          45.123  54.640  95.900  0.00  0.00     0.275 HD
ATOM     39  H3  DVA d          44.089  55.154  94.727  0.00  0.00     0.275 HD
ENDBRANCH  34  36
BRANCH  34  40
ATOM     40  CB  DVA d          43.763  54.838  98.032  0.00  0.00    -0.025 C 
ATOM     41  H5  DVA d          43.110  55.302  98.786  0.00  0.00     0.042 H 
BRANCH  40  42
ATOM     42  CG1 DVA d          43.680  53.326  98.168  0.00  0.00    -0.071 C 
ATOM     43  H6  DVA d          44.489  52.861  97.586  0.00  0.00     0.028 H 
ATOM     44  H7  DVA d          42.708  52.976  97.790  0.00  0.00     0.028 H 
ATOM     45  H8  DVA d          43.784  53.047  99.227  0.00  0.00     0.028 H 
ENDBRANCH  40  42
BRANCH  40  46
ATOM     46  CG2 DVA d          45.203  55.310  98.252  0.00  0.00    -0.071 C 
ATOM     47  H9  DVA d          45.721  54.607  98.922  0.00  0.00     0.028 H 
ATOM     48  H10 DVA d          45.196  56.312  98.704  0.00  0.00     0.028 H 
ATOM     49  H11 DVA d          45.728  55.348  97.286  0.00  0.00     0.028 H 
ENDBRANCH  40  46
ENDBRANCH  34  40
ENDBRANCH  22  34
ENDBRANCH  17  20
ENDBRANCH  13  16
ENDBRANCH  10  13
ENDBRANCH   7   9
BRANCH   7  50
ATOM     50  CB  DVA d          43.180  58.371  89.584  0.00  0.00     0.044 C 
ATOM     51  H24 DVA d          43.661  57.768  88.799  0.00  0.00     0.077 H 
ATOM     52  H25 DVA d          43.824  59.225  89.838  0.00  0.00     0.077 H 
BRANCH  50  53
ATOM     53  OG  DVA d          41.933  58.849  89.107  0.00  0.00    -0.398 OA
ATOM     54  H26 DVA d          41.930  59.798  89.129  0.00  0.00     0.209 HD
ENDBRANCH  50  53
ENDBRANCH   7  50
ENDBRANCH   4   7
ENDBRANCH   1   3
BRANCH   1  55
ATOM     55  C   DVA d          43.242  53.388  88.524  0.00  0.00     0.241 C 
ATOM     56  O   DVA d          43.533  52.190  88.459  0.00  0.00    -0.271 OA
ATOM     57  N   DVA d          43.576  54.269  87.580  0.00  0.00    -0.346 N 
ATOM     58  H35 DVA d          43.285  55.222  87.677  0.00  0.00     0.163 HD
BRANCH  57  59
ATOM     59  CA  DVA d          44.365  53.875  86.393  0.00  0.00     0.094 C 
ATOM     60  H36 DVA d          44.349  54.716  85.685  0.00  0.00     0.088 H 
BRANCH  59  61
ATOM     61  C   DVA d          45.789  53.512  86.700  0.00  0.00     0.241 C 
ATOM     62  O   DVA d          46.661  54.392  86.733  0.00  0.00    -0.271 OA
ATOM     63  N   DVA d          46.027  52.219  86.890  0.00  0.00    -0.346 N 
ATOM     64  H42 DVA d          45.265  51.573  86.924  0.00  0.00     0.163 HD
BRANCH  63  65
ATOM     65  CA  DVA d          47.397  51.734  87.049  0.00  0.00     0.093 C 
ATOM     66  H43 DVA d          48.033  52.308  86.359  0.00  0.00     0.088 H 
BRANCH  65  67
ATOM     67  C   DVA d          47.996  51.890  88.441  0.00  0.00     0.241 C 
ATOM     68  O   DVA d          48.639  52.905  88.724  0.00  0.00    -0.271 OA
ATOM     69  N   DVA d          47.794  50.883  89.289  0.00  0.00    -0.345 N 
ATOM     70  H51 DVA d          47.276  50.086  88.979  0.00  0.00     0.163 HD
BRANCH  69  71
ATOM     71  CA  DVA d          48.307  50.907  90.665  0.00  0.00     0.098 C 
ATOM     72  H52 DVA d          49.147  51.618  90.695  0.00  0.00     0.088 H 
BRANCH  71  73
ATOM     73  C   DVA d          47.278  51.339  91.709  0.00  0.00     0.241 C 
ATOM     74  O   DVA d          46.280  50.649  91.955  0.00  0.00    -0.271 OA
ATOM     75  N   DVA d          47.577  52.488  92.316  0.00  0.00    -0.343 N 
ATOM     76  H55 DVA d          48.408  52.955  92.013  0.00  0.00     0.163 HD
BRANCH  75  77
ATOM     77  CA  DVA d          46.809  53.134  93.382  0.00  0.00     0.116 C 
ATOM     78  H56 DVA d          45.749  52.917  93.182  0.00  0.00     0.093 H 
BRANCH  77  79
ATOM     79  C   DVA d          47.116  52.597  94.773  0.00  0.00     0.198 C 
ATOM     80  O   DVA d          46.168  52.421  95.566  0.00  0.00    -0.646 OA
ATOM     81  OXT DVA d          48.315  52.355  95.041  0.00  0.00    -0.646 OA
ENDBRANCH  77  79
BRANCH  77  82
ATOM     82  CB  DVA d          46.978  54.658  93.354  0.00  0.00     0.045 C 
ATOM     83  H57 DVA d          46.097  55.126  93.817  0.00  0.00     0.077 H 
ATOM     84  H58 DVA d          47.065  54.992  92.310  0.00  0.00     0.077 H 
BRANCH  82  85
ATOM     85  OG  DVA d          48.143  55.055  94.068  0.00  0.00    -0.398 OA
ATOM     86  H59 DVA d          48.218  56.002  94.047  0.00  0.00     0.209 HD
ENDBRANCH  82  85
ENDBRANCH  77  82
ENDBRANCH  75  77
ENDBRANCH  71  73
BRANCH  71  87
ATOM     87  CB  DVA d          48.815  49.522  91.071  0.00  0.00     0.043 C 
ATOM     88  H53 DVA d          48.416  49.279  92.067  0.00  0.00     0.052 H 
ATOM     89  H54 DVA d          49.914  49.548  91.112  0.00  0.00     0.052 H 
BRANCH  87  90
ATOM     90  CG  DVA d          48.394  48.445  90.107  0.00  0.00     0.175 C 
ATOM     91  OD1 DVA d          49.281  47.750  89.564  0.00  0.00    -0.648 OA
ATOM     92  OD2 DVA d          47.181  48.278  89.902  0.00  0.00    -0.648 OA
ENDBRANCH  87  90
ENDBRANCH  71  87
ENDBRANCH  69  71
ENDBRANCH  65  67
BRANCH  65  93
ATOM     93  CB  DVA d          47.430  50.260  86.629  0.00  0.00    -0.014 C 
ATOM     94  H44 DVA d          47.192  49.640  87.506  0.00  0.00     0.043 H 
ATOM     95  H45 DVA d          48.442  50.019  86.272  0.00  0.00     0.043 H 
BRANCH  93  96
ATOM     96  CG  DVA d          46.436  49.941  85.523  0.00  0.00    -0.056 A 
ATOM     97  CD1 DVA d          45.285  49.192  85.789  0.00  0.00    -0.074 A 
ATOM     98  CE1 DVA d          44.370  48.856  84.776  0.00  0.00    -0.051 A 
ATOM     99  H46 DVA d          45.093  48.861  86.803  0.00  0.00     0.084 H 
ATOM    100  CZ  DVA d          44.623  49.296  83.462  0.00  0.00     0.065 A 
ATOM    101  H48 DVA d          43.486  48.270  85.002  0.00  0.00     0.087 H 
ATOM    102  CE2 DVA d          45.760  50.039  83.180  0.00  0.00    -0.051 A 
ATOM    103  CD2 DVA d          46.666  50.361  84.206  0.00  0.00    -0.074 A 
ATOM    104  H49 DVA d          45.950  50.372  82.166  0.00  0.00     0.087 H 
ATOM    105  H47 DVA d          47.552  50.942  83.976  0.00  0.00     0.084 H 
BRANCH 100 106
ATOM    106  OH  DVA d          43.742  49.009  82.444  0.00  0.00    -0.361 OA
ATOM    107  H50 DVA d          42.994  49.591  82.501  0.00  0.00     0.217 HD
ENDBRANCH 100 106
ENDBRANCH  93  96
ENDBRANCH  65  93
ENDBRANCH  63  65
ENDBRANCH  59  61
BRANCH  59 108
ATOM    108  CB  DVA d          43.796  52.624  85.718  0.00  0.00     0.004 C 
ATOM    109  H37 DVA d          43.152  52.105  86.443  0.00  0.00     0.046 H 
ATOM    110  H38 DVA d          44.636  51.971  85.440  0.00  0.00     0.046 H 
BRANCH 108 111
ATOM    111  CG  DVA d          42.989  52.898  84.485  0.00  0.00     0.053 A 
ATOM    112  ND1 DVA d          43.561  53.226  83.272  0.00  0.00    -0.247 NA
ATOM    113  CE1 DVA d          42.605  53.383  82.366  0.00  0.00     0.064 A 
ATOM    114  NE2 DVA d          41.434  53.172  82.954  0.00  0.00    -0.359 N 
ATOM    115  H40 DVA d          42.756  53.640  81.319  0.00  0.00     0.143 H 
ATOM    116  CD2 DVA d          41.650  52.869  84.280  0.00  0.00     0.002 A 
ATOM    117  H41 DVA d          40.514  53.226  82.494  0.00  0.00     0.166 HD
ATOM    118  H39 DVA d          40.887  52.649  85.025  0.00  0.00     0.114 H 
ENDBRANCH 108 111
ENDBRANCH  59 108
ENDBRANCH  57  59
ENDBRANCH   1  55
BRANCH   1 119
ATOM    119  CB  DVA d          42.443  52.906  90.857  0.00  0.00    -0.030 C 
ATOM    120  H29 DVA d          42.510  53.435  91.819  0.00  0.00     0.037 H 
ATOM    121  H30 DVA d          43.304  52.230  90.747  0.00  0.00     0.037 H 
BRANCH 119 122
ATOM    122  CG  DVA d          41.138  52.073  90.828  0.00  0.00     0.011 C 
ATOM    123  H31 DVA d          41.392  51.027  91.058  0.00  0.00     0.047 H 
ATOM    124  H32 DVA d          40.713  52.132  89.814  0.00  0.00     0.047 H 
BRANCH 122 125
ATOM    125  CD  DVA d          40.067  52.540  91.829  0.00  0.00     0.215 C 
ATOM    126  OE1 DVA d          40.266  52.472  93.056  0.00  0.00    -0.274 OA
ATOM    127  NE2 DVA d          38.952  53.018  91.317  0.00  0.00    -0.370 N 
ATOM    128  H33 DVA d          38.221  53.337  91.921  0.00  0.00     0.159 HD
ATOM    129  H34 DVA d          38.835  53.062  90.325  0.00  0.00     0.159 HD
ENDBRANCH 122 125
ENDBRANCH 119 122
ENDBRANCH   1 119
TORSDOF 34
ENDMDL
MODEL 4
REMARK VINA RESULT:      -4.5      2.117      3.637
REMARK WARNING: 32 MAX_TORS EXCEEDED!!!
REMARK  34 active torsions:
REMARK  status: ('A' for Active; 'I' for Inactive)
REMARK    1  A    between atoms: N_1  and  CA_2 
REMARK    2  A    between atoms: CA_2  and  CB_3 
REMARK    3  A    between atoms: CA_2  and  C_6 
REMARK    4  A    between atoms: CB_3  and  CG1_4 
REMARK    5  A    between atoms: CB_3  and  CG2_5 
REMARK       I    between atoms: C_6  and  N_8 
REMARK    6  A    between atoms: CA_9  and  C_13 
REMARK       I    between atoms: C_13  and  N_15 
REMARK    7  A    between atoms: N_15  and  CA_16 
REMARK    8  A    between atoms: CA_16  and  C_17 
REMARK       I    between atoms: C_17  and  N_19 
REMARK    9  A    between atoms: N_19  and  CA_20 
REMARK   10  A    between atoms: CA_20  and  C_21 
REMARK   11  A    between atoms: CA_20  and  CB_23 
REMARK       I    between atoms: C_21  and  N_25 
REMARK   12  A    between atoms: CB_23  and  OG_24 
REMARK   13  A    between atoms: N_25  and  CA_26 
REMARK   14  A    between atoms: CA_26  and  C_27 
REMARK   15  A    between atoms: CA_26  and  CB_29 
REMARK       I    between atoms: C_27  and  N_34 
REMARK   16  A    between atoms: CB_29  and  CG_30 
REMARK   17  A    between atoms: CG_30  and  CD_31 
REMARK       I    between atoms: CD_31  and  NE2_33 
REMARK   18  A    between atoms: N_34  and  CA_35 
REMARK   19  A    between atoms: CA_35  and  C_36 
REMARK   20  A    between atoms: CA_35  and  CB_38 
REMARK       I    between atoms: C_36  and  N_44 
REMARK   21  A    between atoms: CB_38  and  CG_39 
REMARK   22  A    between atoms: N_44  and  CA_45 
REMARK   23  A    between atoms: CA_45  and  C_46 
REMARK   24  A    between atoms: CA_45  and  CB_48 
REMARK       I    between atoms: C_46  and  N_56 
REMARK   25  A    between atoms: CB_48  and  CG_49 
REMARK   26  A    between atoms: CZ_54  and  OH_55 
REMARK   27  A    between atoms: N_56  and  CA_57 
REMARK   28  A    between atoms: CA_57  and  C_58 
REMARK   29  A    between atoms: CA_57  and  CB_60 
REMARK       I    between atoms: C_58  and  N_64 
REMARK   30  A    between atoms: CB_60  and  CG_61 
REMARK   31  A    between atoms: N_64  and  CA_65 
REMARK   32  A    between atoms: CA_65  and  C_66 
REMARK   33  A    between atoms: CA_65  and  CB_69 
REMARK   34  A    between atoms: CB_69  and  OG_70 
ROOT
ATOM      1  CA  DVA d          43.178  52.970  88.684  0.00  0.00     0.090 C 
ATOM      2  H28 DVA d          42.169  52.530  88.659  0.00  0.00     0.087 H 
ENDROOT
BRANCH   1   3
ATOM      3  N   DVA d          43.109  54.261  89.349  0.00  0.00    -0.346 N 
ATOM      4  C   DVA d          41.946  54.882  89.431  0.00  0.00     0.243 C 
ATOM      5  O   DVA d          40.917  54.405  88.980  0.00  0.00    -0.271 OA
ATOM      6  H27 DVA d          43.932  54.674  89.739  0.00  0.00     0.163 HD
BRANCH   4   7
ATOM      7  CA  DVA d          41.936  56.246  90.094  0.00  0.00     0.109 C 
ATOM      8  H23 DVA d          42.960  56.609  90.264  0.00  0.00     0.090 H 
BRANCH   7   9
ATOM      9  N   DVA d          41.232  56.119  91.350  0.00  0.00    -0.344 N 
ATOM     10  C   DVA d          41.873  56.015  92.503  0.00  0.00     0.236 C 
ATOM     11  O   DVA d          43.101  56.025  92.596  0.00  0.00    -0.272 OA
ATOM     12  H22 DVA d          40.232  56.108  91.347  0.00  0.00     0.163 HD
BRANCH  10  13
ATOM     13  CA  DVA d          41.012  55.885  93.732  0.00  0.00     0.069 C 
ATOM     14  H20 DVA d          41.561  55.352  94.522  0.00  0.00     0.078 H 
ATOM     15  H21 DVA d          40.722  56.882  94.096  0.00  0.00     0.078 H 
BRANCH  13  16
ATOM     16  N   DVA d          39.838  55.137  93.356  0.00  0.00    -0.351 N 
ATOM     17  C   DVA d          39.698  53.863  93.699  0.00  0.00     0.241 C 
ATOM     18  O   DVA d          40.535  53.244  94.363  0.00  0.00    -0.271 OA
ATOM     19  H19 DVA d          39.117  55.585  92.827  0.00  0.00     0.163 HD
BRANCH  17  20
ATOM     20  CA  DVA d          38.405  53.205  93.224  0.00  0.00     0.091 C 
ATOM     21  N   DVA d          37.992  52.149  94.161  0.00  0.00    -0.337 N 
ATOM     22  C   DVA d          37.399  52.146  95.384  0.00  0.00     0.251 C 
ATOM     23  CD  DVA d          38.307  50.824  93.592  0.00  0.00    -0.001 C 
ATOM     24  O   DVA d          37.190  51.091  95.993  0.00  0.00    -0.271 OA
ATOM     25  CG  DVA d          39.198  51.169  92.413  0.00  0.00    -0.048 C 
ATOM     26  H17 DVA d          37.394  50.308  93.260  0.00  0.00     0.064 H 
ATOM     27  H18 DVA d          38.840  50.196  94.321  0.00  0.00     0.064 H 
ATOM     28  CB  DVA d          38.604  52.443  91.922  0.00  0.00    -0.036 C 
ATOM     29  H15 DVA d          40.241  51.314  92.731  0.00  0.00     0.035 H 
ATOM     30  H16 DVA d          39.155  50.388  91.640  0.00  0.00     0.035 H 
ATOM     31  H13 DVA d          39.293  52.973  91.248  0.00  0.00     0.036 H 
ATOM     32  H14 DVA d          37.648  52.269  91.407  0.00  0.00     0.036 H 
ATOM     33  H12 DVA d          37.622  53.971  93.116  0.00  0.00     0.087 H 
BRANCH  22  34
ATOM     34  CA  DVA d          37.019  53.490  96.051  0.00  0.00     0.178 C 
ATOM     35  H4  DVA d          36.345  53.260  96.889  0.00  0.00     0.099 H 
BRANCH  34  36
ATOM     36  N   DVA d          36.274  54.327  95.069  0.00  0.00    -0.066 N 
ATOM     37  H1  DVA d          35.295  54.335  95.310  0.00  0.00     0.275 HD
ATOM     38  H2  DVA d          36.389  53.943  94.144  0.00  0.00     0.275 HD
ATOM     39  H3  DVA d          36.633  55.268  95.090  0.00  0.00     0.275 HD
ENDBRANCH  34  36
BRANCH  34  40
ATOM     40  CB  DVA d          38.208  54.283  96.626  0.00  0.00    -0.025 C 
ATOM     41  H5  DVA d          39.040  54.263  95.905  0.00  0.00     0.042 H 
BRANCH  40  42
ATOM     42  CG1 DVA d          37.807  55.728  96.877  0.00  0.00    -0.071 C 
ATOM     43  H6  DVA d          38.698  56.315  97.141  0.00  0.00     0.028 H 
ATOM     44  H7  DVA d          37.082  55.769  97.704  0.00  0.00     0.028 H 
ATOM     45  H8  DVA d          37.349  56.145  95.967  0.00  0.00     0.028 H 
ENDBRANCH  40  42
BRANCH  40  46
ATOM     46  CG2 DVA d          38.657  53.625  97.933  0.00  0.00    -0.071 C 
ATOM     47  H9  DVA d          37.825  53.040  98.353  0.00  0.00     0.028 H 
ATOM     48  H10 DVA d          38.957  54.403  98.651  0.00  0.00     0.028 H 
ATOM     49  H11 DVA d          39.510  52.961  97.735  0.00  0.00     0.028 H 
ENDBRANCH  40  46
ENDBRANCH  34  40
ENDBRANCH  22  34
ENDBRANCH  17  20
ENDBRANCH  13  16
ENDBRANCH  10  13
ENDBRANCH   7   9
BRANCH   7  50
ATOM     50  CB  DVA d          41.182  57.192  89.165  0.00  0.00     0.044 C 
ATOM     51  H24 DVA d          41.578  57.091  88.143  0.00  0.00     0.077 H 
ATOM     52  H25 DVA d          41.319  58.228  89.510  0.00  0.00     0.077 H 
BRANCH  50  53
ATOM     53  OG  DVA d          39.800  56.876  89.165  0.00  0.00    -0.398 OA
ATOM     54  H26 DVA d          39.518  56.696  90.054  0.00  0.00     0.209 HD
ENDBRANCH  50  53
ENDBRANCH   7  50
ENDBRANCH   4   7
ENDBRANCH   1   3
BRANCH   1  55
ATOM     55  C   DVA d          43.676  53.132  87.250  0.00  0.00     0.241 C 
ATOM     56  O   DVA d          44.380  52.262  86.728  0.00  0.00    -0.271 OA
ATOM     57  N   DVA d          43.308  54.247  86.616  0.00  0.00    -0.346 N 
ATOM     58  H35 DVA d          42.712  54.900  87.085  0.00  0.00     0.163 HD
BRANCH  57  59
ATOM     59  CA  DVA d          43.759  54.542  85.239  0.00  0.00     0.094 C 
ATOM     60  H36 DVA d          43.219  55.436  84.894  0.00  0.00     0.088 H 
BRANCH  59  61
ATOM     61  C   DVA d          45.237  54.779  85.119  0.00  0.00     0.241 C 
ATOM     62  O   DVA d          45.685  55.933  85.148  0.00  0.00    -0.271 OA
ATOM     63  N   DVA d          45.983  53.693  84.949  0.00  0.00    -0.346 N 
ATOM     64  H42 DVA d          45.564  52.787  85.011  0.00  0.00     0.163 HD
BRANCH  63  65
ATOM     65  CA  DVA d          47.414  53.814  84.673  0.00  0.00     0.093 C 
ATOM     66  H43 DVA d          47.525  54.434  83.771  0.00  0.00     0.088 H 
BRANCH  65  67
ATOM     67  C   DVA d          48.246  54.468  85.769  0.00  0.00     0.241 C 
ATOM     68  O   DVA d          49.308  55.029  85.484  0.00  0.00    -0.271 OA
ATOM     69  N   DVA d          47.765  54.382  87.008  0.00  0.00    -0.345 N 
ATOM     70  H51 DVA d          46.904  53.896  87.161  0.00  0.00     0.163 HD
BRANCH  69  71
ATOM     71  CA  DVA d          48.460  54.976  88.158  0.00  0.00     0.098 C 
ATOM     72  H52 DVA d          49.020  55.851  87.793  0.00  0.00     0.088 H 
BRANCH  71  73
ATOM     73  C   DVA d          47.530  55.438  89.279  0.00  0.00     0.241 C 
ATOM     74  O   DVA d          46.307  55.256  89.220  0.00  0.00    -0.271 OA
ATOM     75  N   DVA d          48.165  56.020  90.299  0.00  0.00    -0.343 N 
ATOM     76  H55 DVA d          49.156  56.119  90.215  0.00  0.00     0.163 HD
BRANCH  75  77
ATOM     77  CA  DVA d          47.552  56.527  91.528  0.00  0.00     0.116 C 
ATOM     78  H56 DVA d          46.487  56.256  91.484  0.00  0.00     0.093 H 
BRANCH  77  79
ATOM     79  C   DVA d          48.116  55.904  92.797  0.00  0.00     0.198 C 
ATOM     80  O   DVA d          47.318  55.517  93.676  0.00  0.00    -0.646 OA
ATOM     81  OXT DVA d          49.362  55.811  92.885  0.00  0.00    -0.646 OA
ENDBRANCH  77  79
BRANCH  77  82
ATOM     82  CB  DVA d          47.633  58.056  91.608  0.00  0.00     0.045 C 
ATOM     83  H57 DVA d          47.998  58.345  92.605  0.00  0.00     0.077 H 
ATOM     84  H58 DVA d          46.630  58.479  91.447  0.00  0.00     0.077 H 
BRANCH  82  85
ATOM     85  OG  DVA d          48.519  58.573  90.622  0.00  0.00    -0.398 OA
ATOM     86  H59 DVA d          48.111  58.506  89.766  0.00  0.00     0.209 HD
ENDBRANCH  82  85
ENDBRANCH  77  82
ENDBRANCH  75  77
ENDBRANCH  71  73
BRANCH  71  87
ATOM     87  CB  DVA d          49.444  53.974  88.765  0.00  0.00     0.043 C 
ATOM     88  H53 DVA d          49.920  54.437  89.643  0.00  0.00     0.052 H 
ATOM     89  H54 DVA d          50.211  53.736  88.015  0.00  0.00     0.052 H 
BRANCH  87  90
ATOM     90  CG  DVA d          48.777  52.695  89.196  0.00  0.00     0.175 C 
ATOM     91  OD1 DVA d          47.853  52.236  88.489  0.00  0.00    -0.648 OA
ATOM     92  OD2 DVA d          49.182  52.138  90.229  0.00  0.00    -0.648 OA
ENDBRANCH  87  90
ENDBRANCH  71  87
ENDBRANCH  69  71
ENDBRANCH  65  67
BRANCH  65  93
ATOM     93  CB  DVA d          47.958  52.413  84.371  0.00  0.00    -0.014 C 
ATOM     94  H44 DVA d          48.489  52.043  85.261  0.00  0.00     0.043 H 
ATOM     95  H45 DVA d          48.660  52.484  83.528  0.00  0.00     0.043 H 
BRANCH  93  96
ATOM     96  CG  DVA d          46.863  51.421  84.011  0.00  0.00    -0.056 A 
ATOM     97  CD1 DVA d          46.518  50.386  84.885  0.00  0.00    -0.074 A 
ATOM     98  CE1 DVA d          45.533  49.438  84.558  0.00  0.00    -0.051 A 
ATOM     99  H46 DVA d          47.023  50.312  85.841  0.00  0.00     0.084 H 
ATOM    100  CZ  DVA d          44.876  49.545  83.317  0.00  0.00     0.065 A 
ATOM    101  H48 DVA d          45.284  48.640  85.248  0.00  0.00     0.087 H 
ATOM    102  CE2 DVA d          45.206  50.565  82.436  0.00  0.00    -0.051 A 
ATOM    103  CD2 DVA d          46.197  51.501  82.780  0.00  0.00    -0.074 A 
ATOM    104  H49 DVA d          44.698  50.640  81.481  0.00  0.00     0.087 H 
ATOM    105  H47 DVA d          46.449  52.295  82.085  0.00  0.00     0.084 H 
BRANCH 100 106
ATOM    106  OH  DVA d          43.889  48.652  82.965  0.00  0.00    -0.361 OA
ATOM    107  H50 DVA d          44.018  47.837  83.435  0.00  0.00     0.217 HD
ENDBRANCH 100 106
ENDBRANCH  93  96
ENDBRANCH  65  93
ENDBRANCH  63  65
ENDBRANCH  59  61
BRANCH  59 108
ATOM    108  CB  DVA d          43.487  53.377  84.286  0.00  0.00     0.004 C 
ATOM    109  H37 DVA d          43.413  52.455  84.882  0.00  0.00     0.046 H 
ATOM    110  H38 DVA d          44.334  53.296  83.589  0.00  0.00     0.046 H 
BRANCH 108 111
ATOM    111  CG  DVA d          42.230  53.515  83.480  0.00  0.00     0.053 A 
ATOM    112  ND1 DVA d          42.185  53.295  82.118  0.00  0.00    -0.247 NA
ATOM    113  CE1 DVA d          40.943  53.465  81.688  0.00  0.00     0.064 A 
ATOM    114  NE2 DVA d          40.183  53.792  82.726  0.00  0.00    -0.359 N 
ATOM    115  H40 DVA d          40.603  53.354  80.659  0.00  0.00     0.143 H 
ATOM    116  CD2 DVA d          40.968  53.832  83.857  0.00  0.00     0.002 A 
ATOM    117  H41 DVA d          39.172  53.986  82.692  0.00  0.00     0.166 HD
ATOM    118  H39 DVA d          40.637  54.073  84.866  0.00  0.00     0.114 H 
ENDBRANCH 108 111
ENDBRANCH  59 108
ENDBRANCH  57  59
ENDBRANCH   1  55
BRANCH   1 119
ATOM    119  CB  DVA d          44.107  52.036  89.470  0.00  0.00    -0.030 C 
ATOM    120  H29 DVA d          44.999  51.824  88.863  0.00  0.00     0.037 H 
ATOM    121  H30 DVA d          43.575  51.096  89.682  0.00  0.00     0.037 H 
BRANCH 119 122
ATOM    122  CG  DVA d          44.545  52.683  90.806  0.00  0.00     0.011 C 
ATOM    123  H31 DVA d          43.727  52.566  91.531  0.00  0.00     0.047 H 
ATOM    124  H32 DVA d          44.727  53.754  90.628  0.00  0.00     0.047 H 
BRANCH 122 125
ATOM    125  CD  DVA d          45.820  52.072  91.415  0.00  0.00     0.215 C 
ATOM    126  OE1 DVA d          46.068  50.858  91.293  0.00  0.00    -0.274 OA
ATOM    127  NE2 DVA d          46.622  52.898  92.054  0.00  0.00    -0.370 N 
ATOM    128  H33 DVA d          47.465  52.555  92.469  0.00  0.00     0.159 HD
ATOM    129  H34 DVA d          46.389  53.868  92.123  0.00  0.00     0.159 HD
ENDBRANCH 122 125
ENDBRANCH 119 122
ENDBRANCH   1 119
TORSDOF 34
ENDMDL
MODEL 5
REMARK VINA RESULT:      -4.2      2.203      3.588
REMARK WARNING: 32 MAX_TORS EXCEEDED!!!
REMARK  34 active torsions:
REMARK  status: ('A' for Active; 'I' for Inactive)
REMARK    1  A    between atoms: N_1  and  CA_2 
REMARK    2  A    between atoms: CA_2  and  CB_3 
REMARK    3  A    between atoms: CA_2  and  C_6 
REMARK    4  A    between atoms: CB_3  and  CG1_4 
REMARK    5  A    between atoms: CB_3  and  CG2_5 
REMARK       I    between atoms: C_6  and  N_8 
REMARK    6  A    between atoms: CA_9  and  C_13 
REMARK       I    between atoms: C_13  and  N_15 
REMARK    7  A    between atoms: N_15  and  CA_16 
REMARK    8  A    between atoms: CA_16  and  C_17 
REMARK       I    between atoms: C_17  and  N_19 
REMARK    9  A    between atoms: N_19  and  CA_20 
REMARK   10  A    between atoms: CA_20  and  C_21 
REMARK   11  A    between atoms: CA_20  and  CB_23 
REMARK       I    between atoms: C_21  and  N_25 
REMARK   12  A    between atoms: CB_23  and  OG_24 
REMARK   13  A    between atoms: N_25  and  CA_26 
REMARK   14  A    between atoms: CA_26  and  C_27 
REMARK   15  A    between atoms: CA_26  and  CB_29 
REMARK       I    between atoms: C_27  and  N_34 
REMARK   16  A    between atoms: CB_29  and  CG_30 
REMARK   17  A    between atoms: CG_30  and  CD_31 
REMARK       I    between atoms: CD_31  and  NE2_33 
REMARK   18  A    between atoms: N_34  and  CA_35 
REMARK   19  A    between atoms: CA_35  and  C_36 
REMARK   20  A    between atoms: CA_35  and  CB_38 
REMARK       I    between atoms: C_36  and  N_44 
REMARK   21  A    between atoms: CB_38  and  CG_39 
REMARK   22  A    between atoms: N_44  and  CA_45 
REMARK   23  A    between atoms: CA_45  and  C_46 
REMARK   24  A    between atoms: CA_45  and  CB_48 
REMARK       I    between atoms: C_46  and  N_56 
REMARK   25  A    between atoms: CB_48  and  CG_49 
REMARK   26  A    between atoms: CZ_54  and  OH_55 
REMARK   27  A    between atoms: N_56  and  CA_57 
REMARK   28  A    between atoms: CA_57  and  C_58 
REMARK   29  A    between atoms: CA_57  and  CB_60 
REMARK       I    between atoms: C_58  and  N_64 
REMARK   30  A    between atoms: CB_60  and  CG_61 
REMARK   31  A    between atoms: N_64  and  CA_65 
REMARK   32  A    between atoms: CA_65  and  C_66 
REMARK   33  A    between atoms: CA_65  and  CB_69 
REMARK   34  A    between atoms: CB_69  and  OG_70 
ROOT
ATOM      1  CA  DVA d          42.578  53.596  88.707  0.00  0.00     0.090 C 
ATOM      2  H28 DVA d          41.588  53.259  89.050  0.00  0.00     0.087 H 
ENDROOT
BRANCH   1   3
ATOM      3  N   DVA d          42.744  54.997  89.057  0.00  0.00    -0.346 N 
ATOM      4  C   DVA d          41.693  55.690  89.457  0.00  0.00     0.243 C 
ATOM      5  O   DVA d          40.583  55.193  89.559  0.00  0.00    -0.271 OA
ATOM      6  H27 DVA d          43.643  55.431  88.996  0.00  0.00     0.163 HD
BRANCH   4   7
ATOM      7  CA  DVA d          41.910  57.159  89.767  0.00  0.00     0.109 C 
ATOM      8  H23 DVA d          42.941  57.342  90.104  0.00  0.00     0.090 H 
BRANCH   7   9
ATOM      9  N   DVA d          40.970  57.533  90.799  0.00  0.00    -0.344 N 
ATOM     10  C   DVA d          41.347  58.193  91.882  0.00  0.00     0.236 C 
ATOM     11  O   DVA d          42.510  58.540  92.091  0.00  0.00    -0.272 OA
ATOM     12  H22 DVA d          40.007  57.285  90.691  0.00  0.00     0.163 HD
BRANCH  10  13
ATOM     13  CA  DVA d          40.260  58.514  92.875  0.00  0.00     0.069 C 
ATOM     14  H20 DVA d          40.231  59.598  93.064  0.00  0.00     0.078 H 
ATOM     15  H21 DVA d          39.286  58.184  92.488  0.00  0.00     0.078 H 
BRANCH  13  16
ATOM     16  N   DVA d          40.572  57.809  94.094  0.00  0.00    -0.351 N 
ATOM     17  C   DVA d          40.262  56.528  94.243  0.00  0.00     0.241 C 
ATOM     18  O   DVA d          39.712  55.857  93.365  0.00  0.00    -0.271 OA
ATOM     19  H19 DVA d          41.029  58.294  94.840  0.00  0.00     0.163 HD
BRANCH  17  20
ATOM     20  CA  DVA d          40.651  55.922  95.589  0.00  0.00     0.091 C 
ATOM     21  N   DVA d          39.788  54.774  95.904  0.00  0.00    -0.337 N 
ATOM     22  C   DVA d          39.733  53.485  95.479  0.00  0.00     0.251 C 
ATOM     23  CD  DVA d          38.786  55.165  96.916  0.00  0.00    -0.001 C 
ATOM     24  O   DVA d          38.858  52.711  95.886  0.00  0.00    -0.271 OA
ATOM     25  CG  DVA d          38.916  56.676  96.950  0.00  0.00    -0.048 C 
ATOM     26  H17 DVA d          39.020  54.725  97.896  0.00  0.00     0.064 H 
ATOM     27  H18 DVA d          37.774  54.861  96.609  0.00  0.00     0.064 H 
ATOM     28  CB  DVA d          40.376  56.879  96.740  0.00  0.00    -0.036 C 
ATOM     29  H15 DVA d          38.330  57.144  96.145  0.00  0.00     0.035 H 
ATOM     30  H16 DVA d          38.595  57.080  97.921  0.00  0.00     0.035 H 
ATOM     31  H13 DVA d          40.600  57.919  96.460  0.00  0.00     0.036 H 
ATOM     32  H14 DVA d          40.952  56.607  97.637  0.00  0.00     0.036 H 
ATOM     33  H12 DVA d          41.712  55.629  95.566  0.00  0.00     0.087 H 
BRANCH  22  34
ATOM     34  CA  DVA d          40.755  52.983  94.431  0.00  0.00     0.178 C 
ATOM     35  H4  DVA d          40.925  53.803  93.719  0.00  0.00     0.099 H 
BRANCH  34  36
ATOM     36  N   DVA d          40.166  51.834  93.688  0.00  0.00    -0.066 N 
ATOM     37  H1  DVA d          40.902  51.211  93.393  0.00  0.00     0.275 HD
ATOM     38  H2  DVA d          39.671  52.176  92.878  0.00  0.00     0.275 HD
ATOM     39  H3  DVA d          39.526  51.338  94.287  0.00  0.00     0.275 HD
ENDBRANCH  34  36
BRANCH  34  40
ATOM     40  CB  DVA d          42.128  52.589  95.008  0.00  0.00    -0.025 C 
ATOM     41  H5  DVA d          42.481  53.385  95.681  0.00  0.00     0.042 H 
BRANCH  40  42
ATOM     42  CG1 DVA d          42.019  51.291  95.793  0.00  0.00    -0.071 C 
ATOM     43  H6  DVA d          42.830  51.242  96.534  0.00  0.00     0.028 H 
ATOM     44  H7  DVA d          42.100  50.437  95.103  0.00  0.00     0.028 H 
ATOM     45  H8  DVA d          41.048  51.255  96.309  0.00  0.00     0.028 H 
ENDBRANCH  40  42
BRANCH  40  46
ATOM     46  CG2 DVA d          43.122  52.426  93.855  0.00  0.00    -0.071 C 
ATOM     47  H9  DVA d          43.946  53.144  93.976  0.00  0.00     0.028 H 
ATOM     48  H10 DVA d          42.609  52.613  92.900  0.00  0.00     0.028 H 
ATOM     49  H11 DVA d          43.524  51.403  93.860  0.00  0.00     0.028 H 
ENDBRANCH  40  46
ENDBRANCH  34  40
ENDBRANCH  22  34
ENDBRANCH  17  20
ENDBRANCH  13  16
ENDBRANCH  10  13
ENDBRANCH   7   9
BRANCH   7  50
ATOM     50  CB  DVA d          41.621  57.936  88.487  0.00  0.00     0.044 C 
ATOM     51  H24 DVA d          40.905  57.371  87.872  0.00  0.00     0.077 H 
ATOM     52  H25 DVA d          42.557  58.075  87.926  0.00  0.00     0.077 H 
BRANCH  50  53
ATOM     53  OG  DVA d          41.070  59.204  88.802  0.00  0.00    -0.398 OA
ATOM     54  H26 DVA d          41.240  59.808  88.089  0.00  0.00     0.209 HD
ENDBRANCH  50  53
ENDBRANCH   7  50
ENDBRANCH   4   7
ENDBRANCH   1   3
BRANCH   1  55
ATOM     55  C   DVA d          42.659  53.408  87.194  0.00  0.00     0.241 C 
ATOM     56  O   DVA d          42.666  52.276  86.701  0.00  0.00    -0.271 OA
ATOM     57  N   DVA d          42.721  54.521  86.461  0.00  0.00    -0.346 N 
ATOM     58  H35 DVA d          42.682  55.409  86.919  0.00  0.00     0.163 HD
BRANCH  57  59
ATOM     59  CA  DVA d          42.845  54.474  84.987  0.00  0.00     0.094 C 
ATOM     60  H36 DVA d          42.337  55.360  84.580  0.00  0.00     0.088 H 
BRANCH  59  61
ATOM     61  C   DVA d          44.263  54.447  84.496  0.00  0.00     0.241 C 
ATOM     62  O   DVA d          44.505  54.177  83.311  0.00  0.00    -0.271 OA
ATOM     63  N   DVA d          45.196  54.689  85.411  0.00  0.00    -0.346 N 
ATOM     64  H42 DVA d          44.927  54.974  86.330  0.00  0.00     0.163 HD
BRANCH  63  65
ATOM     65  CA  DVA d          46.613  54.544  85.080  0.00  0.00     0.093 C 
ATOM     66  H43 DVA d          46.725  54.755  84.007  0.00  0.00     0.088 H 
BRANCH  65  67
ATOM     67  C   DVA d          47.563  55.477  85.820  0.00  0.00     0.241 C 
ATOM     68  O   DVA d          48.031  56.463  85.243  0.00  0.00    -0.271 OA
ATOM     69  N   DVA d          47.849  55.153  87.080  0.00  0.00    -0.345 N 
ATOM     70  H51 DVA d          47.443  54.328  87.472  0.00  0.00     0.163 HD
BRANCH  69  71
ATOM     71  CA  DVA d          48.744  55.970  87.912  0.00  0.00     0.098 C 
ATOM     72  H52 DVA d          49.059  56.836  87.310  0.00  0.00     0.088 H 
BRANCH  71  73
ATOM     73  C   DVA d          48.101  56.490  89.196  0.00  0.00     0.241 C 
ATOM     74  O   DVA d          47.791  57.682  89.327  0.00  0.00    -0.271 OA
ATOM     75  N   DVA d          47.898  55.547  90.117  0.00  0.00    -0.343 N 
ATOM     76  H55 DVA d          48.208  54.623  89.891  0.00  0.00     0.163 HD
BRANCH  75  77
ATOM     77  CA  DVA d          47.268  55.730  91.426  0.00  0.00     0.116 C 
ATOM     78  H56 DVA d          47.192  56.816  91.589  0.00  0.00     0.093 H 
BRANCH  77  79
ATOM     79  C   DVA d          45.856  55.169  91.512  0.00  0.00     0.198 C 
ATOM     80  O   DVA d          44.903  55.897  91.167  0.00  0.00    -0.646 OA
ATOM     81  OXT DVA d          45.732  53.992  91.923  0.00  0.00    -0.646 OA
ENDBRANCH  77  79
BRANCH  77  82
ATOM     82  CB  DVA d          48.135  55.157  92.554  0.00  0.00     0.045 C 
ATOM     83  H57 DVA d          49.136  55.611  92.505  0.00  0.00     0.077 H 
ATOM     84  H58 DVA d          48.219  54.067  92.424  0.00  0.00     0.077 H 
BRANCH  82  85
ATOM     85  OG  DVA d          47.562  55.430  93.827  0.00  0.00    -0.398 OA
ATOM     86  H59 DVA d          46.631  55.241  93.801  0.00  0.00     0.209 HD
ENDBRANCH  82  85
ENDBRANCH  77  82
ENDBRANCH  75  77
ENDBRANCH  71  73
BRANCH  71  87
ATOM     87  CB  DVA d          49.982  55.167  88.315  0.00  0.00     0.043 C 
ATOM     88  H53 DVA d          50.115  55.248  89.404  0.00  0.00     0.052 H 
ATOM     89  H54 DVA d          50.859  55.593  87.806  0.00  0.00     0.052 H 
BRANCH  87  90
ATOM     90  CG  DVA d          49.873  53.710  87.949  0.00  0.00     0.175 C 
ATOM     91  OD1 DVA d          50.401  53.321  86.884  0.00  0.00    -0.648 OA
ATOM     92  OD2 DVA d          49.275  52.950  88.728  0.00  0.00    -0.648 OA
ENDBRANCH  87  90
ENDBRANCH  71  87
ENDBRANCH  69  71
ENDBRANCH  65  67
BRANCH  65  93
ATOM     93  CB  DVA d          47.011  53.086  85.334  0.00  0.00    -0.014 C 
ATOM     94  H44 DVA d          46.257  52.625  85.989  0.00  0.00     0.043 H 
ATOM     95  H45 DVA d          47.991  53.071  85.833  0.00  0.00     0.043 H 
BRANCH  93  96
ATOM     96  CG  DVA d          47.106  52.270  84.053  0.00  0.00    -0.056 A 
ATOM     97  CD1 DVA d          47.758  52.779  82.926  0.00  0.00    -0.074 A 
ATOM     98  CE1 DVA d          47.828  52.058  81.722  0.00  0.00    -0.051 A 
ATOM     99  H46 DVA d          48.222  53.758  82.982  0.00  0.00     0.084 H 
ATOM    100  CZ  DVA d          47.228  50.785  81.660  0.00  0.00     0.065 A 
ATOM    101  H48 DVA d          48.334  52.473  80.858  0.00  0.00     0.087 H 
ATOM    102  CE2 DVA d          46.576  50.264  82.768  0.00  0.00    -0.051 A 
ATOM    103  CD2 DVA d          46.513  51.003  83.963  0.00  0.00    -0.074 A 
ATOM    104  H49 DVA d          46.115  49.284  82.713  0.00  0.00     0.087 H 
ATOM    105  H47 DVA d          46.000  50.588  84.823  0.00  0.00     0.084 H 
BRANCH 100 106
ATOM    106  OH  DVA d          47.293  50.033  80.508  0.00  0.00    -0.361 OA
ATOM    107  H50 DVA d          48.141  49.608  80.457  0.00  0.00     0.217 HD
ENDBRANCH 100 106
ENDBRANCH  93  96
ENDBRANCH  65  93
ENDBRANCH  63  65
ENDBRANCH  59  61
BRANCH  59 108
ATOM    108  CB  DVA d          42.220  53.207  84.401  0.00  0.00     0.004 C 
ATOM    109  H37 DVA d          41.694  52.677  85.208  0.00  0.00     0.046 H 
ATOM    110  H38 DVA d          43.029  52.572  84.011  0.00  0.00     0.046 H 
BRANCH 108 111
ATOM    111  CG  DVA d          41.244  53.454  83.290  0.00  0.00     0.053 A 
ATOM    112  ND1 DVA d          41.554  53.251  81.960  0.00  0.00    -0.247 NA
ATOM    113  CE1 DVA d          40.492  53.525  81.216  0.00  0.00     0.064 A 
ATOM    114  NE2 DVA d          39.505  53.903  82.020  0.00  0.00    -0.359 N 
ATOM    115  H40 DVA d          40.437  53.452  80.131  0.00  0.00     0.143 H 
ATOM    116  CD2 DVA d          39.955  53.868  83.321  0.00  0.00     0.002 A 
ATOM    117  H41 DVA d          38.559  54.178  81.720  0.00  0.00     0.166 HD
ATOM    118  H39 DVA d          39.380  54.126  84.210  0.00  0.00     0.114 H 
ENDBRANCH 108 111
ENDBRANCH  59 108
ENDBRANCH  57  59
ENDBRANCH   1  55
BRANCH   1 119
ATOM    119  CB  DVA d          43.656  52.759  89.407  0.00  0.00    -0.030 C 
ATOM    120  H29 DVA d          43.191  52.183  90.221  0.00  0.00     0.037 H 
ATOM    121  H30 DVA d          44.419  53.433  89.824  0.00  0.00     0.037 H 
BRANCH 119 122
ATOM    122  CG  DVA d          44.332  51.780  88.416  0.00  0.00     0.011 C 
ATOM    123  H31 DVA d          44.264  52.210  87.406  0.00  0.00     0.047 H 
ATOM    124  H32 DVA d          43.785  50.826  88.446  0.00  0.00     0.047 H 
BRANCH 122 125
ATOM    125  CD  DVA d          45.814  51.497  88.721  0.00  0.00     0.215 C 
ATOM    126  OE1 DVA d          46.351  50.437  88.350  0.00  0.00    -0.274 OA
ATOM    127  NE2 DVA d          46.469  52.432  89.377  0.00  0.00    -0.370 N 
ATOM    128  H33 DVA d          47.435  52.301  89.602  0.00  0.00     0.159 HD
ATOM    129  H34 DVA d          46.002  53.272  89.650  0.00  0.00     0.159 HD
ENDBRANCH 122 125
ENDBRANCH 119 122
ENDBRANCH   1 119
TORSDOF 34
ENDMDL
MODEL 6
REMARK VINA RESULT:      -4.1      2.839      4.237
REMARK WARNING: 32 MAX_TORS EXCEEDED!!!
REMARK  34 active torsions:
REMARK  status: ('A' for Active; 'I' for Inactive)
REMARK    1  A    between atoms: N_1  and  CA_2 
REMARK    2  A    between atoms: CA_2  and  CB_3 
REMARK    3  A    between atoms: CA_2  and  C_6 
REMARK    4  A    between atoms: CB_3  and  CG1_4 
REMARK    5  A    between atoms: CB_3  and  CG2_5 
REMARK       I    between atoms: C_6  and  N_8 
REMARK    6  A    between atoms: CA_9  and  C_13 
REMARK       I    between atoms: C_13  and  N_15 
REMARK    7  A    between atoms: N_15  and  CA_16 
REMARK    8  A    between atoms: CA_16  and  C_17 
REMARK       I    between atoms: C_17  and  N_19 
REMARK    9  A    between atoms: N_19  and  CA_20 
REMARK   10  A    between atoms: CA_20  and  C_21 
REMARK   11  A    between atoms: CA_20  and  CB_23 
REMARK       I    between atoms: C_21  and  N_25 
REMARK   12  A    between atoms: CB_23  and  OG_24 
REMARK   13  A    between atoms: N_25  and  CA_26 
REMARK   14  A    between atoms: CA_26  and  C_27 
REMARK   15  A    between atoms: CA_26  and  CB_29 
REMARK       I    between atoms: C_27  and  N_34 
REMARK   16  A    between atoms: CB_29  and  CG_30 
REMARK   17  A    between atoms: CG_30  and  CD_31 
REMARK       I    between atoms: CD_31  and  NE2_33 
REMARK   18  A    between atoms: N_34  and  CA_35 
REMARK   19  A    between atoms: CA_35  and  C_36 
REMARK   20  A    between atoms: CA_35  and  CB_38 
REMARK       I    between atoms: C_36  and  N_44 
REMARK   21  A    between atoms: CB_38  and  CG_39 
REMARK   22  A    between atoms: N_44  and  CA_45 
REMARK   23  A    between atoms: CA_45  and  C_46 
REMARK   24  A    between atoms: CA_45  and  CB_48 
REMARK       I    between atoms: C_46  and  N_56 
REMARK   25  A    between atoms: CB_48  and  CG_49 
REMARK   26  A    between atoms: CZ_54  and  OH_55 
REMARK   27  A    between atoms: N_56  and  CA_57 
REMARK   28  A    between atoms: CA_57  and  C_58 
REMARK   29  A    between atoms: CA_57  and  CB_60 
REMARK       I    between atoms: C_58  and  N_64 
REMARK   30  A    between atoms: CB_60  and  CG_61 
REMARK   31  A    between atoms: N_64  and  CA_65 
REMARK   32  A    between atoms: CA_65  and  C_66 
REMARK   33  A    between atoms: CA_65  and  CB_69 
REMARK   34  A    between atoms: CB_69  and  OG_70 
ROOT
ATOM      1  CA  DVA d          44.096  56.395  87.750  0.00  0.00     0.090 C 
ATOM      2  H28 DVA d          44.016  57.293  87.119  0.00  0.00     0.087 H 
ENDROOT
BRANCH   1   3
ATOM      3  N   DVA d          43.262  56.574  88.927  0.00  0.00    -0.346 N 
ATOM      4  C   DVA d          42.884  57.792  89.269  0.00  0.00     0.243 C 
ATOM      5  O   DVA d          43.196  58.779  88.623  0.00  0.00    -0.271 OA
ATOM      6  H27 DVA d          42.979  55.784  89.471  0.00  0.00     0.163 HD
BRANCH   4   7
ATOM      7  CA  DVA d          42.053  57.930  90.531  0.00  0.00     0.109 C 
ATOM      8  H23 DVA d          42.154  58.937  90.960  0.00  0.00     0.090 H 
BRANCH   7   9
ATOM      9  N   DVA d          42.515  56.934  91.471  0.00  0.00    -0.344 N 
ATOM     10  C   DVA d          41.957  55.736  91.552  0.00  0.00     0.236 C 
ATOM     11  O   DVA d          41.018  55.380  90.840  0.00  0.00    -0.272 OA
ATOM     12  H22 DVA d          43.278  57.156  92.078  0.00  0.00     0.163 HD
BRANCH  10  13
ATOM     13  CA  DVA d          42.540  54.800  92.579  0.00  0.00     0.069 C 
ATOM     14  H20 DVA d          42.607  53.782  92.166  0.00  0.00     0.078 H 
ATOM     15  H21 DVA d          43.542  55.142  92.874  0.00  0.00     0.078 H 
BRANCH  13  16
ATOM     16  N   DVA d          41.657  54.813  93.719  0.00  0.00    -0.351 N 
ATOM     17  C   DVA d          40.938  53.746  94.041  0.00  0.00     0.241 C 
ATOM     18  O   DVA d          40.980  52.685  93.412  0.00  0.00    -0.271 OA
ATOM     19  H19 DVA d          41.586  55.640  94.277  0.00  0.00     0.163 HD
BRANCH  17  20
ATOM     20  CA  DVA d          40.048  53.914  95.270  0.00  0.00     0.091 C 
ATOM     21  N   DVA d          39.397  52.640  95.612  0.00  0.00    -0.337 N 
ATOM     22  C   DVA d          39.811  51.498  96.220  0.00  0.00     0.251 C 
ATOM     23  CD  DVA d          37.985  52.670  95.183  0.00  0.00    -0.001 C 
ATOM     24  O   DVA d          39.052  50.531  96.354  0.00  0.00    -0.271 OA
ATOM     25  CG  DVA d          37.927  53.906  94.305  0.00  0.00    -0.048 C 
ATOM     26  H17 DVA d          37.310  52.766  96.047  0.00  0.00     0.064 H 
ATOM     27  H18 DVA d          37.725  51.766  94.612  0.00  0.00     0.064 H 
ATOM     28  CB  DVA d          38.867  54.834  94.991  0.00  0.00    -0.036 C 
ATOM     29  H15 DVA d          38.263  53.683  93.282  0.00  0.00     0.035 H 
ATOM     30  H16 DVA d          36.910  54.324  94.274  0.00  0.00     0.035 H 
ATOM     31  H13 DVA d          39.155  55.670  94.337  0.00  0.00     0.036 H 
ATOM     32  H14 DVA d          38.435  55.228  95.923  0.00  0.00     0.036 H 
ATOM     33  H12 DVA d          40.651  54.292  96.110  0.00  0.00     0.087 H 
BRANCH  22  34
ATOM     34  CA  DVA d          41.272  51.384  96.716  0.00  0.00     0.178 C 
ATOM     35  H4  DVA d          41.623  52.403  96.939  0.00  0.00     0.099 H 
BRANCH  34  36
ATOM     36  N   DVA d          42.116  50.828  95.623  0.00  0.00    -0.066 N 
ATOM     37  H1  DVA d          42.516  51.584  95.089  0.00  0.00     0.275 HD
ATOM     38  H2  DVA d          41.549  50.254  95.019  0.00  0.00     0.275 HD
ATOM     39  H3  DVA d          42.856  50.270  96.020  0.00  0.00     0.275 HD
ENDBRANCH  34  36
BRANCH  34  40
ATOM     40  CB  DVA d          41.453  50.550  97.999  0.00  0.00    -0.025 C 
ATOM     41  H5  DVA d          40.474  50.168  98.325  0.00  0.00     0.042 H 
BRANCH  40  42
ATOM     42  CG1 DVA d          42.379  49.373  97.737  0.00  0.00    -0.071 C 
ATOM     43  H6  DVA d          43.223  49.702  97.113  0.00  0.00     0.028 H 
ATOM     44  H7  DVA d          41.825  48.579  97.215  0.00  0.00     0.028 H 
ATOM     45  H8  DVA d          42.761  48.985  98.694  0.00  0.00     0.028 H 
ENDBRANCH  40  42
BRANCH  40  46
ATOM     46  CG2 DVA d          42.036  51.446  99.095  0.00  0.00    -0.071 C 
ATOM     47  H9  DVA d          42.185  52.461  98.698  0.00  0.00     0.028 H 
ATOM     48  H10 DVA d          43.002  51.037  99.428  0.00  0.00     0.028 H 
ATOM     49  H11 DVA d          41.342  51.483  99.946  0.00  0.00     0.028 H 
ENDBRANCH  40  46
ENDBRANCH  34  40
ENDBRANCH  22  34
ENDBRANCH  17  20
ENDBRANCH  13  16
ENDBRANCH  10  13
ENDBRANCH   7   9
BRANCH   7  50
ATOM     50  CB  DVA d          40.603  57.656  90.147  0.00  0.00     0.044 C 
ATOM     51  H24 DVA d          39.977  58.504  90.460  0.00  0.00     0.077 H 
ATOM     52  H25 DVA d          40.259  56.741  90.653  0.00  0.00     0.077 H 
BRANCH  50  53
ATOM     53  OG  DVA d          40.494  57.485  88.744  0.00  0.00    -0.398 OA
ATOM     54  H26 DVA d          40.742  58.292  88.308  0.00  0.00     0.209 HD
ENDBRANCH  50  53
ENDBRANCH   7  50
ENDBRANCH   4   7
ENDBRANCH   1   3
BRANCH   1  55
ATOM     55  C   DVA d          45.557  56.209  88.151  0.00  0.00     0.241 C 
ATOM     56  O   DVA d          45.938  56.502  89.288  0.00  0.00    -0.271 OA
ATOM     57  N   DVA d          46.372  55.722  87.214  0.00  0.00    -0.346 N 
ATOM     58  H35 DVA d          45.995  55.477  86.320  0.00  0.00     0.163 HD
BRANCH  57  59
ATOM     59  CA  DVA d          47.818  55.534  87.463  0.00  0.00     0.094 C 
ATOM     60  H36 DVA d          48.050  55.977  88.442  0.00  0.00     0.088 H 
BRANCH  59  61
ATOM     61  C   DVA d          48.257  54.098  87.451  0.00  0.00     0.241 C 
ATOM     62  O   DVA d          48.992  53.680  86.546  0.00  0.00    -0.271 OA
ATOM     63  N   DVA d          47.779  53.341  88.433  0.00  0.00    -0.346 N 
ATOM     64  H42 DVA d          47.252  53.760  89.172  0.00  0.00     0.163 HD
BRANCH  63  65
ATOM     65  CA  DVA d          48.018  51.898  88.439  0.00  0.00     0.093 C 
ATOM     66  H43 DVA d          48.563  51.651  87.516  0.00  0.00     0.088 H 
BRANCH  65  67
ATOM     67  C   DVA d          48.850  51.372  89.602  0.00  0.00     0.241 C 
ATOM     68  O   DVA d          50.065  51.586  89.637  0.00  0.00    -0.271 OA
ATOM     69  N   DVA d          48.194  50.680  90.532  0.00  0.00    -0.345 N 
ATOM     70  H51 DVA d          47.211  50.534  90.424  0.00  0.00     0.163 HD
BRANCH  69  71
ATOM     71  CA  DVA d          48.871  50.122  91.711  0.00  0.00     0.098 C 
ATOM     72  H52 DVA d          49.921  50.449  91.678  0.00  0.00     0.088 H 
BRANCH  71  73
ATOM     73  C   DVA d          48.274  50.571  93.044  0.00  0.00     0.241 C 
ATOM     74  O   DVA d          48.992  50.931  93.986  0.00  0.00    -0.271 OA
ATOM     75  N   DVA d          46.940  50.551  93.070  0.00  0.00    -0.343 N 
ATOM     76  H55 DVA d          46.478  50.224  92.245  0.00  0.00     0.163 HD
BRANCH  75  77
ATOM     77  CA  DVA d          46.086  50.960  94.186  0.00  0.00     0.116 C 
ATOM     78  H56 DVA d          46.744  51.437  94.928  0.00  0.00     0.093 H 
BRANCH  77  79
ATOM     79  C   DVA d          45.028  51.987  93.807  0.00  0.00     0.198 C 
ATOM     80  O   DVA d          44.377  52.536  94.719  0.00  0.00    -0.646 OA
ATOM     81  OXT DVA d          44.876  52.229  92.587  0.00  0.00    -0.646 OA
ENDBRANCH  77  79
BRANCH  77  82
ATOM     82  CB  DVA d          45.429  49.752  94.866  0.00  0.00     0.045 C 
ATOM     83  H57 DVA d          44.429  49.596  94.435  0.00  0.00     0.077 H 
ATOM     84  H58 DVA d          45.338  49.951  95.944  0.00  0.00     0.077 H 
BRANCH  82  85
ATOM     85  OG  DVA d          46.206  48.575  94.675  0.00  0.00    -0.398 OA
ATOM     86  H59 DVA d          47.103  48.743  94.937  0.00  0.00     0.209 HD
ENDBRANCH  82  85
ENDBRANCH  77  82
ENDBRANCH  75  77
ENDBRANCH  71  73
BRANCH  71  87
ATOM     87  CB  DVA d          48.825  48.593  91.682  0.00  0.00     0.043 C 
ATOM     88  H53 DVA d          48.906  48.219  92.714  0.00  0.00     0.052 H 
ATOM     89  H54 DVA d          49.677  48.227  91.091  0.00  0.00     0.052 H 
BRANCH  87  90
ATOM     90  CG  DVA d          47.553  48.063  91.075  0.00  0.00     0.175 C 
ATOM     91  OD1 DVA d          46.624  47.722  91.839  0.00  0.00    -0.648 OA
ATOM     92  OD2 DVA d          47.473  48.000  89.837  0.00  0.00    -0.648 OA
ENDBRANCH  87  90
ENDBRANCH  71  87
ENDBRANCH  69  71
ENDBRANCH  65  67
BRANCH  65  93
ATOM     93  CB  DVA d          46.659  51.192  88.407  0.00  0.00    -0.014 C 
ATOM     94  H44 DVA d          45.881  51.915  88.694  0.00  0.00     0.043 H 
ATOM     95  H45 DVA d          46.676  50.364  89.131  0.00  0.00     0.043 H 
BRANCH  93  96
ATOM     96  CG  DVA d          46.319  50.631  87.035  0.00  0.00    -0.056 A 
ATOM     97  CD1 DVA d          47.323  50.388  86.091  0.00  0.00    -0.074 A 
ATOM     98  CE1 DVA d          47.028  49.902  84.806  0.00  0.00    -0.051 A 
ATOM     99  H46 DVA d          48.355  50.580  86.358  0.00  0.00     0.084 H 
ATOM    100  CZ  DVA d          45.684  49.648  84.470  0.00  0.00     0.065 A 
ATOM    101  H48 DVA d          47.821  49.725  84.087  0.00  0.00     0.087 H 
ATOM    102  CE2 DVA d          44.675  49.883  85.392  0.00  0.00    -0.051 A 
ATOM    103  CD2 DVA d          44.990  50.374  86.672  0.00  0.00    -0.074 A 
ATOM    104  H49 DVA d          43.643  49.688  85.126  0.00  0.00     0.087 H 
ATOM    105  H47 DVA d          44.194  50.556  87.386  0.00  0.00     0.084 H 
BRANCH 100 106
ATOM    106  OH  DVA d          45.352  49.149  83.230  0.00  0.00    -0.361 OA
ATOM    107  H50 DVA d          45.112  48.234  83.312  0.00  0.00     0.217 HD
ENDBRANCH 100 106
ENDBRANCH  93  96
ENDBRANCH  65  93
ENDBRANCH  63  65
ENDBRANCH  59  61
BRANCH  59 108
ATOM    108  CB  DVA d          48.675  56.197  86.382  0.00  0.00     0.004 C 
ATOM    109  H37 DVA d          49.342  55.434  85.956  0.00  0.00     0.046 H 
ATOM    110  H38 DVA d          49.276  56.987  86.857  0.00  0.00     0.046 H 
BRANCH 108 111
ATOM    111  CG  DVA d          47.892  56.814  85.262  0.00  0.00     0.053 A 
ATOM    112  ND1 DVA d          47.139  57.961  85.416  0.00  0.00    -0.247 NA
ATOM    113  CE1 DVA d          46.586  58.280  84.255  0.00  0.00     0.064 A 
ATOM    114  NE2 DVA d          46.953  57.376  83.354  0.00  0.00    -0.359 N 
ATOM    115  H40 DVA d          45.942  59.139  84.070  0.00  0.00     0.143 H 
ATOM    116  CD2 DVA d          47.769  56.449  83.964  0.00  0.00     0.002 A 
ATOM    117  H41 DVA d          46.674  57.369  82.363  0.00  0.00     0.166 HD
ATOM    118  H39 DVA d          48.229  55.582  83.490  0.00  0.00     0.114 H 
ENDBRANCH 108 111
ENDBRANCH  59 108
ENDBRANCH  57  59
ENDBRANCH   1  55
BRANCH   1 119
ATOM    119  CB  DVA d          43.603  55.183  86.950  0.00  0.00    -0.030 C 
ATOM    120  H29 DVA d          44.472  54.626  86.570  0.00  0.00     0.037 H 
ATOM    121  H30 DVA d          42.993  55.534  86.104  0.00  0.00     0.037 H 
BRANCH 119 122
ATOM    122  CG  DVA d          42.748  54.243  87.835  0.00  0.00     0.011 C 
ATOM    123  H31 DVA d          42.966  54.468  88.889  0.00  0.00     0.047 H 
ATOM    124  H32 DVA d          43.036  53.204  87.614  0.00  0.00     0.047 H 
BRANCH 122 125
ATOM    125  CD  DVA d          41.230  54.379  87.617  0.00  0.00     0.215 C 
ATOM    126  OE1 DVA d          40.777  55.110  86.718  0.00  0.00    -0.274 OA
ATOM    127  NE2 DVA d          40.455  53.678  88.419  0.00  0.00    -0.370 N 
ATOM    128  H33 DVA d          39.461  53.729  88.323  0.00  0.00     0.159 HD
ATOM    129  H34 DVA d          40.861  53.097  89.124  0.00  0.00     0.159 HD
ENDBRANCH 122 125
ENDBRANCH 119 122
ENDBRANCH   1 119
TORSDOF 34
ENDMDL
MODEL 7
REMARK VINA RESULT:      -4.0      2.288      9.824
REMARK WARNING: 32 MAX_TORS EXCEEDED!!!
REMARK  34 active torsions:
REMARK  status: ('A' for Active; 'I' for Inactive)
REMARK    1  A    between atoms: N_1  and  CA_2 
REMARK    2  A    between atoms: CA_2  and  CB_3 
REMARK    3  A    between atoms: CA_2  and  C_6 
REMARK    4  A    between atoms: CB_3  and  CG1_4 
REMARK    5  A    between atoms: CB_3  and  CG2_5 
REMARK       I    between atoms: C_6  and  N_8 
REMARK    6  A    between atoms: CA_9  and  C_13 
REMARK       I    between atoms: C_13  and  N_15 
REMARK    7  A    between atoms: N_15  and  CA_16 
REMARK    8  A    between atoms: CA_16  and  C_17 
REMARK       I    between atoms: C_17  and  N_19 
REMARK    9  A    between atoms: N_19  and  CA_20 
REMARK   10  A    between atoms: CA_20  and  C_21 
REMARK   11  A    between atoms: CA_20  and  CB_23 
REMARK       I    between atoms: C_21  and  N_25 
REMARK   12  A    between atoms: CB_23  and  OG_24 
REMARK   13  A    between atoms: N_25  and  CA_26 
REMARK   14  A    between atoms: CA_26  and  C_27 
REMARK   15  A    between atoms: CA_26  and  CB_29 
REMARK       I    between atoms: C_27  and  N_34 
REMARK   16  A    between atoms: CB_29  and  CG_30 
REMARK   17  A    between atoms: CG_30  and  CD_31 
REMARK       I    between atoms: CD_31  and  NE2_33 
REMARK   18  A    between atoms: N_34  and  CA_35 
REMARK   19  A    between atoms: CA_35  and  C_36 
REMARK   20  A    between atoms: CA_35  and  CB_38 
REMARK       I    between atoms: C_36  and  N_44 
REMARK   21  A    between atoms: CB_38  and  CG_39 
REMARK   22  A    between atoms: N_44  and  CA_45 
REMARK   23  A    between atoms: CA_45  and  C_46 
REMARK   24  A    between atoms: CA_45  and  CB_48 
REMARK       I    between atoms: C_46  and  N_56 
REMARK   25  A    between atoms: CB_48  and  CG_49 
REMARK   26  A    between atoms: CZ_54  and  OH_55 
REMARK   27  A    between atoms: N_56  and  CA_57 
REMARK   28  A    between atoms: CA_57  and  C_58 
REMARK   29  A    between atoms: CA_57  and  CB_60 
REMARK       I    between atoms: C_58  and  N_64 
REMARK   30  A    between atoms: CB_60  and  CG_61 
REMARK   31  A    between atoms: N_64  and  CA_65 
REMARK   32  A    between atoms: CA_65  and  C_66 
REMARK   33  A    between atoms: CA_65  and  CB_69 
REMARK   34  A    between atoms: CB_69  and  OG_70 
ROOT
ATOM      1  CA  DVA d          40.729  55.156  91.688  0.00  0.00     0.090 C 
ATOM      2  H28 DVA d          39.789  55.339  91.146  0.00  0.00     0.087 H 
ENDROOT
BRANCH   1   3
ATOM      3  N   DVA d          41.835  55.238  90.748  0.00  0.00    -0.346 N 
ATOM      4  C   DVA d          41.600  55.062  89.460  0.00  0.00     0.243 C 
ATOM      5  O   DVA d          40.481  54.846  89.023  0.00  0.00    -0.271 OA
ATOM      6  H27 DVA d          42.762  55.425  91.073  0.00  0.00     0.163 HD
BRANCH   4   7
ATOM      7  CA  DVA d          42.794  55.111  88.526  0.00  0.00     0.109 C 
ATOM      8  H23 DVA d          43.145  56.144  88.390  0.00  0.00     0.090 H 
BRANCH   7   9
ATOM      9  N   DVA d          42.384  54.548  87.260  0.00  0.00    -0.344 N 
ATOM     10  C   DVA d          42.831  55.019  86.107  0.00  0.00     0.236 C 
ATOM     11  O   DVA d          43.623  55.958  86.024  0.00  0.00    -0.272 OA
ATOM     12  H22 DVA d          41.744  53.779  87.255  0.00  0.00     0.163 HD
BRANCH  10  13
ATOM     13  CA  DVA d          42.317  54.337  84.866  0.00  0.00     0.069 C 
ATOM     14  H20 DVA d          41.561  53.584  85.136  0.00  0.00     0.078 H 
ATOM     15  H21 DVA d          41.869  55.078  84.187  0.00  0.00     0.078 H 
BRANCH  13  16
ATOM     16  N   DVA d          43.443  53.700  84.229  0.00  0.00    -0.351 N 
ATOM     17  C   DVA d          43.459  53.487  82.920  0.00  0.00     0.241 C 
ATOM     18  O   DVA d          42.541  53.823  82.166  0.00  0.00    -0.271 OA
ATOM     19  H19 DVA d          44.225  53.414  84.783  0.00  0.00     0.163 HD
BRANCH  17  20
ATOM     20  CA  DVA d          44.717  52.800  82.393  0.00  0.00     0.091 C 
ATOM     21  N   DVA d          45.775  52.812  83.415  0.00  0.00    -0.337 N 
ATOM     22  C   DVA d          46.007  52.096  84.546  0.00  0.00     0.251 C 
ATOM     23  CD  DVA d          46.781  53.839  83.081  0.00  0.00    -0.001 C 
ATOM     24  O   DVA d          46.981  52.338  85.270  0.00  0.00    -0.271 OA
ATOM     25  CG  DVA d          46.100  54.630  81.980  0.00  0.00    -0.048 C 
ATOM     26  H17 DVA d          47.713  53.380  82.720  0.00  0.00     0.064 H 
ATOM     27  H18 DVA d          46.999  54.477  83.951  0.00  0.00     0.064 H 
ATOM     28  CB  DVA d          45.346  53.577  81.246  0.00  0.00    -0.036 C 
ATOM     29  H15 DVA d          45.420  55.388  82.397  0.00  0.00     0.035 H 
ATOM     30  H16 DVA d          46.838  55.118  81.327  0.00  0.00     0.035 H 
ATOM     31  H13 DVA d          44.580  54.015  80.590  0.00  0.00     0.036 H 
ATOM     32  H14 DVA d          46.019  52.942  80.651  0.00  0.00     0.036 H 
ATOM     33  H12 DVA d          44.472  51.772  82.085  0.00  0.00     0.087 H 
BRANCH  22  34
ATOM     34  CA  DVA d          45.014  50.987  84.965  0.00  0.00     0.178 C 
ATOM     35  H4  DVA d          44.029  51.257  84.557  0.00  0.00     0.099 H 
BRANCH  34  36
ATOM     36  N   DVA d          44.911  50.960  86.451  0.00  0.00    -0.066 N 
ATOM     37  H1  DVA d          45.610  51.569  86.847  0.00  0.00     0.275 HD
ATOM     38  H2  DVA d          45.058  50.019  86.782  0.00  0.00     0.275 HD
ATOM     39  H3  DVA d          43.995  51.275  86.730  0.00  0.00     0.275 HD
ENDBRANCH  34  36
BRANCH  34  40
ATOM     40  CB  DVA d          45.357  49.581  84.435  0.00  0.00    -0.025 C 
ATOM     41  H5  DVA d          45.490  48.895  85.285  0.00  0.00     0.042 H 
BRANCH  40  42
ATOM     42  CG1 DVA d          44.233  49.061  83.552  0.00  0.00    -0.071 C 
ATOM     43  H6  DVA d          43.539  48.461  84.157  0.00  0.00     0.028 H 
ATOM     44  H7  DVA d          44.656  48.436  82.751  0.00  0.00     0.028 H 
ATOM     45  H8  DVA d          43.693  49.910  83.108  0.00  0.00     0.028 H 
ENDBRANCH  40  42
BRANCH  40  46
ATOM     46  CG2 DVA d          46.662  49.657  83.638  0.00  0.00    -0.071 C 
ATOM     47  H9  DVA d          47.124  50.645  83.786  0.00  0.00     0.028 H 
ATOM     48  H10 DVA d          46.448  49.507  82.570  0.00  0.00     0.028 H 
ATOM     49  H11 DVA d          47.350  48.874  83.987  0.00  0.00     0.028 H 
ENDBRANCH  40  46
ENDBRANCH  34  40
ENDBRANCH  22  34
ENDBRANCH  17  20
ENDBRANCH  13  16
ENDBRANCH  10  13
ENDBRANCH   7   9
BRANCH   7  50
ATOM     50  CB  DVA d          43.890  54.254  89.151  0.00  0.00     0.044 C 
ATOM     51  H24 DVA d          43.788  54.274  90.246  0.00  0.00     0.077 H 
ATOM     52  H25 DVA d          44.873  54.657  88.866  0.00  0.00     0.077 H 
BRANCH  50  53
ATOM     53  OG  DVA d          43.781  52.916  88.695  0.00  0.00    -0.398 OA
ATOM     54  H26 DVA d          42.864  52.676  88.639  0.00  0.00     0.209 HD
ENDBRANCH  50  53
ENDBRANCH   7  50
ENDBRANCH   4   7
ENDBRANCH   1   3
BRANCH   1  55
ATOM     55  C   DVA d          40.665  53.769  92.321  0.00  0.00     0.241 C 
ATOM     56  O   DVA d          39.903  52.908  91.870  0.00  0.00    -0.271 OA
ATOM     57  N   DVA d          41.465  53.556  93.367  0.00  0.00    -0.346 N 
ATOM     58  H35 DVA d          42.080  54.287  93.666  0.00  0.00     0.163 HD
BRANCH  57  59
ATOM     59  CA  DVA d          41.467  52.269  94.095  0.00  0.00     0.094 C 
ATOM     60  H36 DVA d          41.244  51.473  93.370  0.00  0.00     0.088 H 
BRANCH  59  61
ATOM     61  C   DVA d          42.765  51.961  94.784  0.00  0.00     0.241 C 
ATOM     62  O   DVA d          42.854  50.974  95.528  0.00  0.00    -0.271 OA
ATOM     63  N   DVA d          43.753  52.821  94.566  0.00  0.00    -0.346 N 
ATOM     64  H42 DVA d          43.635  53.554  93.895  0.00  0.00     0.163 HD
BRANCH  63  65
ATOM     65  CA  DVA d          45.013  52.705  95.300  0.00  0.00     0.093 C 
ATOM     66  H43 DVA d          44.897  51.886  96.025  0.00  0.00     0.088 H 
BRANCH  65  67
ATOM     67  C   DVA d          46.241  52.383  94.457  0.00  0.00     0.241 C 
ATOM     68  O   DVA d          47.181  51.756  94.953  0.00  0.00    -0.271 OA
ATOM     69  N   DVA d          46.228  52.824  93.200  0.00  0.00    -0.345 N 
ATOM     70  H51 DVA d          45.435  53.339  92.876  0.00  0.00     0.163 HD
BRANCH  69  71
ATOM     71  CA  DVA d          47.342  52.576  92.275  0.00  0.00     0.098 C 
ATOM     72  H52 DVA d          48.255  52.459  92.878  0.00  0.00     0.088 H 
BRANCH  71  73
ATOM     73  C   DVA d          47.174  51.325  91.415  0.00  0.00     0.241 C 
ATOM     74  O   DVA d          46.070  50.782  91.273  0.00  0.00    -0.271 OA
ATOM     75  N   DVA d          48.304  50.912  90.839  0.00  0.00    -0.343 N 
ATOM     76  H55 DVA d          49.132  51.432  91.047  0.00  0.00     0.163 HD
BRANCH  75  77
ATOM     77  CA  DVA d          48.451  49.772  89.931  0.00  0.00     0.116 C 
ATOM     78  H56 DVA d          49.503  49.762  89.606  0.00  0.00     0.093 H 
BRANCH  77  79
ATOM     79  C   DVA d          48.177  48.426  90.586  0.00  0.00     0.198 C 
ATOM     80  O   DVA d          48.828  48.115  91.604  0.00  0.00    -0.646 OA
ATOM     81  OXT DVA d          47.298  47.703  90.061  0.00  0.00    -0.646 OA
ENDBRANCH  77  79
BRANCH  77  82
ATOM     82  CB  DVA d          47.585  49.936  88.676  0.00  0.00     0.045 C 
ATOM     83  H57 DVA d          47.556  51.000  88.396  0.00  0.00     0.077 H 
ATOM     84  H58 DVA d          46.566  49.586  88.894  0.00  0.00     0.077 H 
BRANCH  82  85
ATOM     85  OG  DVA d          48.113  49.185  87.590  0.00  0.00    -0.398 OA
ATOM     86  H59 DVA d          49.049  49.335  87.527  0.00  0.00     0.209 HD
ENDBRANCH  82  85
ENDBRANCH  77  82
ENDBRANCH  75  77
ENDBRANCH  71  73
BRANCH  71  87
ATOM     87  CB  DVA d          47.523  53.762  91.325  0.00  0.00     0.043 C 
ATOM     88  H53 DVA d          46.530  54.111  91.006  0.00  0.00     0.052 H 
ATOM     89  H54 DVA d          48.094  53.426  90.447  0.00  0.00     0.052 H 
BRANCH  87  90
ATOM     90  CG  DVA d          48.256  54.911  91.966  0.00  0.00     0.175 C 
ATOM     91  OD1 DVA d          47.771  55.429  92.995  0.00  0.00    -0.648 OA
ATOM     92  OD2 DVA d          49.323  55.288  91.454  0.00  0.00    -0.648 OA
ENDBRANCH  87  90
ENDBRANCH  71  87
ENDBRANCH  69  71
ENDBRANCH  65  67
BRANCH  65  93
ATOM     93  CB  DVA d          45.235  54.010  96.069  0.00  0.00    -0.014 C 
ATOM     94  H44 DVA d          45.706  54.740  95.394  0.00  0.00     0.043 H 
ATOM     95  H45 DVA d          45.906  53.808  96.917  0.00  0.00     0.043 H 
BRANCH  93  96
ATOM     96  CG  DVA d          43.942  54.606  96.604  0.00  0.00    -0.056 A 
ATOM     97  CD1 DVA d          43.304  54.051  97.718  0.00  0.00    -0.074 A 
ATOM     98  CE1 DVA d          42.091  54.564  98.209  0.00  0.00    -0.051 A 
ATOM     99  H46 DVA d          43.757  53.201  98.216  0.00  0.00     0.084 H 
ATOM    100  CZ  DVA d          41.513  55.672  97.560  0.00  0.00     0.065 A 
ATOM    101  H48 DVA d          41.610  54.115  99.071  0.00  0.00     0.087 H 
ATOM    102  CE2 DVA d          42.131  56.236  96.453  0.00  0.00    -0.051 A 
ATOM    103  CD2 DVA d          43.342  55.705  95.974  0.00  0.00    -0.074 A 
ATOM    104  H49 DVA d          41.679  57.087  95.957  0.00  0.00     0.087 H 
ATOM    105  H47 DVA d          43.818  56.152  95.108  0.00  0.00     0.084 H 
BRANCH 100 106
ATOM    106  OH  DVA d          40.338  56.222  98.020  0.00  0.00    -0.361 OA
ATOM    107  H50 DVA d          39.937  56.734  97.329  0.00  0.00     0.217 HD
ENDBRANCH 100 106
ENDBRANCH  93  96
ENDBRANCH  65  93
ENDBRANCH  63  65
ENDBRANCH  59  61
BRANCH  59 108
ATOM    108  CB  DVA d          40.430  52.247  95.219  0.00  0.00     0.004 C 
ATOM    109  H37 DVA d          40.148  53.285  95.449  0.00  0.00     0.046 H 
ATOM    110  H38 DVA d          40.892  51.788  96.106  0.00  0.00     0.046 H 
BRANCH 108 111
ATOM    111  CG  DVA d          39.181  51.484  94.895  0.00  0.00     0.053 A 
ATOM    112  ND1 DVA d          39.163  50.114  94.720  0.00  0.00    -0.247 NA
ATOM    113  CE1 DVA d          37.922  49.721  94.473  0.00  0.00     0.064 A 
ATOM    114  NE2 DVA d          37.136  50.791  94.478  0.00  0.00    -0.359 N 
ATOM    115  H40 DVA d          37.601  48.695  94.297  0.00  0.00     0.143 H 
ATOM    116  CD2 DVA d          37.903  51.904  94.738  0.00  0.00     0.002 A 
ATOM    117  H41 DVA d          36.119  50.788  94.313  0.00  0.00     0.166 HD
ATOM    118  H39 DVA d          37.549  52.932  94.804  0.00  0.00     0.114 H 
ENDBRANCH 108 111
ENDBRANCH  59 108
ENDBRANCH  57  59
ENDBRANCH   1  55
BRANCH   1 119
ATOM    119  CB  DVA d          40.894  56.230  92.770  0.00  0.00    -0.030 C 
ATOM    120  H29 DVA d          40.956  55.742  93.754  0.00  0.00     0.037 H 
ATOM    121  H30 DVA d          40.021  56.901  92.748  0.00  0.00     0.037 H 
BRANCH 119 122
ATOM    122  CG  DVA d          42.178  57.063  92.536  0.00  0.00     0.011 C 
ATOM    123  H31 DVA d          42.809  56.529  91.811  0.00  0.00     0.047 H 
ATOM    124  H32 DVA d          42.713  57.149  93.494  0.00  0.00     0.047 H 
BRANCH 122 125
ATOM    125  CD  DVA d          41.921  58.482  91.999  0.00  0.00     0.215 C 
ATOM    126  OE1 DVA d          42.864  59.204  91.625  0.00  0.00    -0.274 OA
ATOM    127  NE2 DVA d          40.665  58.875  91.950  0.00  0.00    -0.370 N 
ATOM    128  H33 DVA d          40.440  59.788  91.610  0.00  0.00     0.159 HD
ATOM    129  H34 DVA d          39.937  58.261  92.254  0.00  0.00     0.159 HD
ENDBRANCH 122 125
ENDBRANCH 119 122
ENDBRANCH   1 119
TORSDOF 34
ENDMDL
MODEL 8
REMARK VINA RESULT:      -3.9      2.647      7.978
REMARK WARNING: 32 MAX_TORS EXCEEDED!!!
REMARK  34 active torsions:
REMARK  status: ('A' for Active; 'I' for Inactive)
REMARK    1  A    between atoms: N_1  and  CA_2 
REMARK    2  A    between atoms: CA_2  and  CB_3 
REMARK    3  A    between atoms: CA_2  and  C_6 
REMARK    4  A    between atoms: CB_3  and  CG1_4 
REMARK    5  A    between atoms: CB_3  and  CG2_5 
REMARK       I    between atoms: C_6  and  N_8 
REMARK    6  A    between atoms: CA_9  and  C_13 
REMARK       I    between atoms: C_13  and  N_15 
REMARK    7  A    between atoms: N_15  and  CA_16 
REMARK    8  A    between atoms: CA_16  and  C_17 
REMARK       I    between atoms: C_17  and  N_19 
REMARK    9  A    between atoms: N_19  and  CA_20 
REMARK   10  A    between atoms: CA_20  and  C_21 
REMARK   11  A    between atoms: CA_20  and  CB_23 
REMARK       I    between atoms: C_21  and  N_25 
REMARK   12  A    between atoms: CB_23  and  OG_24 
REMARK   13  A    between atoms: N_25  and  CA_26 
REMARK   14  A    between atoms: CA_26  and  C_27 
REMARK   15  A    between atoms: CA_26  and  CB_29 
REMARK       I    between atoms: C_27  and  N_34 
REMARK   16  A    between atoms: CB_29  and  CG_30 
REMARK   17  A    between atoms: CG_30  and  CD_31 
REMARK       I    between atoms: CD_31  and  NE2_33 
REMARK   18  A    between atoms: N_34  and  CA_35 
REMARK   19  A    between atoms: CA_35  and  C_36 
REMARK   20  A    between atoms: CA_35  and  CB_38 
REMARK       I    between atoms: C_36  and  N_44 
REMARK   21  A    between atoms: CB_38  and  CG_39 
REMARK   22  A    between atoms: N_44  and  CA_45 
REMARK   23  A    between atoms: CA_45  and  C_46 
REMARK   24  A    between atoms: CA_45  and  CB_48 
REMARK       I    between atoms: C_46  and  N_56 
REMARK   25  A    between atoms: CB_48  and  CG_49 
REMARK   26  A    between atoms: CZ_54  and  OH_55 
REMARK   27  A    between atoms: N_56  and  CA_57 
REMARK   28  A    between atoms: CA_57  and  C_58 
REMARK   29  A    between atoms: CA_57  and  CB_60 
REMARK       I    between atoms: C_58  and  N_64 
REMARK   30  A    between atoms: CB_60  and  CG_61 
REMARK   31  A    between atoms: N_64  and  CA_65 
REMARK   32  A    between atoms: CA_65  and  C_66 
REMARK   33  A    between atoms: CA_65  and  CB_69 
REMARK   34  A    between atoms: CB_69  and  OG_70 
ROOT
ATOM      1  CA  DVA d          40.933  53.358  90.612  0.00  0.00     0.090 C 
ATOM      2  H28 DVA d          40.337  52.728  89.935  0.00  0.00     0.087 H 
ENDROOT
BRANCH   1   3
ATOM      3  N   DVA d          41.162  54.644  89.975  0.00  0.00    -0.346 N 
ATOM      4  C   DVA d          40.544  54.920  88.841  0.00  0.00     0.243 C 
ATOM      5  O   DVA d          39.772  54.139  88.310  0.00  0.00    -0.271 OA
ATOM      6  H27 DVA d          41.781  55.312  90.391  0.00  0.00     0.163 HD
BRANCH   4   7
ATOM      7  CA  DVA d          40.853  56.257  88.193  0.00  0.00     0.109 C 
ATOM      8  H23 DVA d          39.927  56.794  87.939  0.00  0.00     0.090 H 
BRANCH   7   9
ATOM      9  N   DVA d          41.627  55.998  87.000  0.00  0.00    -0.344 N 
ATOM     10  C   DVA d          42.748  55.294  87.033  0.00  0.00     0.236 C 
ATOM     11  O   DVA d          43.209  54.808  88.066  0.00  0.00    -0.272 OA
ATOM     12  H22 DVA d          41.307  56.361  86.125  0.00  0.00     0.163 HD
BRANCH  10  13
ATOM     13  CA  DVA d          43.452  55.105  85.715  0.00  0.00     0.069 C 
ATOM     14  H20 DVA d          42.768  54.648  84.984  0.00  0.00     0.078 H 
ATOM     15  H21 DVA d          43.800  56.076  85.332  0.00  0.00     0.078 H 
BRANCH  13  16
ATOM     16  N   DVA d          44.578  54.235  85.950  0.00  0.00    -0.351 N 
ATOM     17  C   DVA d          44.603  53.002  85.465  0.00  0.00     0.241 C 
ATOM     18  O   DVA d          43.695  52.523  84.778  0.00  0.00    -0.271 OA
ATOM     19  H19 DVA d          45.352  54.567  86.490  0.00  0.00     0.163 HD
BRANCH  17  20
ATOM     20  CA  DVA d          45.859  52.201  85.802  0.00  0.00     0.091 C 
ATOM     21  N   DVA d          46.141  51.218  84.745  0.00  0.00    -0.337 N 
ATOM     22  C   DVA d          46.675  51.296  83.498  0.00  0.00     0.251 C 
ATOM     23  CD  DVA d          45.745  49.870  85.196  0.00  0.00    -0.001 C 
ATOM     24  O   DVA d          46.770  50.295  82.777  0.00  0.00    -0.271 OA
ATOM     25  CG  DVA d          44.940  50.159  86.449  0.00  0.00    -0.048 C 
ATOM     26  H17 DVA d          46.626  49.254  85.426  0.00  0.00     0.064 H 
ATOM     27  H18 DVA d          45.130  49.363  84.438  0.00  0.00     0.064 H 
ATOM     28  CB  DVA d          45.657  51.326  87.031  0.00  0.00    -0.036 C 
ATOM     29  H15 DVA d          43.899  50.415  86.203  0.00  0.00     0.035 H 
ATOM     30  H16 DVA d          44.953  49.301  87.137  0.00  0.00     0.035 H 
ATOM     31  H13 DVA d          45.045  51.836  87.791  0.00  0.00     0.036 H 
ATOM     32  H14 DVA d          46.618  51.027  87.475  0.00  0.00     0.036 H 
ATOM     33  H12 DVA d          46.706  52.889  85.943  0.00  0.00     0.087 H 
BRANCH  22  34
ATOM     34  CA  DVA d          47.134  52.667  82.948  0.00  0.00     0.178 C 
ATOM     35  H4  DVA d          46.811  53.434  83.668  0.00  0.00     0.099 H 
BRANCH  34  36
ATOM     36  N   DVA d          46.448  52.926  81.651  0.00  0.00    -0.066 N 
ATOM     37  H1  DVA d          46.921  53.671  81.163  0.00  0.00     0.275 HD
ATOM     38  H2  DVA d          45.491  53.193  81.825  0.00  0.00     0.275 HD
ATOM     39  H3  DVA d          46.467  52.091  81.088  0.00  0.00     0.275 HD
ENDBRANCH  34  36
BRANCH  34  40
ATOM     40  CB  DVA d          48.658  52.816  82.777  0.00  0.00    -0.025 C 
ATOM     41  H5  DVA d          49.045  51.955  82.211  0.00  0.00     0.042 H 
BRANCH  40  42
ATOM     42  CG1 DVA d          48.983  54.093  82.019  0.00  0.00    -0.071 C 
ATOM     43  H6  DVA d          48.324  54.176  81.143  0.00  0.00     0.028 H 
ATOM     44  H7  DVA d          50.032  54.066  81.687  0.00  0.00     0.028 H 
ATOM     45  H8  DVA d          48.829  54.960  82.678  0.00  0.00     0.028 H 
ENDBRANCH  40  42
BRANCH  40  46
ATOM     46  CG2 DVA d          49.311  52.844  84.162  0.00  0.00    -0.071 C 
ATOM     47  H9  DVA d          49.290  53.871  84.556  0.00  0.00     0.028 H 
ATOM     48  H10 DVA d          50.354  52.503  84.082  0.00  0.00     0.028 H 
ATOM     49  H11 DVA d          48.759  52.179  84.841  0.00  0.00     0.028 H 
ENDBRANCH  40  46
ENDBRANCH  34  40
ENDBRANCH  22  34
ENDBRANCH  17  20
ENDBRANCH  13  16
ENDBRANCH  10  13
ENDBRANCH   7   9
BRANCH   7  50
ATOM     50  CB  DVA d          41.680  57.061  89.191  0.00  0.00     0.044 C 
ATOM     51  H24 DVA d          42.302  57.787  88.646  0.00  0.00     0.077 H 
ATOM     52  H25 DVA d          42.328  56.378  89.760  0.00  0.00     0.077 H 
BRANCH  50  53
ATOM     53  OG  DVA d          40.826  57.753  90.086  0.00  0.00    -0.398 OA
ATOM     54  H26 DVA d          39.939  57.427  89.991  0.00  0.00     0.209 HD
ENDBRANCH  50  53
ENDBRANCH   7  50
ENDBRANCH   4   7
ENDBRANCH   1   3
BRANCH   1  55
ATOM     55  C   DVA d          42.258  52.655  90.893  0.00  0.00     0.241 C 
ATOM     56  O   DVA d          42.684  51.788  90.124  0.00  0.00    -0.271 OA
ATOM     57  N   DVA d          42.906  53.030  91.997  0.00  0.00    -0.346 N 
ATOM     58  H35 DVA d          42.522  53.758  92.565  0.00  0.00     0.163 HD
BRANCH  57  59
ATOM     59  CA  DVA d          44.179  52.396  92.404  0.00  0.00     0.094 C 
ATOM     60  H36 DVA d          44.145  51.342  92.089  0.00  0.00     0.088 H 
BRANCH  59  61
ATOM     61  C   DVA d          45.398  53.048  91.820  0.00  0.00     0.241 C 
ATOM     62  O   DVA d          46.153  53.714  92.543  0.00  0.00    -0.271 OA
ATOM     63  N   DVA d          45.569  52.887  90.512  0.00  0.00    -0.346 N 
ATOM     64  H42 DVA d          44.964  52.275  90.004  0.00  0.00     0.163 HD
BRANCH  63  65
ATOM     65  CA  DVA d          46.637  53.598  89.811  0.00  0.00     0.093 C 
ATOM     66  H43 DVA d          46.504  53.415  88.735  0.00  0.00     0.088 H 
BRANCH  65  67
ATOM     67  C   DVA d          46.664  55.109  90.006  0.00  0.00     0.241 C 
ATOM     68  O   DVA d          45.840  55.820  89.423  0.00  0.00    -0.271 OA
ATOM     69  N   DVA d          47.612  55.585  90.810  0.00  0.00    -0.345 N 
ATOM     70  H51 DVA d          48.254  54.946  91.234  0.00  0.00     0.163 HD
BRANCH  69  71
ATOM     71  CA  DVA d          47.747  57.021  91.094  0.00  0.00     0.098 C 
ATOM     72  H52 DVA d          46.955  57.545  90.537  0.00  0.00     0.088 H 
BRANCH  71  73
ATOM     73  C   DVA d          47.610  57.381  92.572  0.00  0.00     0.241 C 
ATOM     74  O   DVA d          47.858  58.522  92.985  0.00  0.00    -0.271 OA
ATOM     75  N   DVA d          47.190  56.371  93.336  0.00  0.00    -0.343 N 
ATOM     76  H55 DVA d          47.039  55.494  92.879  0.00  0.00     0.163 HD
BRANCH  75  77
ATOM     77  CA  DVA d          46.927  56.420  94.775  0.00  0.00     0.116 C 
ATOM     78  H56 DVA d          47.361  57.362  95.142  0.00  0.00     0.093 H 
BRANCH  77  79
ATOM     79  C   DVA d          45.447  56.447  95.130  0.00  0.00     0.198 C 
ATOM     80  O   DVA d          44.997  55.552  95.874  0.00  0.00    -0.646 OA
ATOM     81  OXT DVA d          44.761  57.380  94.652  0.00  0.00    -0.646 OA
ENDBRANCH  77  79
BRANCH  77  82
ATOM     82  CB  DVA d          47.628  55.274  95.515  0.00  0.00     0.045 C 
ATOM     83  H57 DVA d          46.919  54.814  96.220  0.00  0.00     0.077 H 
ATOM     84  H58 DVA d          48.488  55.676  96.069  0.00  0.00     0.077 H 
BRANCH  82  85
ATOM     85  OG  DVA d          48.085  54.282  94.603  0.00  0.00    -0.398 OA
ATOM     86  H59 DVA d          47.338  53.837  94.221  0.00  0.00     0.209 HD
ENDBRANCH  82  85
ENDBRANCH  77  82
ENDBRANCH  75  77
ENDBRANCH  71  73
BRANCH  71  87
ATOM     87  CB  DVA d          49.109  57.535  90.623  0.00  0.00     0.043 C 
ATOM     88  H53 DVA d          49.888  56.846  90.983  0.00  0.00     0.052 H 
ATOM     89  H54 DVA d          49.275  58.534  91.052  0.00  0.00     0.052 H 
BRANCH  87  90
ATOM     90  CG  DVA d          49.206  57.631  89.123  0.00  0.00     0.175 C 
ATOM     91  OD1 DVA d          49.969  56.844  88.523  0.00  0.00    -0.648 OA
ATOM     92  OD2 DVA d          48.509  58.479  88.541  0.00  0.00    -0.648 OA
ENDBRANCH  87  90
ENDBRANCH  71  87
ENDBRANCH  69  71
ENDBRANCH  65  67
BRANCH  65  93
ATOM     93  CB  DVA d          47.975  52.992  90.247  0.00  0.00    -0.014 C 
ATOM     94  H44 DVA d          47.896  52.687  91.301  0.00  0.00     0.043 H 
ATOM     95  H45 DVA d          48.758  53.759  90.146  0.00  0.00     0.043 H 
BRANCH  93  96
ATOM     96  CG  DVA d          48.372  51.781  89.418  0.00  0.00    -0.056 A 
ATOM     97  CD1 DVA d          49.004  51.935  88.180  0.00  0.00    -0.074 A 
ATOM     98  CE1 DVA d          49.348  50.832  87.382  0.00  0.00    -0.051 A 
ATOM     99  H46 DVA d          49.235  52.934  87.827  0.00  0.00     0.084 H 
ATOM    100  CZ  DVA d          49.050  49.538  87.851  0.00  0.00     0.065 A 
ATOM    101  H48 DVA d          49.834  50.973  86.422  0.00  0.00     0.087 H 
ATOM    102  CE2 DVA d          48.422  49.364  89.076  0.00  0.00    -0.051 A 
ATOM    103  CD2 DVA d          48.082  50.482  89.858  0.00  0.00    -0.074 A 
ATOM    104  H49 DVA d          48.194  48.366  89.430  0.00  0.00     0.087 H 
ATOM    105  H47 DVA d          47.590  50.337  90.814  0.00  0.00     0.084 H 
BRANCH 100 106
ATOM    106  OH  DVA d          49.391  48.426  87.112  0.00  0.00    -0.361 OA
ATOM    107  H50 DVA d          49.625  47.717  87.699  0.00  0.00     0.217 HD
ENDBRANCH 100 106
ENDBRANCH  93  96
ENDBRANCH  65  93
ENDBRANCH  63  65
ENDBRANCH  59  61
BRANCH  59 108
ATOM    108  CB  DVA d          44.399  52.473  93.916  0.00  0.00     0.004 C 
ATOM    109  H37 DVA d          44.491  53.533  94.197  0.00  0.00     0.046 H 
ATOM    110  H38 DVA d          45.336  51.948  94.155  0.00  0.00     0.046 H 
BRANCH 108 111
ATOM    111  CG  DVA d          43.300  51.866  94.734  0.00  0.00     0.053 A 
ATOM    112  ND1 DVA d          42.014  52.368  94.753  0.00  0.00    -0.247 NA
ATOM    113  CE1 DVA d          41.261  51.612  95.540  0.00  0.00     0.064 A 
ATOM    114  NE2 DVA d          42.017  50.640  96.035  0.00  0.00    -0.359 N 
ATOM    115  H40 DVA d          40.202  51.763  95.745  0.00  0.00     0.143 H 
ATOM    116  CD2 DVA d          43.297  50.781  95.545  0.00  0.00     0.002 A 
ATOM    117  H41 DVA d          41.700  49.902  96.679  0.00  0.00     0.166 HD
ATOM    118  H39 DVA d          44.148  50.140  95.769  0.00  0.00     0.114 H 
ENDBRANCH 108 111
ENDBRANCH  59 108
ENDBRANCH  57  59
ENDBRANCH   1  55
BRANCH   1 119
ATOM    119  CB  DVA d          40.150  53.562  91.916  0.00  0.00    -0.030 C 
ATOM    120  H29 DVA d          39.768  54.593  91.947  0.00  0.00     0.037 H 
ATOM    121  H30 DVA d          40.823  53.393  92.770  0.00  0.00     0.037 H 
BRANCH 119 122
ATOM    122  CG  DVA d          38.958  52.578  92.009  0.00  0.00     0.011 C 
ATOM    123  H31 DVA d          39.327  51.567  91.786  0.00  0.00     0.047 H 
ATOM    124  H32 DVA d          38.210  52.869  91.256  0.00  0.00     0.047 H 
BRANCH 122 125
ATOM    125  CD  DVA d          38.270  52.549  93.385  0.00  0.00     0.215 C 
ATOM    126  OE1 DVA d          38.217  53.570  94.095  0.00  0.00    -0.274 OA
ATOM    127  NE2 DVA d          37.742  51.400  93.755  0.00  0.00    -0.370 N 
ATOM    128  H33 DVA d          37.282  51.323  94.639  0.00  0.00     0.159 HD
ATOM    129  H34 DVA d          37.800  50.606  93.151  0.00  0.00     0.159 HD
ENDBRANCH 122 125
ENDBRANCH 119 122
ENDBRANCH   1 119
TORSDOF 34
ENDMDL
MODEL 9
REMARK VINA RESULT:      -3.7      2.646      8.112
REMARK WARNING: 32 MAX_TORS EXCEEDED!!!
REMARK  34 active torsions:
REMARK  status: ('A' for Active; 'I' for Inactive)
REMARK    1  A    between atoms: N_1  and  CA_2 
REMARK    2  A    between atoms: CA_2  and  CB_3 
REMARK    3  A    between atoms: CA_2  and  C_6 
REMARK    4  A    between atoms: CB_3  and  CG1_4 
REMARK    5  A    between atoms: CB_3  and  CG2_5 
REMARK       I    between atoms: C_6  and  N_8 
REMARK    6  A    between atoms: CA_9  and  C_13 
REMARK       I    between atoms: C_13  and  N_15 
REMARK    7  A    between atoms: N_15  and  CA_16 
REMARK    8  A    between atoms: CA_16  and  C_17 
REMARK       I    between atoms: C_17  and  N_19 
REMARK    9  A    between atoms: N_19  and  CA_20 
REMARK   10  A    between atoms: CA_20  and  C_21 
REMARK   11  A    between atoms: CA_20  and  CB_23 
REMARK       I    between atoms: C_21  and  N_25 
REMARK   12  A    between atoms: CB_23  and  OG_24 
REMARK   13  A    between atoms: N_25  and  CA_26 
REMARK   14  A    between atoms: CA_26  and  C_27 
REMARK   15  A    between atoms: CA_26  and  CB_29 
REMARK       I    between atoms: C_27  and  N_34 
REMARK   16  A    between atoms: CB_29  and  CG_30 
REMARK   17  A    between atoms: CG_30  and  CD_31 
REMARK       I    between atoms: CD_31  and  NE2_33 
REMARK   18  A    between atoms: N_34  and  CA_35 
REMARK   19  A    between atoms: CA_35  and  C_36 
REMARK   20  A    between atoms: CA_35  and  CB_38 
REMARK       I    between atoms: C_36  and  N_44 
REMARK   21  A    between atoms: CB_38  and  CG_39 
REMARK   22  A    between atoms: N_44  and  CA_45 
REMARK   23  A    between atoms: CA_45  and  C_46 
REMARK   24  A    between atoms: CA_45  and  CB_48 
REMARK       I    between atoms: C_46  and  N_56 
REMARK   25  A    between atoms: CB_48  and  CG_49 
REMARK   26  A    between atoms: CZ_54  and  OH_55 
REMARK   27  A    between atoms: N_56  and  CA_57 
REMARK   28  A    between atoms: CA_57  and  C_58 
REMARK   29  A    between atoms: CA_57  and  CB_60 
REMARK       I    between atoms: C_58  and  N_64 
REMARK   30  A    between atoms: CB_60  and  CG_61 
REMARK   31  A    between atoms: N_64  and  CA_65 
REMARK   32  A    between atoms: CA_65  and  C_66 
REMARK   33  A    between atoms: CA_65  and  CB_69 
REMARK   34  A    between atoms: CB_69  and  OG_70 
ROOT
ATOM      1  CA  DVA d          47.422  51.465  94.647  0.00  0.00     0.090 C 
ATOM      2  H28 DVA d          47.256  50.547  94.064  0.00  0.00     0.087 H 
ENDROOT
BRANCH   1   3
ATOM      3  N   DVA d          46.360  51.593  95.632  0.00  0.00    -0.346 N 
ATOM      4  C   DVA d          45.570  50.561  95.864  0.00  0.00     0.243 C 
ATOM      5  O   DVA d          45.706  49.491  95.291  0.00  0.00    -0.271 OA
ATOM      6  H27 DVA d          46.230  52.453  96.126  0.00  0.00     0.163 HD
BRANCH   4   7
ATOM      7  CA  DVA d          44.449  50.760  96.866  0.00  0.00     0.109 C 
ATOM      8  H23 DVA d          43.548  50.206  96.564  0.00  0.00     0.090 H 
BRANCH   7   9
ATOM      9  N   DVA d          44.169  52.176  96.936  0.00  0.00    -0.344 N 
ATOM     10  C   DVA d          43.745  52.858  95.884  0.00  0.00     0.236 C 
ATOM     11  O   DVA d          43.553  52.346  94.780  0.00  0.00    -0.272 OA
ATOM     12  H22 DVA d          44.300  52.655  97.804  0.00  0.00     0.163 HD
BRANCH  10  13
ATOM     13  CA  DVA d          43.496  54.328  96.101  0.00  0.00     0.069 C 
ATOM     14  H20 DVA d          43.396  54.538  97.177  0.00  0.00     0.078 H 
ATOM     15  H21 DVA d          44.330  54.915  95.690  0.00  0.00     0.078 H 
BRANCH  13  16
ATOM     16  N   DVA d          42.272  54.662  95.416  0.00  0.00    -0.351 N 
ATOM     17  C   DVA d          41.107  54.644  96.048  0.00  0.00     0.241 C 
ATOM     18  O   DVA d          40.987  54.362  97.244  0.00  0.00    -0.271 OA
ATOM     19  H19 DVA d          42.303  54.911  94.448  0.00  0.00     0.163 HD
BRANCH  17  20
ATOM     20  CA  DVA d          39.901  55.017  95.188  0.00  0.00     0.091 C 
ATOM     21  N   DVA d          40.323  55.316  93.812  0.00  0.00    -0.337 N 
ATOM     22  C   DVA d          40.691  54.556  92.748  0.00  0.00     0.251 C 
ATOM     23  CD  DVA d          40.320  56.776  93.594  0.00  0.00    -0.001 C 
ATOM     24  O   DVA d          41.048  55.072  91.682  0.00  0.00    -0.271 OA
ATOM     25  CG  DVA d          40.167  57.324  95.000  0.00  0.00    -0.048 C 
ATOM     26  H17 DVA d          39.476  57.080  92.957  0.00  0.00     0.064 H 
ATOM     27  H18 DVA d          41.264  57.111  93.139  0.00  0.00     0.064 H 
ATOM     28  CB  DVA d          39.269  56.325  95.640  0.00  0.00    -0.036 C 
ATOM     29  H15 DVA d          41.138  57.373  95.516  0.00  0.00     0.035 H 
ATOM     30  H16 DVA d          39.707  58.323  94.990  0.00  0.00     0.035 H 
ATOM     31  H13 DVA d          39.279  56.419  96.736  0.00  0.00     0.036 H 
ATOM     32  H14 DVA d          38.235  56.421  95.274  0.00  0.00     0.036 H 
ATOM     33  H12 DVA d          39.167  54.197  95.211  0.00  0.00     0.087 H 
BRANCH  22  34
ATOM     34  CA  DVA d          40.708  53.014  92.880  0.00  0.00     0.178 C 
ATOM     35  H4  DVA d          40.862  52.778  93.943  0.00  0.00     0.099 H 
BRANCH  34  36
ATOM     36  N   DVA d          41.862  52.472  92.110  0.00  0.00    -0.066 N 
ATOM     37  H1  DVA d          42.456  53.231  91.816  0.00  0.00     0.275 HD
ATOM     38  H2  DVA d          41.522  51.978  91.299  0.00  0.00     0.275 HD
ATOM     39  H3  DVA d          42.387  51.840  92.692  0.00  0.00     0.275 HD
ENDBRANCH  34  36
BRANCH  34  40
ATOM     40  CB  DVA d          39.406  52.316  92.442  0.00  0.00    -0.025 C 
ATOM     41  H5  DVA d          39.562  51.227  92.438  0.00  0.00     0.042 H 
BRANCH  40  42
ATOM     42  CG1 DVA d          38.278  52.650  93.405  0.00  0.00    -0.071 C 
ATOM     43  H6  DVA d          37.499  51.876  93.341  0.00  0.00     0.028 H 
ATOM     44  H7  DVA d          37.845  53.627  93.139  0.00  0.00     0.028 H 
ATOM     45  H8  DVA d          38.671  52.691  94.432  0.00  0.00     0.028 H 
ENDBRANCH  40  42
BRANCH  40  46
ATOM     46  CG2 DVA d          39.047  52.780  91.028  0.00  0.00    -0.071 C 
ATOM     47  H9  DVA d          39.925  52.674  90.373  0.00  0.00     0.028 H 
ATOM     48  H10 DVA d          38.734  53.834  91.056  0.00  0.00     0.028 H 
ATOM     49  H11 DVA d          38.223  52.164  90.639  0.00  0.00     0.028 H 
ENDBRANCH  40  46
ENDBRANCH  34  40
ENDBRANCH  22  34
ENDBRANCH  17  20
ENDBRANCH  13  16
ENDBRANCH  10  13
ENDBRANCH   7   9
BRANCH   7  50
ATOM     50  CB  DVA d          44.956  50.259  98.214  0.00  0.00     0.044 C 
ATOM     51  H24 DVA d          44.346  49.401  98.537  0.00  0.00     0.077 H 
ATOM     52  H25 DVA d          44.875  51.066  98.957  0.00  0.00     0.077 H 
BRANCH  50  53
ATOM     53  OG  DVA d          46.311  49.855  98.105  0.00  0.00    -0.398 OA
ATOM     54  H26 DVA d          46.852  50.417  98.648  0.00  0.00     0.209 HD
ENDBRANCH  50  53
ENDBRANCH   7  50
ENDBRANCH   4   7
ENDBRANCH   1   3
BRANCH   1  55
ATOM     55  C   DVA d          47.415  52.657  93.693  0.00  0.00     0.241 C 
ATOM     56  O   DVA d          48.395  53.404  93.615  0.00  0.00    -0.271 OA
ATOM     57  N   DVA d          46.308  52.832  92.970  0.00  0.00    -0.346 N 
ATOM     58  H35 DVA d          45.559  52.174  93.058  0.00  0.00     0.163 HD
BRANCH  57  59
ATOM     59  CA  DVA d          46.159  53.972  92.040  0.00  0.00     0.094 C 
ATOM     60  H36 DVA d          46.931  54.714  92.293  0.00  0.00     0.088 H 
BRANCH  59  61
ATOM     61  C   DVA d          46.288  53.599  90.592  0.00  0.00     0.241 C 
ATOM     62  O   DVA d          47.174  52.813  90.229  0.00  0.00    -0.271 OA
ATOM     63  N   DVA d          45.429  54.187  89.766  0.00  0.00    -0.346 N 
ATOM     64  H42 DVA d          44.692  54.752  90.135  0.00  0.00     0.163 HD
BRANCH  63  65
ATOM     65  CA  DVA d          45.556  54.013  88.319  0.00  0.00     0.093 C 
ATOM     66  H43 DVA d          46.585  53.681  88.116  0.00  0.00     0.088 H 
BRANCH  65  67
ATOM     67  C   DVA d          44.623  52.984  87.693  0.00  0.00     0.241 C 
ATOM     68  O   DVA d          43.468  52.864  88.112  0.00  0.00    -0.271 OA
ATOM     69  N   DVA d          45.132  52.245  86.709  0.00  0.00    -0.345 N 
ATOM     70  H51 DVA d          46.083  52.391  86.436  0.00  0.00     0.163 HD
BRANCH  69  71
ATOM     71  CA  DVA d          44.341  51.223  86.011  0.00  0.00     0.098 C 
ATOM     72  H52 DVA d          43.340  51.207  86.469  0.00  0.00     0.088 H 
BRANCH  71  73
ATOM     73  C   DVA d          44.177  51.474  84.513  0.00  0.00     0.241 C 
ATOM     74  O   DVA d          43.061  51.485  83.978  0.00  0.00    -0.271 OA
ATOM     75  N   DVA d          45.329  51.692  83.875  0.00  0.00    -0.343 N 
ATOM     76  H55 DVA d          46.164  51.640  84.423  0.00  0.00     0.163 HD
BRANCH  75  77
ATOM     77  CA  DVA d          45.490  51.999  82.453  0.00  0.00     0.116 C 
ATOM     78  H56 DVA d          44.710  51.436  81.919  0.00  0.00     0.093 H 
BRANCH  77  79
ATOM     79  C   DVA d          45.286  53.469  82.114  0.00  0.00     0.198 C 
ATOM     80  O   DVA d          44.307  53.788  81.410  0.00  0.00    -0.646 OA
ATOM     81  OXT DVA d          46.121  54.283  82.573  0.00  0.00    -0.646 OA
ENDBRANCH  77  79
BRANCH  77  82
ATOM     82  CB  DVA d          46.846  51.517  81.923  0.00  0.00     0.045 C 
ATOM     83  H57 DVA d          47.491  51.250  82.774  0.00  0.00     0.077 H 
ATOM     84  H58 DVA d          47.316  52.328  81.347  0.00  0.00     0.077 H 
BRANCH  82  85
ATOM     85  OG  DVA d          46.691  50.380  81.083  0.00  0.00    -0.398 OA
ATOM     86  H59 DVA d          46.052  50.571  80.407  0.00  0.00     0.209 HD
ENDBRANCH  82  85
ENDBRANCH  77  82
ENDBRANCH  75  77
ENDBRANCH  71  73
BRANCH  71  87
ATOM     87  CB  DVA d          44.984  49.844  86.175  0.00  0.00     0.043 C 
ATOM     88  H53 DVA d          44.948  49.322  85.208  0.00  0.00     0.052 H 
ATOM     89  H54 DVA d          44.410  49.275  86.921  0.00  0.00     0.052 H 
BRANCH  87  90
ATOM     90  CG  DVA d          46.418  49.923  86.628  0.00  0.00     0.175 C 
ATOM     91  OD1 DVA d          47.243  50.510  85.895  0.00  0.00    -0.648 OA
ATOM     92  OD2 DVA d          46.720  49.416  87.720  0.00  0.00    -0.648 OA
ENDBRANCH  87  90
ENDBRANCH  71  87
ENDBRANCH  69  71
ENDBRANCH  65  67
BRANCH  65  93
ATOM     93  CB  DVA d          45.345  55.379  87.658  0.00  0.00    -0.014 C 
ATOM     94  H44 DVA d          45.588  55.293  86.589  0.00  0.00     0.043 H 
ATOM     95  H45 DVA d          46.022  56.106  88.130  0.00  0.00     0.043 H 
BRANCH  93  96
ATOM     96  CG  DVA d          43.918  55.885  87.794  0.00  0.00    -0.056 A 
ATOM     97  CD1 DVA d          43.092  56.013  86.672  0.00  0.00    -0.074 A 
ATOM     98  CE1 DVA d          41.782  56.510  86.769  0.00  0.00    -0.051 A 
ATOM     99  H46 DVA d          43.475  55.720  85.700  0.00  0.00     0.084 H 
ATOM    100  CZ  DVA d          41.291  56.882  88.036  0.00  0.00     0.065 A 
ATOM    101  H48 DVA d          41.160  56.606  85.886  0.00  0.00     0.087 H 
ATOM    102  CE2 DVA d          42.095  56.763  89.160  0.00  0.00    -0.051 A 
ATOM    103  CD2 DVA d          43.406  56.267  89.042  0.00  0.00    -0.074 A 
ATOM    104  H49 DVA d          41.712  57.053  90.132  0.00  0.00     0.087 H 
ATOM    105  H47 DVA d          44.027  56.179  89.926  0.00  0.00     0.084 H 
BRANCH 100 106
ATOM    106  OH  DVA d          40.005  57.352  88.181  0.00  0.00    -0.361 OA
ATOM    107  H50 DVA d          39.420  56.847  87.629  0.00  0.00     0.217 HD
ENDBRANCH 100 106
ENDBRANCH  93  96
ENDBRANCH  65  93
ENDBRANCH  63  65
ENDBRANCH  59  61
BRANCH  59 108
ATOM    108  CB  DVA d          44.775  54.615  92.141  0.00  0.00     0.004 C 
ATOM    109  H37 DVA d          44.124  53.943  92.720  0.00  0.00     0.046 H 
ATOM    110  H38 DVA d          44.373  54.728  91.123  0.00  0.00     0.046 H 
BRANCH 108 111
ATOM    111  CG  DVA d          44.763  55.961  92.801  0.00  0.00     0.053 A 
ATOM    112  ND1 DVA d          45.898  56.549  93.326  0.00  0.00    -0.247 NA
ATOM    113  CE1 DVA d          45.586  57.740  93.815  0.00  0.00     0.064 A 
ATOM    114  NE2 DVA d          44.287  57.942  93.629  0.00  0.00    -0.359 N 
ATOM    115  H40 DVA d          46.277  58.436  94.289  0.00  0.00     0.143 H 
ATOM    116  CD2 DVA d          43.753  56.841  92.998  0.00  0.00     0.002 A 
ATOM    117  H41 DVA d          43.765  58.784  93.911  0.00  0.00     0.166 HD
ATOM    118  H39 DVA d          42.711  56.703  92.711  0.00  0.00     0.114 H 
ENDBRANCH 108 111
ENDBRANCH  59 108
ENDBRANCH  57  59
ENDBRANCH   1  55
BRANCH   1 119
ATOM    119  CB  DVA d          48.775  51.361  95.362  0.00  0.00    -0.030 C 
ATOM    120  H29 DVA d          48.611  51.391  96.449  0.00  0.00     0.037 H 
ATOM    121  H30 DVA d          49.406  52.211  95.062  0.00  0.00     0.037 H 
BRANCH 119 122
ATOM    122  CG  DVA d          49.497  50.041  94.996  0.00  0.00     0.011 C 
ATOM    123  H31 DVA d          50.500  50.060  95.447  0.00  0.00     0.047 H 
ATOM    124  H32 DVA d          49.589  49.990  93.900  0.00  0.00     0.047 H 
BRANCH 122 125
ATOM    125  CD  DVA d          48.775  48.771  95.479  0.00  0.00     0.215 C 
ATOM    126  OE1 DVA d          48.418  47.892  94.673  0.00  0.00    -0.274 OA
ATOM    127  NE2 DVA d          48.569  48.668  96.776  0.00  0.00    -0.370 N 
ATOM    128  H33 DVA d          48.104  47.864  97.146  0.00  0.00     0.159 HD
ATOM    129  H34 DVA d          48.877  49.394  97.390  0.00  0.00     0.159 HD
ENDBRANCH 122 125
ENDBRANCH 119 122
ENDBRANCH   1 119
TORSDOF 34
ENDMDL
MODEL 10
REMARK VINA RESULT:      -3.5      2.720      9.765
REMARK WARNING: 32 MAX_TORS EXCEEDED!!!
REMARK  34 active torsions:
REMARK  status: ('A' for Active; 'I' for Inactive)
REMARK    1  A    between atoms: N_1  and  CA_2 
REMARK    2  A    between atoms: CA_2  and  CB_3 
REMARK    3  A    between atoms: CA_2  and  C_6 
REMARK    4  A    between atoms: CB_3  and  CG1_4 
REMARK    5  A    between atoms: CB_3  and  CG2_5 
REMARK       I    between atoms: C_6  and  N_8 
REMARK    6  A    between atoms: CA_9  and  C_13 
REMARK       I    between atoms: C_13  and  N_15 
REMARK    7  A    between atoms: N_15  and  CA_16 
REMARK    8  A    between atoms: CA_16  and  C_17 
REMARK       I    between atoms: C_17  and  N_19 
REMARK    9  A    between atoms: N_19  and  CA_20 
REMARK   10  A    between atoms: CA_20  and  C_21 
REMARK   11  A    between atoms: CA_20  and  CB_23 
REMARK       I    between atoms: C_21  and  N_25 
REMARK   12  A    between atoms: CB_23  and  OG_24 
REMARK   13  A    between atoms: N_25  and  CA_26 
REMARK   14  A    between atoms: CA_26  and  C_27 
REMARK   15  A    between atoms: CA_26  and  CB_29 
REMARK       I    between atoms: C_27  and  N_34 
REMARK   16  A    between atoms: CB_29  and  CG_30 
REMARK   17  A    between atoms: CG_30  and  CD_31 
REMARK       I    between atoms: CD_31  and  NE2_33 
REMARK   18  A    between atoms: N_34  and  CA_35 
REMARK   19  A    between atoms: CA_35  and  C_36 
REMARK   20  A    between atoms: CA_35  and  CB_38 
REMARK       I    between atoms: C_36  and  N_44 
REMARK   21  A    between atoms: CB_38  and  CG_39 
REMARK   22  A    between atoms: N_44  and  CA_45 
REMARK   23  A    between atoms: CA_45  and  C_46 
REMARK   24  A    between atoms: CA_45  and  CB_48 
REMARK       I    between atoms: C_46  and  N_56 
REMARK   25  A    between atoms: CB_48  and  CG_49 
REMARK   26  A    between atoms: CZ_54  and  OH_55 
REMARK   27  A    between atoms: N_56  and  CA_57 
REMARK   28  A    between atoms: CA_57  and  C_58 
REMARK   29  A    between atoms: CA_57  and  CB_60 
REMARK       I    between atoms: C_58  and  N_64 
REMARK   30  A    between atoms: CB_60  and  CG_61 
REMARK   31  A    between atoms: N_64  and  CA_65 
REMARK   32  A    between atoms: CA_65  and  C_66 
REMARK   33  A    between atoms: CA_65  and  CB_69 
REMARK   34  A    between atoms: CB_69  and  OG_70 
ROOT
ATOM      1  CA  DVA d          40.977  54.831  90.829  0.00  0.00     0.090 C 
ATOM      2  H28 DVA d          39.969  55.161  90.536  0.00  0.00     0.087 H 
ENDROOT
BRANCH   1   3
ATOM      3  N   DVA d          41.740  54.532  89.629  0.00  0.00    -0.346 N 
ATOM      4  C   DVA d          41.104  54.384  88.481  0.00  0.00     0.243 C 
ATOM      5  O   DVA d          39.893  54.504  88.385  0.00  0.00    -0.271 OA
ATOM      6  H27 DVA d          42.735  54.439  89.672  0.00  0.00     0.163 HD
BRANCH   4   7
ATOM      7  CA  DVA d          41.940  54.027  87.267  0.00  0.00     0.109 C 
ATOM      8  H23 DVA d          41.869  52.952  87.043  0.00  0.00     0.090 H 
BRANCH   7   9
ATOM      9  N   DVA d          43.309  54.391  87.555  0.00  0.00    -0.344 N 
ATOM     10  C   DVA d          44.330  53.807  86.949  0.00  0.00     0.236 C 
ATOM     11  O   DVA d          44.197  52.923  86.102  0.00  0.00    -0.272 OA
ATOM     12  H22 DVA d          43.489  55.105  88.232  0.00  0.00     0.163 HD
BRANCH  10  13
ATOM     13  CA  DVA d          45.702  54.284  87.350  0.00  0.00     0.069 C 
ATOM     14  H20 DVA d          45.699  55.378  87.473  0.00  0.00     0.078 H 
ATOM     15  H21 DVA d          46.004  53.810  88.296  0.00  0.00     0.078 H 
BRANCH  13  16
ATOM     16  N   DVA d          46.612  53.908  86.297  0.00  0.00    -0.351 N 
ATOM     17  C   DVA d          47.209  54.824  85.547  0.00  0.00     0.241 C 
ATOM     18  O   DVA d          47.046  56.038  85.702  0.00  0.00    -0.271 OA
ATOM     19  H19 DVA d          46.796  52.939  86.128  0.00  0.00     0.163 HD
BRANCH  17  20
ATOM     20  CA  DVA d          48.140  54.272  84.471  0.00  0.00     0.091 C 
ATOM     21  N   DVA d          47.975  52.815  84.347  0.00  0.00    -0.337 N 
ATOM     22  C   DVA d          47.039  52.013  83.775  0.00  0.00     0.251 C 
ATOM     23  CD  DVA d          49.108  52.127  84.997  0.00  0.00    -0.001 C 
ATOM     24  O   DVA d          47.119  50.781  83.847  0.00  0.00    -0.271 OA
ATOM     25  CG  DVA d          49.782  53.246  85.768  0.00  0.00    -0.048 C 
ATOM     26  H17 DVA d          49.789  51.693  84.251  0.00  0.00     0.064 H 
ATOM     27  H18 DVA d          48.754  51.336  85.675  0.00  0.00     0.064 H 
ATOM     28  CB  DVA d          49.604  54.414  84.863  0.00  0.00    -0.036 C 
ATOM     29  H15 DVA d          49.290  53.415  86.737  0.00  0.00     0.035 H 
ATOM     30  H16 DVA d          50.848  53.030  85.931  0.00  0.00     0.035 H 
ATOM     31  H13 DVA d          49.788  55.362  85.390  0.00  0.00     0.036 H 
ATOM     32  H14 DVA d          50.264  54.348  83.985  0.00  0.00     0.036 H 
ATOM     33  H12 DVA d          47.937  54.778  83.515  0.00  0.00     0.087 H 
BRANCH  22  34
ATOM     34  CA  DVA d          45.826  52.649  83.057  0.00  0.00     0.178 C 
ATOM     35  H4  DVA d          45.389  53.390  83.743  0.00  0.00     0.099 H 
BRANCH  34  36
ATOM     36  N   DVA d          44.805  51.595  82.798  0.00  0.00    -0.066 N 
ATOM     37  H1  DVA d          44.349  51.777  81.918  0.00  0.00     0.275 HD
ATOM     38  H2  DVA d          44.121  51.600  83.539  0.00  0.00     0.275 HD
ATOM     39  H3  DVA d          45.255  50.694  82.763  0.00  0.00     0.275 HD
ENDBRANCH  34  36
BRANCH  34  40
ATOM     40  CB  DVA d          46.166  53.386  81.747  0.00  0.00    -0.025 C 
ATOM     41  H5  DVA d          46.856  54.215  81.965  0.00  0.00     0.042 H 
BRANCH  40  42
ATOM     42  CG1 DVA d          46.830  52.436  80.763  0.00  0.00    -0.071 C 
ATOM     43  H6  DVA d          47.758  52.042  81.204  0.00  0.00     0.028 H 
ATOM     44  H7  DVA d          47.067  52.976  79.834  0.00  0.00     0.028 H 
ATOM     45  H8  DVA d          46.148  51.603  80.540  0.00  0.00     0.028 H 
ENDBRANCH  40  42
BRANCH  40  46
ATOM     46  CG2 DVA d          44.875  53.949  81.146  0.00  0.00    -0.071 C 
ATOM     47  H9  DVA d          44.812  53.669  80.084  0.00  0.00     0.028 H 
ATOM     48  H10 DVA d          44.876  55.045  81.237  0.00  0.00     0.028 H 
ATOM     49  H11 DVA d          44.010  53.538  81.685  0.00  0.00     0.028 H 
ENDBRANCH  40  46
ENDBRANCH  34  40
ENDBRANCH  22  34
ENDBRANCH  17  20
ENDBRANCH  13  16
ENDBRANCH  10  13
ENDBRANCH   7   9
BRANCH   7  50
ATOM     50  CB  DVA d          41.413  54.852  86.098  0.00  0.00     0.044 C 
ATOM     51  H24 DVA d          40.566  54.326  85.633  0.00  0.00     0.077 H 
ATOM     52  H25 DVA d          42.214  54.986  85.357  0.00  0.00     0.077 H 
BRANCH  50  53
ATOM     53  OG  DVA d          40.979  56.123  86.556  0.00  0.00    -0.398 OA
ATOM     54  H26 DVA d          40.560  56.589  85.842  0.00  0.00     0.209 HD
ENDBRANCH  50  53
ENDBRANCH   7  50
ENDBRANCH   4   7
ENDBRANCH   1   3
BRANCH   1  55
ATOM     55  C   DVA d          40.848  53.589  91.707  0.00  0.00     0.241 C 
ATOM     56  O   DVA d          40.348  52.553  91.258  0.00  0.00    -0.271 OA
ATOM     57  N   DVA d          41.300  53.697  92.957  0.00  0.00    -0.346 N 
ATOM     58  H35 DVA d          41.721  54.556  93.251  0.00  0.00     0.163 HD
BRANCH  57  59
ATOM     59  CA  DVA d          41.195  52.579  93.920  0.00  0.00     0.094 C 
ATOM     60  H36 DVA d          40.860  51.690  93.367  0.00  0.00     0.088 H 
BRANCH  59  61
ATOM     61  C   DVA d          42.479  52.265  94.631  0.00  0.00     0.241 C 
ATOM     62  O   DVA d          42.466  51.959  95.832  0.00  0.00    -0.271 OA
ATOM     63  N   DVA d          43.585  52.375  93.903  0.00  0.00    -0.346 N 
ATOM     64  H42 DVA d          43.517  52.553  92.921  0.00  0.00     0.163 HD
BRANCH  63  65
ATOM     65  CA  DVA d          44.900  52.239  94.527  0.00  0.00     0.093 C 
ATOM     66  H43 DVA d          44.766  52.372  95.610  0.00  0.00     0.088 H 
BRANCH  65  67
ATOM     67  C   DVA d          45.591  50.896  94.325  0.00  0.00     0.241 C 
ATOM     68  O   DVA d          45.501  50.020  95.190  0.00  0.00    -0.271 OA
ATOM     69  N   DVA d          46.282  50.750  93.195  0.00  0.00    -0.345 N 
ATOM     70  H51 DVA d          46.321  51.512  92.549  0.00  0.00     0.163 HD
BRANCH  69  71
ATOM     71  CA  DVA d          46.988  49.504  92.868  0.00  0.00     0.098 C 
ATOM     72  H52 DVA d          46.370  48.667  93.226  0.00  0.00     0.088 H 
BRANCH  71  73
ATOM     73  C   DVA d          47.245  49.304  91.376  0.00  0.00     0.241 C 
ATOM     74  O   DVA d          47.158  48.188  90.849  0.00  0.00    -0.271 OA
ATOM     75  N   DVA d          47.543  50.431  90.725  0.00  0.00    -0.343 N 
ATOM     76  H55 DVA d          47.596  51.266  91.272  0.00  0.00     0.163 HD
BRANCH  75  77
ATOM     77  CA  DVA d          47.799  50.564  89.290  0.00  0.00     0.116 C 
ATOM     78  H56 DVA d          48.152  49.583  88.941  0.00  0.00     0.093 H 
BRANCH  77  79
ATOM     79  C   DVA d          46.560  50.906  88.474  0.00  0.00     0.198 C 
ATOM     80  O   DVA d          46.635  50.858  87.229  0.00  0.00    -0.646 OA
ATOM     81  OXT DVA d          45.524  51.213  89.107  0.00  0.00    -0.646 OA
ENDBRANCH  77  79
BRANCH  77  82
ATOM     82  CB  DVA d          48.914  51.579  89.009  0.00  0.00     0.045 C 
ATOM     83  H57 DVA d          49.444  51.286  88.091  0.00  0.00     0.077 H 
ATOM     84  H58 DVA d          49.618  51.584  89.855  0.00  0.00     0.077 H 
BRANCH  82  85
ATOM     85  OG  DVA d          48.382  52.888  88.840  0.00  0.00    -0.398 OA
ATOM     86  H59 DVA d          48.949  53.517  89.271  0.00  0.00     0.209 HD
ENDBRANCH  82  85
ENDBRANCH  77  82
ENDBRANCH  75  77
ENDBRANCH  71  73
BRANCH  71  87
ATOM     87  CB  DVA d          48.345  49.457  93.575  0.00  0.00     0.043 C 
ATOM     88  H53 DVA d          48.244  48.858  94.491  0.00  0.00     0.052 H 
ATOM     89  H54 DVA d          48.641  50.483  93.838  0.00  0.00     0.052 H 
BRANCH  87  90
ATOM     90  CG  DVA d          49.424  48.850  92.717  0.00  0.00     0.175 C 
ATOM     91  OD1 DVA d          50.123  49.609  92.011  0.00  0.00    -0.648 OA
ATOM     92  OD2 DVA d          49.587  47.619  92.759  0.00  0.00    -0.648 OA
ENDBRANCH  87  90
ENDBRANCH  71  87
ENDBRANCH  69  71
ENDBRANCH  65  67
BRANCH  65  93
ATOM     93  CB  DVA d          45.792  53.369  94.003  0.00  0.00    -0.014 C 
ATOM     94  H44 DVA d          45.150  54.185  93.641  0.00  0.00     0.043 H 
ATOM     95  H45 DVA d          46.398  52.981  93.171  0.00  0.00     0.043 H 
BRANCH  93  96
ATOM     96  CG  DVA d          46.728  53.922  95.068  0.00  0.00    -0.056 A 
ATOM     97  CD1 DVA d          48.111  53.741  94.971  0.00  0.00    -0.074 A 
ATOM     98  CE1 DVA d          48.991  54.214  95.959  0.00  0.00    -0.051 A 
ATOM     99  H46 DVA d          48.516  53.223  94.109  0.00  0.00     0.084 H 
ATOM    100  CZ  DVA d          48.457  54.892  97.072  0.00  0.00     0.065 A 
ATOM    101  H48 DVA d          50.060  54.059  95.867  0.00  0.00     0.087 H 
ATOM    102  CE2 DVA d          47.087  55.080  97.187  0.00  0.00    -0.051 A 
ATOM    103  CD2 DVA d          46.223  54.596  96.188  0.00  0.00    -0.074 A 
ATOM    104  H49 DVA d          46.683  55.601  98.047  0.00  0.00     0.087 H 
ATOM    105  H47 DVA d          45.153  54.746  96.287  0.00  0.00     0.084 H 
BRANCH 100 106
ATOM    106  OH  DVA d          49.284  55.392  98.053  0.00  0.00    -0.361 OA
ATOM    107  H50 DVA d          49.206  54.858  98.834  0.00  0.00     0.217 HD
ENDBRANCH 100 106
ENDBRANCH  93  96
ENDBRANCH  65  93
ENDBRANCH  63  65
ENDBRANCH  59  61
BRANCH  59 108
ATOM    108  CB  DVA d          40.207  52.886  95.047  0.00  0.00     0.004 C 
ATOM    109  H37 DVA d          40.008  53.968  95.046  0.00  0.00     0.046 H 
ATOM    110  H38 DVA d          40.673  52.601  96.002  0.00  0.00     0.046 H 
BRANCH 108 111
ATOM    111  CG  DVA d          38.895  52.169  94.934  0.00  0.00     0.053 A 
ATOM    112  ND1 DVA d          38.146  51.800  96.034  0.00  0.00    -0.247 NA
ATOM    113  CE1 DVA d          37.031  51.212  95.625  0.00  0.00     0.064 A 
ATOM    114  NE2 DVA d          37.035  51.183  94.298  0.00  0.00    -0.359 N 
ATOM    115  H40 DVA d          36.244  50.819  96.268  0.00  0.00     0.143 H 
ATOM    116  CD2 DVA d          38.194  51.776  93.845  0.00  0.00     0.002 A 
ATOM    117  H41 DVA d          36.295  50.784  93.704  0.00  0.00     0.166 HD
ATOM    118  H39 DVA d          38.490  51.903  92.805  0.00  0.00     0.114 H 
ENDBRANCH 108 111
ENDBRANCH  59 108
ENDBRANCH  57  59
ENDBRANCH   1  55
BRANCH   1 119
ATOM    119  CB  DVA d          41.662  55.964  91.604  0.00  0.00    -0.030 C 
ATOM    120  H29 DVA d          42.078  55.560  92.539  0.00  0.00     0.037 H 
ATOM    121  H30 DVA d          40.918  56.740  91.839  0.00  0.00     0.037 H 
BRANCH 119 122
ATOM    122  CG  DVA d          42.806  56.595  90.773  0.00  0.00     0.011 C 
ATOM    123  H31 DVA d          42.908  56.025  89.838  0.00  0.00     0.047 H 
ATOM    124  H32 DVA d          43.738  56.518  91.353  0.00  0.00     0.047 H 
BRANCH 122 125
ATOM    125  CD  DVA d          42.583  58.075  90.413  0.00  0.00     0.215 C 
ATOM    126  OE1 DVA d          43.481  58.742  89.867  0.00  0.00    -0.274 OA
ATOM    127  NE2 DVA d          41.403  58.581  90.705  0.00  0.00    -0.370 N 
ATOM    128  H33 DVA d          41.203  59.537  90.494  0.00  0.00     0.159 HD
ATOM    129  H34 DVA d          40.707  58.008  91.138  0.00  0.00     0.159 HD
ENDBRANCH 122 125
ENDBRANCH 119 122
ENDBRANCH   1 119
TORSDOF 34
ENDMDL
