MODEL 1
REMARK VINA RESULT:      -4.4      0.000      0.000
REMARK  8 active torsions:
REMARK  status: ('A' for Active; 'I' for Inactive)
REMARK    1  A    between atoms: C5'_1  and  C4'_2 
REMARK    2  A    between atoms: C4'_2  and  O2'_3 
REMARK    3  A    between atoms: O2'_3  and  C3'_4 
REMARK    4  A    between atoms: C3'_4  and  C2'_6 
REMARK    5  A    between atoms: C2'_6  and  C1'_7 
REMARK    6  A    between atoms: C1'_7  and  C1_8 
REMARK    7  A    between atoms: C4_12  and  O4_13 
REMARK    8  A    between atoms: C3_14  and  O3_15 
ROOT
ATOM      1  C1' MOL d           6.865 -16.622 116.705  0.00  0.00    -0.067 C 
ATOM      2  H7  MOL d           6.825 -15.672 117.236  0.00  0.00     0.085 H 
ENDROOT
BRANCH   1   3
ATOM      3  C2' MOL d           7.086 -17.973 117.385  0.00  0.00    -0.010 C 
ATOM      4  H6  MOL d           6.380 -18.801 117.364  0.00  0.00     0.092 H 
BRANCH   3   5
ATOM      5  C3' MOL d           8.439 -17.999 118.099  0.00  0.00     0.282 C 
ATOM      6  O1' MOL d           8.508 -18.146 119.319  0.00  0.00    -0.260 OA
BRANCH   5   7
ATOM      7  O2' MOL d           9.567 -17.872 117.351  0.00  0.00    -0.319 OA
BRANCH   7   8
ATOM      8  C4' MOL d           9.687 -18.935 116.399  0.00  0.00     0.026 C 
ATOM      9  H4  MOL d          10.430 -19.666 116.749  0.00  0.00     0.074 H 
ATOM     10  H5  MOL d           8.715 -19.433 116.271  0.00  0.00     0.074 H 
BRANCH   8  11
ATOM     11  C5' MOL d          10.141 -18.328 115.068  0.00  0.00    -0.056 C 
ATOM     12  H1  MOL d           9.344 -17.683 114.668  0.00  0.00     0.030 H 
ATOM     13  H2  MOL d          10.354 -19.134 114.351  0.00  0.00     0.030 H 
ATOM     14  H3  MOL d          11.050 -17.730 115.228  0.00  0.00     0.030 H 
ENDBRANCH   8  11
ENDBRANCH   7   8
ENDBRANCH   5   7
ENDBRANCH   3   5
ENDBRANCH   1   3
BRANCH   1  15
ATOM     15  C1  MOL d           6.707 -16.764 115.192  0.00  0.00    -0.033 A 
ATOM     16  C2  MOL d           6.437 -17.994 114.601  0.00  0.00    -0.038 A 
ATOM     17  C3  MOL d           6.218 -18.072 113.228  0.00  0.00     0.099 A 
ATOM     18  H8  MOL d           6.398 -18.891 115.209  0.00  0.00     0.089 H 
ATOM     19  C4  MOL d           6.275 -16.922 112.448  0.00  0.00     0.098 A 
ATOM     20  C5  MOL d           6.552 -15.693 113.038  0.00  0.00    -0.047 A 
ATOM     21  C6  MOL d           6.768 -15.617 114.411  0.00  0.00    -0.070 A 
ATOM     22  H10 MOL d           6.600 -14.797 112.430  0.00  0.00     0.087 H 
ATOM     23  H9  MOL d           6.985 -14.660 114.871  0.00  0.00     0.084 H 
BRANCH  17  24
ATOM     24  O3  MOL d           5.927 -19.260 112.635  0.00  0.00    -0.358 OA
ATOM     25  H12 MOL d           4.990 -19.415 112.681  0.00  0.00     0.217 HD
ENDBRANCH  17  24
BRANCH  19  26
ATOM     26  O4  MOL d           6.063 -17.000 111.108  0.00  0.00    -0.358 OA
ATOM     27  H11 MOL d           5.206 -16.646 110.903  0.00  0.00     0.217 HD
ENDBRANCH  19  26
ENDBRANCH   1  15
TORSDOF 8
ENDMDL
MODEL 2
REMARK VINA RESULT:      -4.2      1.483      4.812
REMARK  8 active torsions:
REMARK  status: ('A' for Active; 'I' for Inactive)
REMARK    1  A    between atoms: C5'_1  and  C4'_2 
REMARK    2  A    between atoms: C4'_2  and  O2'_3 
REMARK    3  A    between atoms: O2'_3  and  C3'_4 
REMARK    4  A    between atoms: C3'_4  and  C2'_6 
REMARK    5  A    between atoms: C2'_6  and  C1'_7 
REMARK    6  A    between atoms: C1'_7  and  C1_8 
REMARK    7  A    between atoms: C4_12  and  O4_13 
REMARK    8  A    between atoms: C3_14  and  O3_15 
ROOT
ATOM      1  C1' MOL d           5.250 -16.244 115.203  0.00  0.00    -0.067 C 
ATOM      2  H7  MOL d           4.206 -16.221 115.510  0.00  0.00     0.085 H 
ENDROOT
BRANCH   1   3
ATOM      3  C2' MOL d           5.739 -15.858 113.808  0.00  0.00    -0.010 C 
ATOM      4  H6  MOL d           5.937 -14.839 113.479  0.00  0.00     0.092 H 
BRANCH   3   5
ATOM      5  C3' MOL d           5.913 -17.104 112.937  0.00  0.00     0.282 C 
ATOM      6  O1' MOL d           4.945 -17.646 112.406  0.00  0.00    -0.260 OA
BRANCH   5   7
ATOM      7  O2' MOL d           7.170 -17.589 112.748  0.00  0.00    -0.319 OA
BRANCH   7   8
ATOM      8  C4' MOL d           8.153 -16.553 112.852  0.00  0.00     0.026 C 
ATOM      9  H4  MOL d           8.531 -16.296 111.852  0.00  0.00     0.074 H 
ATOM     10  H5  MOL d           7.708 -15.661 113.316  0.00  0.00     0.074 H 
BRANCH   8  11
ATOM     11  C5' MOL d           9.300 -17.077 113.723  0.00  0.00    -0.056 C 
ATOM     12  H1  MOL d           9.679 -18.019 113.301  0.00  0.00     0.030 H 
ATOM     13  H2  MOL d           8.932 -17.253 114.745  0.00  0.00     0.030 H 
ATOM     14  H3  MOL d          10.110 -16.333 113.748  0.00  0.00     0.030 H 
ENDBRANCH   8  11
ENDBRANCH   7   8
ENDBRANCH   5   7
ENDBRANCH   3   5
ENDBRANCH   1   3
BRANCH   1  15
ATOM     15  C1  MOL d           6.401 -16.667 116.114  0.00  0.00    -0.033 A 
ATOM     16  C2  MOL d           6.624 -18.001 116.434  0.00  0.00    -0.038 A 
ATOM     17  C3  MOL d           7.731 -18.357 117.200  0.00  0.00     0.099 A 
ATOM     18  H8  MOL d           5.936 -18.765 116.087  0.00  0.00     0.089 H 
ATOM     19  C4  MOL d           8.609 -17.378 117.651  0.00  0.00     0.098 A 
ATOM     20  C5  MOL d           8.382 -16.042 117.338  0.00  0.00    -0.047 A 
ATOM     21  C6  MOL d           7.277 -15.688 116.570  0.00  0.00    -0.070 A 
ATOM     22  H10 MOL d           9.065 -15.278 117.691  0.00  0.00     0.087 H 
ATOM     23  H9  MOL d           7.098 -14.647 116.325  0.00  0.00     0.084 H 
BRANCH  17  24
ATOM     24  O3  MOL d           7.980 -19.660 117.501  0.00  0.00    -0.358 OA
ATOM     25  H12 MOL d           8.563 -19.705 118.251  0.00  0.00     0.217 HD
ENDBRANCH  17  24
BRANCH  19  26
ATOM     26  O4  MOL d           9.687 -17.726 118.401  0.00  0.00    -0.358 OA
ATOM     27  H11 MOL d          10.483 -17.493 117.936  0.00  0.00     0.217 HD
ENDBRANCH  19  26
ENDBRANCH   1  15
TORSDOF 8
ENDMDL
MODEL 3
REMARK VINA RESULT:      -4.2      1.633      2.500
REMARK  8 active torsions:
REMARK  status: ('A' for Active; 'I' for Inactive)
REMARK    1  A    between atoms: C5'_1  and  C4'_2 
REMARK    2  A    between atoms: C4'_2  and  O2'_3 
REMARK    3  A    between atoms: O2'_3  and  C3'_4 
REMARK    4  A    between atoms: C3'_4  and  C2'_6 
REMARK    5  A    between atoms: C2'_6  and  C1'_7 
REMARK    6  A    between atoms: C1'_7  and  C1_8 
REMARK    7  A    between atoms: C4_12  and  O4_13 
REMARK    8  A    between atoms: C3_14  and  O3_15 
ROOT
ATOM      1  C1' MOL d           7.064 -17.188 117.561  0.00  0.00    -0.067 C 
ATOM      2  H7  MOL d           6.393 -17.092 118.413  0.00  0.00     0.085 H 
ENDROOT
BRANCH   1   3
ATOM      3  C2' MOL d           8.578 -17.357 117.681  0.00  0.00    -0.010 C 
ATOM      4  H6  MOL d           9.266 -17.402 116.838  0.00  0.00     0.092 H 
BRANCH   3   5
ATOM      5  C3' MOL d           8.992 -17.456 119.150  0.00  0.00     0.282 C 
ATOM      6  O1' MOL d           9.282 -16.450 119.796  0.00  0.00    -0.260 OA
BRANCH   5   7
ATOM      7  O2' MOL d           9.017 -18.685 119.733  0.00  0.00    -0.319 OA
BRANCH   7   8
ATOM      8  C4' MOL d           9.634 -19.656 118.881  0.00  0.00     0.026 C 
ATOM      9  H4  MOL d           9.761 -19.240 117.871  0.00  0.00     0.074 H 
ATOM     10  H5  MOL d          10.617 -19.939 119.287  0.00  0.00     0.074 H 
BRANCH   8  11
ATOM     11  C5' MOL d           8.721 -20.885 118.827  0.00  0.00    -0.056 C 
ATOM     12  H1  MOL d           9.012 -21.521 117.978  0.00  0.00     0.030 H 
ATOM     13  H2  MOL d           7.677 -20.560 118.701  0.00  0.00     0.030 H 
ATOM     14  H3  MOL d           8.817 -21.455 119.762  0.00  0.00     0.030 H 
ENDBRANCH   8  11
ENDBRANCH   7   8
ENDBRANCH   5   7
ENDBRANCH   3   5
ENDBRANCH   1   3
BRANCH   1  15
ATOM     15  C1  MOL d           6.606 -17.168 116.104  0.00  0.00    -0.033 A 
ATOM     16  C2  MOL d           5.917 -16.084 115.572  0.00  0.00    -0.038 A 
ATOM     17  C3  MOL d           5.589 -16.065 114.219  0.00  0.00     0.099 A 
ATOM     18  H8  MOL d           5.636 -15.254 116.210  0.00  0.00     0.089 H 
ATOM     19  C4  MOL d           5.943 -17.133 113.402  0.00  0.00     0.098 A 
ATOM     20  C5  MOL d           6.626 -18.221 113.935  0.00  0.00    -0.047 A 
ATOM     21  C6  MOL d           6.956 -18.237 115.287  0.00  0.00    -0.070 A 
ATOM     22  H10 MOL d           6.900 -19.055 113.299  0.00  0.00     0.087 H 
ATOM     23  H9  MOL d           7.488 -19.085 115.703  0.00  0.00     0.084 H 
BRANCH  17  24
ATOM     24  O3  MOL d           4.938 -15.002 113.675  0.00  0.00    -0.358 OA
ATOM     25  H12 MOL d           4.114 -15.293 113.301  0.00  0.00     0.217 HD
ENDBRANCH  17  24
BRANCH  19  26
ATOM     26  O4  MOL d           5.619 -17.115 112.083  0.00  0.00    -0.358 OA
ATOM     27  H11 MOL d           5.506 -16.215 111.798  0.00  0.00     0.217 HD
ENDBRANCH  19  26
ENDBRANCH   1  15
TORSDOF 8
ENDMDL
MODEL 4
REMARK VINA RESULT:      -4.1      1.364      2.439
REMARK  8 active torsions:
REMARK  status: ('A' for Active; 'I' for Inactive)
REMARK    1  A    between atoms: C5'_1  and  C4'_2 
REMARK    2  A    between atoms: C4'_2  and  O2'_3 
REMARK    3  A    between atoms: O2'_3  and  C3'_4 
REMARK    4  A    between atoms: C3'_4  and  C2'_6 
REMARK    5  A    between atoms: C2'_6  and  C1'_7 
REMARK    6  A    between atoms: C1'_7  and  C1_8 
REMARK    7  A    between atoms: C4_12  and  O4_13 
REMARK    8  A    between atoms: C3_14  and  O3_15 
ROOT
ATOM      1  C1' MOL d           6.828 -16.644 116.794  0.00  0.00    -0.067 C 
ATOM      2  H7  MOL d           6.722 -15.709 117.342  0.00  0.00     0.085 H 
ENDROOT
BRANCH   1   3
ATOM      3  C2' MOL d           7.148 -17.987 117.449  0.00  0.00    -0.010 C 
ATOM      4  H6  MOL d           6.739 -18.946 117.132  0.00  0.00     0.092 H 
BRANCH   3   5
ATOM      5  C3' MOL d           8.123 -17.798 118.613  0.00  0.00     0.282 C 
ATOM      6  O1' MOL d           9.336 -17.931 118.452  0.00  0.00    -0.260 OA
BRANCH   5   7
ATOM      7  O2' MOL d           7.618 -17.463 119.830  0.00  0.00    -0.319 OA
BRANCH   7   8
ATOM      8  C4' MOL d           8.158 -16.222 120.298  0.00  0.00     0.026 C 
ATOM      9  H4  MOL d           8.916 -16.413 121.072  0.00  0.00     0.074 H 
ATOM     10  H5  MOL d           8.619 -15.676 119.461  0.00  0.00     0.074 H 
BRANCH   8  11
ATOM     11  C5' MOL d           7.008 -15.399 120.887  0.00  0.00    -0.056 C 
ATOM     12  H1  MOL d           6.697 -14.633 120.161  0.00  0.00     0.030 H 
ATOM     13  H2  MOL d           7.345 -14.910 121.814  0.00  0.00     0.030 H 
ATOM     14  H3  MOL d           6.159 -16.061 121.109  0.00  0.00     0.030 H 
ENDBRANCH   8  11
ENDBRANCH   7   8
ENDBRANCH   5   7
ENDBRANCH   3   5
ENDBRANCH   1   3
BRANCH   1  15
ATOM     15  C1  MOL d           6.676 -16.771 115.280  0.00  0.00    -0.033 A 
ATOM     16  C2  MOL d           6.435 -17.998 114.672  0.00  0.00    -0.038 A 
ATOM     17  C3  MOL d           6.219 -18.064 113.298  0.00  0.00     0.099 A 
ATOM     18  H8  MOL d           6.415 -18.904 115.268  0.00  0.00     0.089 H 
ATOM     19  C4  MOL d           6.250 -16.903 112.534  0.00  0.00     0.098 A 
ATOM     20  C5  MOL d           6.499 -15.676 113.139  0.00  0.00    -0.047 A 
ATOM     21  C6  MOL d           6.712 -15.612 114.513  0.00  0.00    -0.070 A 
ATOM     22  H10 MOL d           6.526 -14.771 112.542  0.00  0.00     0.087 H 
ATOM     23  H9  MOL d           6.906 -14.656 114.986  0.00  0.00     0.084 H 
BRANCH  17  24
ATOM     24  O3  MOL d           5.956 -19.251 112.690  0.00  0.00    -0.358 OA
ATOM     25  H12 MOL d           5.973 -19.948 113.336  0.00  0.00     0.217 HD
ENDBRANCH  17  24
BRANCH  19  26
ATOM     26  O4  MOL d           6.042 -16.968 111.192  0.00  0.00    -0.358 OA
ATOM     27  H11 MOL d           6.564 -17.672 110.826  0.00  0.00     0.217 HD
ENDBRANCH  19  26
ENDBRANCH   1  15
TORSDOF 8
ENDMDL
MODEL 5
REMARK VINA RESULT:      -4.1      1.881      5.659
REMARK  8 active torsions:
REMARK  status: ('A' for Active; 'I' for Inactive)
REMARK    1  A    between atoms: C5'_1  and  C4'_2 
REMARK    2  A    between atoms: C4'_2  and  O2'_3 
REMARK    3  A    between atoms: O2'_3  and  C3'_4 
REMARK    4  A    between atoms: C3'_4  and  C2'_6 
REMARK    5  A    between atoms: C2'_6  and  C1'_7 
REMARK    6  A    between atoms: C1'_7  and  C1_8 
REMARK    7  A    between atoms: C4_12  and  O4_13 
REMARK    8  A    between atoms: C3_14  and  O3_15 
ROOT
ATOM      1  C1' MOL d           6.604 -16.328 116.591  0.00  0.00    -0.067 C 
ATOM      2  H7  MOL d           6.603 -15.240 116.650  0.00  0.00     0.085 H 
ENDROOT
BRANCH   1   3
ATOM      3  C2' MOL d           5.917 -17.125 115.484  0.00  0.00    -0.010 C 
ATOM      4  H6  MOL d           5.822 -18.210 115.468  0.00  0.00     0.092 H 
BRANCH   3   5
ATOM      5  C3' MOL d           5.380 -16.188 114.401  0.00  0.00     0.282 C 
ATOM      6  O1' MOL d           5.155 -15.002 114.643  0.00  0.00    -0.260 OA
BRANCH   5   7
ATOM      7  O2' MOL d           5.173 -16.692 113.156  0.00  0.00    -0.319 OA
BRANCH   7   8
ATOM      8  C4' MOL d           6.116 -17.725 112.845  0.00  0.00     0.026 C 
ATOM      9  H4  MOL d           6.710 -17.968 113.737  0.00  0.00     0.074 H 
ATOM     10  H5  MOL d           5.584 -18.624 112.501  0.00  0.00     0.074 H 
BRANCH   8  11
ATOM     11  C5' MOL d           7.034 -17.206 111.733  0.00  0.00    -0.056 C 
ATOM     12  H1  MOL d           6.532 -16.390 111.193  0.00  0.00     0.030 H 
ATOM     13  H2  MOL d           7.261 -18.024 111.034  0.00  0.00     0.030 H 
ATOM     14  H3  MOL d           7.970 -16.832 112.175  0.00  0.00     0.030 H 
ENDBRANCH   8  11
ENDBRANCH   7   8
ENDBRANCH   5   7
ENDBRANCH   3   5
ENDBRANCH   1   3
BRANCH   1  15
ATOM     15  C1  MOL d           7.292 -17.238 117.607  0.00  0.00    -0.033 A 
ATOM     16  C2  MOL d           7.635 -18.549 117.295  0.00  0.00    -0.038 A 
ATOM     17  C3  MOL d           8.335 -19.323 118.216  0.00  0.00     0.099 A 
ATOM     18  H8  MOL d           7.357 -18.968 116.334  0.00  0.00     0.089 H 
ATOM     19  C4  MOL d           8.686 -18.787 119.451  0.00  0.00     0.098 A 
ATOM     20  C5  MOL d           8.336 -17.479 119.767  0.00  0.00    -0.047 A 
ATOM     21  C6  MOL d           7.639 -16.706 118.843  0.00  0.00    -0.070 A 
ATOM     22  H10 MOL d           8.607 -17.062 120.730  0.00  0.00     0.087 H 
ATOM     23  H9  MOL d           7.366 -15.686 119.088  0.00  0.00     0.084 H 
BRANCH  17  24
ATOM     24  O3  MOL d           8.702 -20.598 117.919  0.00  0.00    -0.358 OA
ATOM     25  H12 MOL d           9.453 -20.583 117.337  0.00  0.00     0.217 HD
ENDBRANCH  17  24
BRANCH  19  26
ATOM     26  O4  MOL d           9.366 -19.545 120.351  0.00  0.00    -0.358 OA
ATOM     27  H11 MOL d           9.770 -20.279 119.903  0.00  0.00     0.217 HD
ENDBRANCH  19  26
ENDBRANCH   1  15
TORSDOF 8
ENDMDL
MODEL 6
REMARK VINA RESULT:      -3.9      1.792      2.476
REMARK  8 active torsions:
REMARK  status: ('A' for Active; 'I' for Inactive)
REMARK    1  A    between atoms: C5'_1  and  C4'_2 
REMARK    2  A    between atoms: C4'_2  and  O2'_3 
REMARK    3  A    between atoms: O2'_3  and  C3'_4 
REMARK    4  A    between atoms: C3'_4  and  C2'_6 
REMARK    5  A    between atoms: C2'_6  and  C1'_7 
REMARK    6  A    between atoms: C1'_7  and  C1_8 
REMARK    7  A    between atoms: C4_12  and  O4_13 
REMARK    8  A    between atoms: C3_14  and  O3_15 
ROOT
ATOM      1  C1' MOL d           7.715 -17.948 117.484  0.00  0.00    -0.067 C 
ATOM      2  H7  MOL d           7.190 -18.286 118.376  0.00  0.00     0.085 H 
ENDROOT
BRANCH   1   3
ATOM      3  C2' MOL d           9.233 -17.804 117.389  0.00  0.00    -0.010 C 
ATOM      4  H6  MOL d           9.762 -16.856 117.298  0.00  0.00     0.092 H 
BRANCH   3   5
ATOM      5  C3' MOL d           9.907 -19.177 117.439  0.00  0.00     0.282 C 
ATOM      6  O1' MOL d           9.972 -19.888 116.436  0.00  0.00    -0.260 OA
BRANCH   5   7
ATOM      7  O2' MOL d          10.449 -19.587 118.616  0.00  0.00    -0.319 OA
BRANCH   7   8
ATOM      8  C4' MOL d          10.143 -20.960 118.884  0.00  0.00     0.026 C 
ATOM      9  H4  MOL d           9.873 -21.472 117.949  0.00  0.00     0.074 H 
ATOM     10  H5  MOL d          11.014 -21.456 119.335  0.00  0.00     0.074 H 
BRANCH   8  11
ATOM     11  C5' MOL d           8.960 -20.998 119.857  0.00  0.00    -0.056 C 
ATOM     12  H1  MOL d           9.118 -20.258 120.656  0.00  0.00     0.030 H 
ATOM     13  H2  MOL d           8.881 -22.003 120.298  0.00  0.00     0.030 H 
ATOM     14  H3  MOL d           8.032 -20.760 119.316  0.00  0.00     0.030 H 
ENDBRANCH   8  11
ENDBRANCH   7   8
ENDBRANCH   5   7
ENDBRANCH   3   5
ENDBRANCH   1   3
BRANCH   1  15
ATOM     15  C1  MOL d           7.022 -17.562 116.179  0.00  0.00    -0.033 A 
ATOM     16  C2  MOL d           7.120 -18.354 115.040  0.00  0.00    -0.038 A 
ATOM     17  C3  MOL d           6.408 -18.014 113.893  0.00  0.00     0.099 A 
ATOM     18  H8  MOL d           7.750 -19.237 115.046  0.00  0.00     0.089 H 
ATOM     19  C4  MOL d           5.605 -16.879 113.884  0.00  0.00     0.098 A 
ATOM     20  C5  MOL d           5.513 -16.081 115.020  0.00  0.00    -0.047 A 
ATOM     21  C6  MOL d           6.223 -16.425 116.166  0.00  0.00    -0.070 A 
ATOM     22  H10 MOL d           4.889 -15.195 115.012  0.00  0.00     0.087 H 
ATOM     23  H9  MOL d           6.152 -15.804 117.052  0.00  0.00     0.084 H 
BRANCH  17  24
ATOM     24  O3  MOL d           6.470 -18.790 112.778  0.00  0.00    -0.358 OA
ATOM     25  H12 MOL d           7.372 -19.045 112.621  0.00  0.00     0.217 HD
ENDBRANCH  17  24
BRANCH  19  26
ATOM     26  O4  MOL d           4.913 -16.546 112.763  0.00  0.00    -0.358 OA
ATOM     27  H11 MOL d           4.216 -17.175 112.624  0.00  0.00     0.217 HD
ENDBRANCH  19  26
ENDBRANCH   1  15
TORSDOF 8
ENDMDL
MODEL 7
REMARK VINA RESULT:      -3.7      1.921      5.977
REMARK  8 active torsions:
REMARK  status: ('A' for Active; 'I' for Inactive)
REMARK    1  A    between atoms: C5'_1  and  C4'_2 
REMARK    2  A    between atoms: C4'_2  and  O2'_3 
REMARK    3  A    between atoms: O2'_3  and  C3'_4 
REMARK    4  A    between atoms: C3'_4  and  C2'_6 
REMARK    5  A    between atoms: C2'_6  and  C1'_7 
REMARK    6  A    between atoms: C1'_7  and  C1_8 
REMARK    7  A    between atoms: C4_12  and  O4_13 
REMARK    8  A    between atoms: C3_14  and  O3_15 
ROOT
ATOM      1  C1' MOL d           6.522 -16.285 116.644  0.00  0.00    -0.067 C 
ATOM      2  H7  MOL d           6.442 -15.205 116.755  0.00  0.00     0.085 H 
ENDROOT
BRANCH   1   3
ATOM      3  C2' MOL d           5.868 -17.079 115.515  0.00  0.00    -0.010 C 
ATOM      4  H6  MOL d           5.700 -18.156 115.529  0.00  0.00     0.092 H 
BRANCH   3   5
ATOM      5  C3' MOL d           5.481 -16.153 114.360  0.00  0.00     0.282 C 
ATOM      6  O1' MOL d           5.099 -15.002 114.572  0.00  0.00    -0.260 OA
BRANCH   5   7
ATOM      7  O2' MOL d           5.584 -16.627 113.090  0.00  0.00    -0.319 OA
BRANCH   7   8
ATOM      8  C4' MOL d           6.778 -16.158 112.452  0.00  0.00     0.026 C 
ATOM      9  H4  MOL d           6.570 -15.223 111.912  0.00  0.00     0.074 H 
ATOM     10  H5  MOL d           7.559 -15.981 113.206  0.00  0.00     0.074 H 
BRANCH   8  11
ATOM     11  C5' MOL d           7.240 -17.236 111.467  0.00  0.00    -0.056 C 
ATOM     12  H1  MOL d           6.941 -18.227 111.840  0.00  0.00     0.030 H 
ATOM     13  H2  MOL d           8.335 -17.197 111.368  0.00  0.00     0.030 H 
ATOM     14  H3  MOL d           6.777 -17.059 110.485  0.00  0.00     0.030 H 
ENDBRANCH   8  11
ENDBRANCH   7   8
ENDBRANCH   5   7
ENDBRANCH   3   5
ENDBRANCH   1   3
BRANCH   1  15
ATOM     15  C1  MOL d           7.301 -17.187 117.599  0.00  0.00    -0.033 A 
ATOM     16  C2  MOL d           7.550 -16.811 118.915  0.00  0.00    -0.038 A 
ATOM     17  C3  MOL d           8.191 -17.694 119.780  0.00  0.00     0.099 A 
ATOM     18  H8  MOL d           7.245 -15.832 119.266  0.00  0.00     0.089 H 
ATOM     19  C4  MOL d           8.587 -18.948 119.327  0.00  0.00     0.098 A 
ATOM     20  C5  MOL d           8.345 -19.321 118.010  0.00  0.00    -0.047 A 
ATOM     21  C6  MOL d           7.701 -18.439 117.147  0.00  0.00    -0.070 A 
ATOM     22  H10 MOL d           8.656 -20.297 117.656  0.00  0.00     0.087 H 
ATOM     23  H9  MOL d           7.512 -18.729 116.120  0.00  0.00     0.084 H 
BRANCH  17  24
ATOM     24  O3  MOL d           8.420 -17.355 121.077  0.00  0.00    -0.358 OA
ATOM     25  H12 MOL d           9.355 -17.261 121.218  0.00  0.00     0.217 HD
ENDBRANCH  17  24
BRANCH  19  26
ATOM     26  O4  MOL d           9.215 -19.807 120.172  0.00  0.00    -0.358 OA
ATOM     27  H11 MOL d           8.718 -19.876 120.979  0.00  0.00     0.217 HD
ENDBRANCH  19  26
ENDBRANCH   1  15
TORSDOF 8
ENDMDL
MODEL 8
REMARK VINA RESULT:      -3.7      1.695      2.319
REMARK  8 active torsions:
REMARK  status: ('A' for Active; 'I' for Inactive)
REMARK    1  A    between atoms: C5'_1  and  C4'_2 
REMARK    2  A    between atoms: C4'_2  and  O2'_3 
REMARK    3  A    between atoms: O2'_3  and  C3'_4 
REMARK    4  A    between atoms: C3'_4  and  C2'_6 
REMARK    5  A    between atoms: C2'_6  and  C1'_7 
REMARK    6  A    between atoms: C1'_7  and  C1_8 
REMARK    7  A    between atoms: C4_12  and  O4_13 
REMARK    8  A    between atoms: C3_14  and  O3_15 
ROOT
ATOM      1  C1' MOL d           6.930 -18.336 117.203  0.00  0.00    -0.067 C 
ATOM      2  H7  MOL d           6.186 -18.292 117.996  0.00  0.00     0.085 H 
ENDROOT
BRANCH   1   3
ATOM      3  C2' MOL d           8.271 -19.058 117.329  0.00  0.00    -0.010 C 
ATOM      4  H6  MOL d           8.484 -20.047 116.925  0.00  0.00     0.092 H 
BRANCH   3   5
ATOM      5  C3' MOL d           9.273 -18.198 118.102  0.00  0.00     0.282 C 
ATOM      6  O1' MOL d           9.506 -18.411 119.292  0.00  0.00    -0.260 OA
BRANCH   5   7
ATOM      7  O2' MOL d           9.915 -17.201 117.438  0.00  0.00    -0.319 OA
BRANCH   7   8
ATOM      8  C4' MOL d           9.593 -15.916 117.982  0.00  0.00     0.026 C 
ATOM      9  H4  MOL d           8.761 -16.011 118.695  0.00  0.00     0.074 H 
ATOM     10  H5  MOL d          10.470 -15.497 118.495  0.00  0.00     0.074 H 
BRANCH   8  11
ATOM     11  C5' MOL d           9.181 -15.002 116.823  0.00  0.00    -0.056 C 
ATOM     12  H1  MOL d           9.893 -14.167 116.745  0.00  0.00     0.030 H 
ATOM     13  H2  MOL d           8.171 -14.608 117.008  0.00  0.00     0.030 H 
ATOM     14  H3  MOL d           9.185 -15.576 115.884  0.00  0.00     0.030 H 
ENDBRANCH   8  11
ENDBRANCH   7   8
ENDBRANCH   5   7
ENDBRANCH   3   5
ENDBRANCH   1   3
BRANCH   1  15
ATOM     15  C1  MOL d           6.760 -17.685 115.832  0.00  0.00    -0.033 A 
ATOM     16  C2  MOL d           5.806 -16.698 115.609  0.00  0.00    -0.038 A 
ATOM     17  C3  MOL d           5.735 -16.068 114.370  0.00  0.00     0.099 A 
ATOM     18  H8  MOL d           5.118 -16.420 116.400  0.00  0.00     0.089 H 
ATOM     19  C4  MOL d           6.613 -16.429 113.354  0.00  0.00     0.098 A 
ATOM     20  C5  MOL d           7.562 -17.421 113.574  0.00  0.00    -0.047 A 
ATOM     21  C6  MOL d           7.634 -18.048 114.814  0.00  0.00    -0.070 A 
ATOM     22  H10 MOL d           8.245 -17.705 112.781  0.00  0.00     0.087 H 
ATOM     23  H9  MOL d           8.374 -18.821 114.987  0.00  0.00     0.084 H 
BRANCH  17  24
ATOM     24  O3  MOL d           4.826 -15.082 114.140  0.00  0.00    -0.358 OA
ATOM     25  H12 MOL d           4.372 -14.876 114.950  0.00  0.00     0.217 HD
ENDBRANCH  17  24
BRANCH  19  26
ATOM     26  O4  MOL d           6.540 -15.815 112.144  0.00  0.00    -0.358 OA
ATOM     27  H11 MOL d           5.637 -15.803 111.850  0.00  0.00     0.217 HD
ENDBRANCH  19  26
ENDBRANCH   1  15
TORSDOF 8
ENDMDL
MODEL 9
REMARK VINA RESULT:      -3.5      1.856      2.528
REMARK  8 active torsions:
REMARK  status: ('A' for Active; 'I' for Inactive)
REMARK    1  A    between atoms: C5'_1  and  C4'_2 
REMARK    2  A    between atoms: C4'_2  and  O2'_3 
REMARK    3  A    between atoms: O2'_3  and  C3'_4 
REMARK    4  A    between atoms: C3'_4  and  C2'_6 
REMARK    5  A    between atoms: C2'_6  and  C1'_7 
REMARK    6  A    between atoms: C1'_7  and  C1_8 
REMARK    7  A    between atoms: C4_12  and  O4_13 
REMARK    8  A    between atoms: C3_14  and  O3_15 
ROOT
ATOM      1  C1' MOL d           9.781 -15.945 115.069  0.00  0.00    -0.067 C 
ATOM      2  H7  MOL d          10.692 -16.410 114.695  0.00  0.00     0.085 H 
ENDROOT
BRANCH   1   3
ATOM      3  C2' MOL d           9.734 -15.002 116.270  0.00  0.00    -0.010 C 
ATOM      4  H6  MOL d           9.946 -13.934 116.231  0.00  0.00     0.092 H 
BRANCH   3   5
ATOM      5  C3' MOL d           9.346 -15.767 117.537  0.00  0.00     0.282 C 
ATOM      6  O1' MOL d          10.186 -16.398 118.179  0.00  0.00    -0.260 OA
BRANCH   5   7
ATOM      7  O2' MOL d           8.051 -15.719 117.949  0.00  0.00    -0.319 OA
BRANCH   7   8
ATOM      8  C4' MOL d           7.621 -16.981 118.472  0.00  0.00     0.026 C 
ATOM      9  H4  MOL d           8.495 -17.586 118.754  0.00  0.00     0.074 H 
ATOM     10  H5  MOL d           6.985 -16.822 119.355  0.00  0.00     0.074 H 
BRANCH   8  11
ATOM     11  C5' MOL d           6.822 -17.698 117.378  0.00  0.00    -0.056 C 
ATOM     12  H1  MOL d           6.795 -18.777 117.592  0.00  0.00     0.030 H 
ATOM     13  H2  MOL d           7.304 -17.530 116.403  0.00  0.00     0.030 H 
ATOM     14  H3  MOL d           5.796 -17.302 117.354  0.00  0.00     0.030 H 
ENDBRANCH   8  11
ENDBRANCH   7   8
ENDBRANCH   5   7
ENDBRANCH   3   5
ENDBRANCH   1   3
BRANCH   1  15
ATOM     15  C1  MOL d           8.399 -16.157 114.455  0.00  0.00    -0.033 A 
ATOM     16  C2  MOL d           7.963 -17.417 114.060  0.00  0.00    -0.038 A 
ATOM     17  C3  MOL d           6.667 -17.586 113.581  0.00  0.00     0.099 A 
ATOM     18  H8  MOL d           8.633 -18.267 114.125  0.00  0.00     0.089 H 
ATOM     19  C4  MOL d           5.810 -16.495 113.493  0.00  0.00     0.098 A 
ATOM     20  C5  MOL d           6.247 -15.233 113.880  0.00  0.00    -0.047 A 
ATOM     21  C6  MOL d           7.543 -15.066 114.361  0.00  0.00    -0.070 A 
ATOM     22  H10 MOL d           5.581 -14.381 113.808  0.00  0.00     0.087 H 
ATOM     23  H9  MOL d           7.885 -14.083 114.663  0.00  0.00     0.084 H 
BRANCH  17  24
ATOM     24  O3  MOL d           6.214 -18.815 113.215  0.00  0.00    -0.358 OA
ATOM     25  H12 MOL d           5.726 -18.743 112.402  0.00  0.00     0.217 HD
ENDBRANCH  17  24
BRANCH  19  26
ATOM     26  O4  MOL d           4.546 -16.660 113.023  0.00  0.00    -0.358 OA
ATOM     27  H11 MOL d           4.508 -17.445 112.489  0.00  0.00     0.217 HD
ENDBRANCH  19  26
ENDBRANCH   1  15
TORSDOF 8
ENDMDL
MODEL 10
REMARK VINA RESULT:      -3.1      1.754      5.380
REMARK  8 active torsions:
REMARK  status: ('A' for Active; 'I' for Inactive)
REMARK    1  A    between atoms: C5'_1  and  C4'_2 
REMARK    2  A    between atoms: C4'_2  and  O2'_3 
REMARK    3  A    between atoms: O2'_3  and  C3'_4 
REMARK    4  A    between atoms: C3'_4  and  C2'_6 
REMARK    5  A    between atoms: C2'_6  and  C1'_7 
REMARK    6  A    between atoms: C1'_7  and  C1_8 
REMARK    7  A    between atoms: C4_12  and  O4_13 
REMARK    8  A    between atoms: C3_14  and  O3_15 
ROOT
ATOM      1  C1' MOL d           9.967 -15.952 113.861  0.00  0.00    -0.067 C 
ATOM      2  H7  MOL d          10.973 -15.933 113.444  0.00  0.00     0.085 H 
ENDROOT
BRANCH   1   3
ATOM      3  C2' MOL d           8.841 -15.019 113.420  0.00  0.00    -0.010 C 
ATOM      4  H6  MOL d           8.652 -14.032 113.841  0.00  0.00     0.092 H 
BRANCH   3   5
ATOM      5  C3' MOL d           8.016 -15.663 112.304  0.00  0.00     0.282 C 
ATOM      6  O1' MOL d           8.531 -15.964 111.228  0.00  0.00    -0.260 OA
BRANCH   5   7
ATOM      7  O2' MOL d           6.699 -15.911 112.536  0.00  0.00    -0.319 OA
BRANCH   7   8
ATOM      8  C4' MOL d           6.344 -17.247 112.162  0.00  0.00     0.026 C 
ATOM      9  H4  MOL d           5.350 -17.251 111.692  0.00  0.00     0.074 H 
ATOM     10  H5  MOL d           7.086 -17.646 111.456  0.00  0.00     0.074 H 
BRANCH   8  11
ATOM     11  C5' MOL d           6.322 -18.102 113.433  0.00  0.00    -0.056 C 
ATOM     12  H1  MOL d           6.396 -19.165 113.161  0.00  0.00     0.030 H 
ATOM     13  H2  MOL d           5.380 -17.928 113.976  0.00  0.00     0.030 H 
ATOM     14  H3  MOL d           7.171 -17.827 114.075  0.00  0.00     0.030 H 
ENDBRANCH   8  11
ENDBRANCH   7   8
ENDBRANCH   5   7
ENDBRANCH   3   5
ENDBRANCH   1   3
BRANCH   1  15
ATOM     15  C1  MOL d           9.513 -16.915 114.957  0.00  0.00    -0.033 A 
ATOM     16  C2  MOL d           8.515 -16.570 115.861  0.00  0.00    -0.038 A 
ATOM     17  C3  MOL d           8.069 -17.502 116.794  0.00  0.00     0.099 A 
ATOM     18  H8  MOL d           8.083 -15.575 115.839  0.00  0.00     0.089 H 
ATOM     19  C4  MOL d           8.627 -18.775 116.826  0.00  0.00     0.098 A 
ATOM     20  C5  MOL d           9.631 -19.119 115.927  0.00  0.00    -0.047 A 
ATOM     21  C6  MOL d          10.073 -18.186 114.994  0.00  0.00    -0.070 A 
ATOM     22  H10 MOL d          10.068 -20.110 115.954  0.00  0.00     0.087 H 
ATOM     23  H9  MOL d          10.856 -18.452 114.293  0.00  0.00     0.084 H 
BRANCH  17  24
ATOM     24  O3  MOL d           7.075 -17.192 117.669  0.00  0.00    -0.358 OA
ATOM     25  H12 MOL d           7.083 -16.257 117.838  0.00  0.00     0.217 HD
ENDBRANCH  17  24
BRANCH  19  26
ATOM     26  O4  MOL d           8.193 -19.684 117.739  0.00  0.00    -0.358 OA
ATOM     27  H11 MOL d           7.422 -19.345 118.179  0.00  0.00     0.217 HD
ENDBRANCH  19  26
ENDBRANCH   1  15
TORSDOF 8
ENDMDL
