MODEL 1
REMARK VINA RESULT:      -7.4      0.000      0.000
REMARK  8 active torsions:
REMARK  status: ('A' for Active; 'I' for Inactive)
REMARK       I    between atoms: C25_25  and  N1_1 
REMARK    1  A    between atoms: C3_3  and  N5_5 
REMARK       I    between atoms: N5_5  and  C6_6 
REMARK    2  A    between atoms: C6_6  and  C7_7 
REMARK    3  A    between atoms: C24_24  and  N17_17 
REMARK    4  A    between atoms: N20_20  and  C23_23 
REMARK    5  A    between atoms: C20_32  and  C25_25 
REMARK    6  A    between atoms: C29_29  and  C20_32 
REMARK    7  A    between atoms: C20_32  and  O34_35 
REMARK    8  A    between atoms: O34_35  and  C36_34 
ROOT
ATOM      1  N1  MOL d         -41.384 -46.105  -9.977  0.00  0.00    -0.340 N 
ATOM      2  N2  MOL d         -38.954 -47.315 -12.375  0.00  0.00    -0.278 N 
ATOM      3  C3  MOL d         -40.501 -48.912 -12.177  0.00  0.00     0.160 A 
ATOM      4  N4  MOL d         -39.329 -48.626 -12.773  0.00  0.00    -0.156 NA
ATOM      5  C13 MOL d         -39.923 -46.857 -11.556  0.00  0.00     0.057 A 
ATOM      6  C14 MOL d         -40.929 -47.859 -11.393  0.00  0.00     0.033 A 
ATOM      7  C15 MOL d         -41.993 -47.390 -10.451  0.00  0.00     0.027 C 
ATOM      8  C16 MOL d         -40.207 -45.642 -10.743  0.00  0.00     0.038 C 
ATOM      9  C25 MOL d         -41.831 -45.379  -8.940  0.00  0.00     0.254 C 
ATOM     10  O26 MOL d         -41.291 -44.330  -8.594  0.00  0.00    -0.270 OA
ATOM     11  H1  MOL d         -38.103 -46.809 -12.658  0.00  0.00     0.189 HD
ATOM     12  H7  MOL d         -42.949 -47.221 -10.969  0.00  0.00     0.072 H 
ATOM     13  H8  MOL d         -42.146 -48.098  -9.624  0.00  0.00     0.072 H 
ATOM     14  H9  MOL d         -39.366 -45.388 -10.082  0.00  0.00     0.074 H 
ATOM     15  H10 MOL d         -40.450 -44.776 -11.377  0.00  0.00     0.074 H 
ENDROOT
BRANCH   3  16
ATOM     16  N5  MOL d         -41.083 -50.144 -12.384  0.00  0.00    -0.305 N 
ATOM     17  C6  MOL d         -42.374 -50.421 -12.300  0.00  0.00     0.257 C 
ATOM     18  O8  MOL d         -43.238 -49.601 -12.052  0.00  0.00    -0.267 OA
ATOM     19  H2  MOL d         -40.472 -50.900 -12.620  0.00  0.00     0.170 HD
BRANCH  17  20
ATOM     20  C7  MOL d         -42.788 -51.821 -12.542  0.00  0.00     0.032 A 
ATOM     21  C9  MOL d         -41.968 -52.597 -13.347  0.00  0.00    -0.066 A 
ATOM     22  C10 MOL d         -42.276 -53.915 -13.611  0.00  0.00    -0.056 A 
ATOM     23  H3  MOL d         -41.072 -52.161 -13.775  0.00  0.00     0.085 H 
ATOM     24  C24 MOL d         -43.426 -54.441 -13.065  0.00  0.00     0.030 A 
ATOM     25  H4  MOL d         -41.629 -54.522 -14.234  0.00  0.00     0.086 H 
ATOM     26  C11 MOL d         -44.262 -53.651 -12.254  0.00  0.00    -0.056 A 
ATOM     27  C12 MOL d         -43.948 -52.332 -11.980  0.00  0.00    -0.066 A 
ATOM     28  H5  MOL d         -45.165 -54.083 -11.839  0.00  0.00     0.086 H 
ATOM     29  H6  MOL d         -44.585 -51.722 -11.350  0.00  0.00     0.085 H 
BRANCH  24  30
ATOM     30  N17 MOL d         -43.742 -55.784 -13.330  0.00  0.00    -0.378 N 
ATOM     31  C18 MOL d         -43.213 -56.747 -12.683  0.00  0.00     0.018 C 
ATOM     32  C19 MOL d         -42.751 -57.789 -13.391  0.00  0.00     0.098 C 
ATOM     33  H11 MOL d         -43.972 -57.132 -11.986  0.00  0.00     0.066 H 
ATOM     34  H12 MOL d         -42.367 -56.335 -12.113  0.00  0.00     0.066 H 
ATOM     35  N20 MOL d         -43.221 -58.057 -14.727  0.00  0.00    -0.072 N 
ATOM     36  H13 MOL d         -42.971 -58.689 -12.798  0.00  0.00     0.078 H 
ATOM     37  H14 MOL d         -41.662 -57.656 -13.466  0.00  0.00     0.078 H 
ATOM     38  C21 MOL d         -43.846 -56.875 -15.384  0.00  0.00     0.098 C 
ATOM     39  H15 MOL d         -43.915 -58.784 -14.664  0.00  0.00     0.279 HD
ATOM     40  C22 MOL d         -44.702 -56.084 -14.397  0.00  0.00     0.018 C 
ATOM     41  H16 MOL d         -44.481 -57.220 -16.213  0.00  0.00     0.078 H 
ATOM     42  H17 MOL d         -43.053 -56.221 -15.776  0.00  0.00     0.078 H 
ATOM     43  H18 MOL d         -45.090 -55.162 -14.855  0.00  0.00     0.066 H 
ATOM     44  H19 MOL d         -45.541 -56.689 -14.022  0.00  0.00     0.066 H 
BRANCH  35  45
ATOM     45  C23 MOL d         -42.122 -58.528 -15.592  0.00  0.00     0.066 C 
ATOM     46  H20 MOL d         -41.792 -59.522 -15.257  0.00  0.00     0.068 H 
ATOM     47  H21 MOL d         -41.280 -57.823 -15.532  0.00  0.00     0.068 H 
ATOM     48  H22 MOL d         -42.475 -58.589 -16.632  0.00  0.00     0.068 H 
ENDBRANCH  35  45
ENDBRANCH  24  30
ENDBRANCH  17  20
ENDBRANCH   3  16
BRANCH   9  49
ATOM     49  C20 MOL d         -43.017 -45.875  -8.172  0.00  0.00     0.140 C 
ATOM     50  H27 MOL d         -43.806 -46.190  -8.869  0.00  0.00     0.106 H 
BRANCH  49  51
ATOM     51  C29 MOL d         -42.579 -47.060  -7.371  0.00  0.00    -0.020 A 
ATOM     52  C27 MOL d         -43.374 -48.230  -7.360  0.00  0.00    -0.074 A 
ATOM     53  C28 MOL d         -42.960 -49.351  -6.643  0.00  0.00    -0.082 A 
ATOM     54  H23 MOL d         -44.308 -48.254  -7.911  0.00  0.00     0.084 H 
ATOM     55  C31 MOL d         -41.750 -49.291  -5.923  0.00  0.00    -0.083 A 
ATOM     56  H24 MOL d         -43.559 -50.254  -6.638  0.00  0.00     0.083 H 
ATOM     57  C35 MOL d         -40.961 -48.136  -5.923  0.00  0.00    -0.082 A 
ATOM     58  H25 MOL d         -41.424 -50.157  -5.358  0.00  0.00     0.083 H 
ATOM     59  C33 MOL d         -41.376 -47.021  -6.635  0.00  0.00    -0.074 A 
ATOM     60  H28 MOL d         -40.029 -48.112  -5.369  0.00  0.00     0.083 H 
ATOM     61  H26 MOL d         -40.775 -46.119  -6.626  0.00  0.00     0.084 H 
ENDBRANCH  49  51
BRANCH  49  62
ATOM     62  O34 MOL d         -43.517 -44.804  -7.369  0.00  0.00    -0.377 OA
BRANCH  62  63
ATOM     63  C36 MOL d         -44.912 -44.918  -7.025  0.00  0.00     0.005 C 
ATOM     64  H29 MOL d         -45.523 -44.827  -7.935  0.00  0.00     0.066 H 
ATOM     65  H30 MOL d         -45.183 -44.118  -6.320  0.00  0.00     0.066 H 
ATOM     66  H31 MOL d         -45.096 -45.896  -6.556  0.00  0.00     0.066 H 
ENDBRANCH  62  63
ENDBRANCH  49  62
ENDBRANCH   9  49
TORSDOF 8
ENDMDL
MODEL 2
REMARK VINA RESULT:      -6.7      2.284      3.964
REMARK  8 active torsions:
REMARK  status: ('A' for Active; 'I' for Inactive)
REMARK       I    between atoms: C25_25  and  N1_1 
REMARK    1  A    between atoms: C3_3  and  N5_5 
REMARK       I    between atoms: N5_5  and  C6_6 
REMARK    2  A    between atoms: C6_6  and  C7_7 
REMARK    3  A    between atoms: C24_24  and  N17_17 
REMARK    4  A    between atoms: N20_20  and  C23_23 
REMARK    5  A    between atoms: C20_32  and  C25_25 
REMARK    6  A    between atoms: C29_29  and  C20_32 
REMARK    7  A    between atoms: C20_32  and  O34_35 
REMARK    8  A    between atoms: O34_35  and  C36_34 
ROOT
ATOM      1  N1  MOL d         -42.699 -47.084  -7.848  0.00  0.00    -0.340 N 
ATOM      2  N2  MOL d         -43.323 -50.088  -5.923  0.00  0.00    -0.278 N 
ATOM      3  C3  MOL d         -43.476 -50.668  -8.074  0.00  0.00     0.160 A 
ATOM      4  N4  MOL d         -43.618 -51.147  -6.824  0.00  0.00    -0.156 NA
ATOM      5  C13 MOL d         -43.006 -49.010  -6.669  0.00  0.00     0.057 A 
ATOM      6  C14 MOL d         -43.105 -49.338  -8.057  0.00  0.00     0.033 A 
ATOM      7  C15 MOL d         -42.801 -48.143  -8.904  0.00  0.00     0.027 C 
ATOM      8  C16 MOL d         -42.641 -47.582  -6.456  0.00  0.00     0.038 C 
ATOM      9  C25 MOL d         -42.655 -45.764  -8.084  0.00  0.00     0.254 C 
ATOM     10  O26 MOL d         -42.570 -44.938  -7.177  0.00  0.00    -0.270 OA
ATOM     11  H1  MOL d         -43.347 -50.135  -4.895  0.00  0.00     0.189 HD
ATOM     12  H7  MOL d         -41.855 -48.263  -9.453  0.00  0.00     0.072 H 
ATOM     13  H8  MOL d         -43.612 -47.931  -9.616  0.00  0.00     0.072 H 
ATOM     14  H9  MOL d         -43.368 -47.068  -5.810  0.00  0.00     0.074 H 
ATOM     15  H10 MOL d         -41.633 -47.479  -6.029  0.00  0.00     0.074 H 
ENDROOT
BRANCH   3  16
ATOM     16  N5  MOL d         -43.723 -51.495  -9.148  0.00  0.00    -0.305 N 
ATOM     17  C6  MOL d         -44.874 -51.616  -9.790  0.00  0.00     0.257 C 
ATOM     18  O8  MOL d         -45.877 -50.979  -9.529  0.00  0.00    -0.267 OA
ATOM     19  H2  MOL d         -42.962 -52.056  -9.473  0.00  0.00     0.170 HD
BRANCH  17  20
ATOM     20  C7  MOL d         -44.931 -52.581 -10.911  0.00  0.00     0.032 A 
ATOM     21  C9  MOL d         -43.912 -52.527 -11.849  0.00  0.00    -0.066 A 
ATOM     22  C10 MOL d         -43.884 -53.400 -12.917  0.00  0.00    -0.056 A 
ATOM     23  H3  MOL d         -43.126 -51.788 -11.742  0.00  0.00     0.085 H 
ATOM     24  C24 MOL d         -44.901 -54.321 -13.036  0.00  0.00     0.030 A 
ATOM     25  H4  MOL d         -43.081 -53.362 -13.644  0.00  0.00     0.086 H 
ATOM     26  C11 MOL d         -45.939 -54.371 -12.087  0.00  0.00    -0.056 A 
ATOM     27  C12 MOL d         -45.962 -53.503 -11.011  0.00  0.00    -0.066 A 
ATOM     28  H5  MOL d         -46.733 -55.100 -12.202  0.00  0.00     0.086 H 
ATOM     29  H6  MOL d         -46.755 -53.542 -10.273  0.00  0.00     0.085 H 
BRANCH  24  30
ATOM     30  N17 MOL d         -44.875 -55.214 -14.121  0.00  0.00    -0.378 N 
ATOM     31  C18 MOL d         -45.890 -55.912 -14.450  0.00  0.00     0.018 C 
ATOM     32  C19 MOL d         -45.691 -57.215 -14.702  0.00  0.00     0.098 C 
ATOM     33  H11 MOL d         -46.317 -55.462 -15.359  0.00  0.00     0.066 H 
ATOM     34  H12 MOL d         -46.618 -55.842 -13.629  0.00  0.00     0.066 H 
ATOM     35  N20 MOL d         -44.387 -57.722 -15.048  0.00  0.00    -0.072 N 
ATOM     36  H13 MOL d         -46.357 -57.475 -15.538  0.00  0.00     0.078 H 
ATOM     37  H14 MOL d         -46.006 -57.757 -13.799  0.00  0.00     0.078 H 
ATOM     38  C21 MOL d         -43.273 -56.820 -14.643  0.00  0.00     0.098 C 
ATOM     39  H15 MOL d         -44.358 -57.826 -16.050  0.00  0.00     0.279 HD
ATOM     40  C22 MOL d         -43.632 -55.356 -14.886  0.00  0.00     0.018 C 
ATOM     41  H16 MOL d         -42.377 -57.071 -15.230  0.00  0.00     0.078 H 
ATOM     42  H17 MOL d         -43.064 -56.966 -13.573  0.00  0.00     0.078 H 
ATOM     43  H18 MOL d         -42.850 -54.684 -14.504  0.00  0.00     0.066 H 
ATOM     44  H19 MOL d         -43.796 -55.157 -15.955  0.00  0.00     0.066 H 
BRANCH  35  45
ATOM     45  C23 MOL d         -44.150 -59.041 -14.431  0.00  0.00     0.066 C 
ATOM     46  H20 MOL d         -44.181 -59.820 -15.207  0.00  0.00     0.068 H 
ATOM     47  H21 MOL d         -44.928 -59.241 -13.680  0.00  0.00     0.068 H 
ATOM     48  H22 MOL d         -43.163 -59.047 -13.945  0.00  0.00     0.068 H 
ENDBRANCH  35  45
ENDBRANCH  24  30
ENDBRANCH  17  20
ENDBRANCH   3  16
BRANCH   9  49
ATOM     49  C20 MOL d         -42.726 -45.283  -9.501  0.00  0.00     0.140 C 
ATOM     50  H27 MOL d         -42.789 -44.185  -9.518  0.00  0.00     0.106 H 
BRANCH  49  51
ATOM     51  C29 MOL d         -41.468 -45.705 -10.190  0.00  0.00    -0.020 A 
ATOM     52  C27 MOL d         -41.528 -46.658 -11.235  0.00  0.00    -0.074 A 
ATOM     53  C28 MOL d         -40.365 -47.036 -11.904  0.00  0.00    -0.082 A 
ATOM     54  H23 MOL d         -42.480 -47.094 -11.515  0.00  0.00     0.084 H 
ATOM     55  C31 MOL d         -39.137 -46.465 -11.513  0.00  0.00    -0.083 A 
ATOM     56  H24 MOL d         -40.405 -47.757 -12.713  0.00  0.00     0.083 H 
ATOM     57  C35 MOL d         -39.068 -45.529 -10.476  0.00  0.00    -0.082 A 
ATOM     58  H25 MOL d         -38.228 -46.759 -12.026  0.00  0.00     0.083 H 
ATOM     59  C33 MOL d         -40.225 -45.157  -9.810  0.00  0.00    -0.074 A 
ATOM     60  H28 MOL d         -38.115 -45.096 -10.196  0.00  0.00     0.083 H 
ATOM     61  H26 MOL d         -40.174 -44.442  -8.996  0.00  0.00     0.084 H 
ENDBRANCH  49  51
BRANCH  49  62
ATOM     62  O34 MOL d         -43.907 -45.818 -10.102  0.00  0.00    -0.377 OA
BRANCH  62  63
ATOM     63  C36 MOL d         -45.105 -45.646  -9.319  0.00  0.00     0.005 C 
ATOM     64  H29 MOL d         -44.984 -44.782  -8.649  0.00  0.00     0.066 H 
ATOM     65  H30 MOL d         -45.286 -46.551  -8.721  0.00  0.00     0.066 H 
ATOM     66  H31 MOL d         -45.960 -45.473  -9.989  0.00  0.00     0.066 H 
ENDBRANCH  62  63
ENDBRANCH  49  62
ENDBRANCH   9  49
TORSDOF 8
ENDMDL
MODEL 3
REMARK VINA RESULT:      -6.6      2.924      4.825
REMARK  8 active torsions:
REMARK  status: ('A' for Active; 'I' for Inactive)
REMARK       I    between atoms: C25_25  and  N1_1 
REMARK    1  A    between atoms: C3_3  and  N5_5 
REMARK       I    between atoms: N5_5  and  C6_6 
REMARK    2  A    between atoms: C6_6  and  C7_7 
REMARK    3  A    between atoms: C24_24  and  N17_17 
REMARK    4  A    between atoms: N20_20  and  C23_23 
REMARK    5  A    between atoms: C20_32  and  C25_25 
REMARK    6  A    between atoms: C29_29  and  C20_32 
REMARK    7  A    between atoms: C20_32  and  O34_35 
REMARK    8  A    between atoms: O34_35  and  C36_34 
ROOT
ATOM      1  N1  MOL d         -44.276 -48.254  -8.241  0.00  0.00    -0.340 N 
ATOM      2  N2  MOL d         -46.010 -50.601  -6.096  0.00  0.00    -0.278 N 
ATOM      3  C3  MOL d         -45.060 -51.806  -7.718  0.00  0.00     0.160 A 
ATOM      4  N4  MOL d         -45.863 -51.905  -6.643  0.00  0.00    -0.156 NA
ATOM      5  C13 MOL d         -45.280 -49.766  -6.862  0.00  0.00     0.057 A 
ATOM      6  C14 MOL d         -44.664 -50.499  -7.923  0.00  0.00     0.033 A 
ATOM      7  C15 MOL d         -43.884 -49.584  -8.814  0.00  0.00     0.027 C 
ATOM      8  C16 MOL d         -44.984 -48.308  -6.944  0.00  0.00     0.038 C 
ATOM      9  C25 MOL d         -44.026 -47.067  -8.814  0.00  0.00     0.254 C 
ATOM     10  O26 MOL d         -44.370 -46.005  -8.298  0.00  0.00    -0.270 OA
ATOM     11  H1  MOL d         -46.569 -50.344  -5.270  0.00  0.00     0.189 HD
ATOM     12  H7  MOL d         -42.801 -49.760  -8.730  0.00  0.00     0.072 H 
ATOM     13  H8  MOL d         -44.190 -49.680  -9.865  0.00  0.00     0.072 H 
ATOM     14  H9  MOL d         -45.904 -47.706  -6.958  0.00  0.00     0.074 H 
ATOM     15  H10 MOL d         -44.341 -47.976  -6.116  0.00  0.00     0.074 H 
ENDROOT
BRANCH   3  16
ATOM     16  N5  MOL d         -44.767 -52.935  -8.451  0.00  0.00    -0.305 N 
ATOM     17  C6  MOL d         -45.196 -53.205  -9.673  0.00  0.00     0.257 C 
ATOM     18  O8  MOL d         -45.896 -52.462 -10.335  0.00  0.00    -0.267 OA
ATOM     19  H2  MOL d         -44.176 -53.615  -8.018  0.00  0.00     0.170 HD
BRANCH  17  20
ATOM     20  C7  MOL d         -44.777 -54.490 -10.275  0.00  0.00     0.032 A 
ATOM     21  C9  MOL d         -44.836 -54.595 -11.656  0.00  0.00    -0.066 A 
ATOM     22  C10 MOL d         -44.450 -55.754 -12.296  0.00  0.00    -0.056 A 
ATOM     23  H3  MOL d         -45.189 -53.754 -12.241  0.00  0.00     0.085 H 
ATOM     24  C24 MOL d         -44.015 -56.812 -11.529  0.00  0.00     0.030 A 
ATOM     25  H4  MOL d         -44.488 -55.831 -13.377  0.00  0.00     0.086 H 
ATOM     26  C11 MOL d         -43.963 -56.708 -10.126  0.00  0.00    -0.056 A 
ATOM     27  C12 MOL d         -44.339 -55.542  -9.485  0.00  0.00    -0.066 A 
ATOM     28  H5  MOL d         -43.623 -57.555  -9.540  0.00  0.00     0.086 H 
ATOM     29  H6  MOL d         -44.293 -55.454  -8.405  0.00  0.00     0.085 H 
BRANCH  24  30
ATOM     30  N17 MOL d         -43.619 -57.995 -12.177  0.00  0.00    -0.378 N 
ATOM     31  C18 MOL d         -42.443 -58.473 -12.059  0.00  0.00     0.018 C 
ATOM     32  C19 MOL d         -41.820 -58.869 -13.179  0.00  0.00     0.098 C 
ATOM     33  H11 MOL d         -42.507 -59.345 -11.392  0.00  0.00     0.066 H 
ATOM     34  H12 MOL d         -41.818 -57.698 -11.591  0.00  0.00     0.066 H 
ATOM     35  N20 MOL d         -42.557 -59.189 -14.375  0.00  0.00    -0.072 N 
ATOM     36  H13 MOL d         -41.250 -59.771 -12.915  0.00  0.00     0.078 H 
ATOM     37  H14 MOL d         -41.124 -58.061 -13.450  0.00  0.00     0.078 H 
ATOM     38  C21 MOL d         -43.927 -58.605 -14.402  0.00  0.00     0.098 C 
ATOM     39  H15 MOL d         -42.643 -60.192 -14.419  0.00  0.00     0.279 HD
ATOM     40  C22 MOL d         -44.590 -58.689 -13.029  0.00  0.00     0.018 C 
ATOM     41  H16 MOL d         -44.539 -59.159 -15.130  0.00  0.00     0.078 H 
ATOM     42  H17 MOL d         -43.862 -57.549 -14.705  0.00  0.00     0.078 H 
ATOM     43  H18 MOL d         -45.563 -58.178 -13.023  0.00  0.00     0.066 H 
ATOM     44  H19 MOL d         -44.723 -59.734 -12.713  0.00  0.00     0.066 H 
BRANCH  35  45
ATOM     45  C23 MOL d         -41.842 -58.724 -15.580  0.00  0.00     0.066 C 
ATOM     46  H20 MOL d         -42.225 -59.258 -16.462  0.00  0.00     0.068 H 
ATOM     47  H21 MOL d         -40.767 -58.924 -15.469  0.00  0.00     0.068 H 
ATOM     48  H22 MOL d         -42.003 -57.643 -15.707  0.00  0.00     0.068 H 
ENDBRANCH  35  45
ENDBRANCH  24  30
ENDBRANCH  17  20
ENDBRANCH   3  16
BRANCH   9  49
ATOM     49  C20 MOL d         -43.318 -47.038 -10.133  0.00  0.00     0.140 C 
ATOM     50  H27 MOL d         -43.951 -46.542 -10.884  0.00  0.00     0.106 H 
BRANCH  49  51
ATOM     51  C29 MOL d         -42.062 -46.245  -9.959  0.00  0.00    -0.020 A 
ATOM     52  C27 MOL d         -41.429 -45.679 -11.092  0.00  0.00    -0.074 A 
ATOM     53  C28 MOL d         -40.276 -44.912 -10.938  0.00  0.00    -0.082 A 
ATOM     54  H23 MOL d         -41.843 -45.843 -12.081  0.00  0.00     0.084 H 
ATOM     55  C31 MOL d         -39.750 -44.724  -9.644  0.00  0.00    -0.083 A 
ATOM     56  H24 MOL d         -39.791 -44.467 -11.800  0.00  0.00     0.083 H 
ATOM     57  C35 MOL d         -40.365 -45.285  -8.521  0.00  0.00    -0.082 A 
ATOM     58  H25 MOL d         -38.850 -44.133  -9.518  0.00  0.00     0.083 H 
ATOM     59  C33 MOL d         -41.510 -46.050  -8.676  0.00  0.00    -0.074 A 
ATOM     60  H28 MOL d         -39.949 -45.122  -7.533  0.00  0.00     0.083 H 
ATOM     61  H26 MOL d         -41.982 -46.499  -7.810  0.00  0.00     0.084 H 
ENDBRANCH  49  51
BRANCH  49  62
ATOM     62  O34 MOL d         -43.083 -48.385 -10.551  0.00  0.00    -0.377 OA
BRANCH  62  63
ATOM     63  C36 MOL d         -42.891 -48.543 -11.971  0.00  0.00     0.005 C 
ATOM     64  H29 MOL d         -43.546 -49.344 -12.343  0.00  0.00     0.066 H 
ATOM     65  H30 MOL d         -41.842 -48.805 -12.173  0.00  0.00     0.066 H 
ATOM     66  H31 MOL d         -43.138 -47.601 -12.482  0.00  0.00     0.066 H 
ENDBRANCH  62  63
ENDBRANCH  49  62
ENDBRANCH   9  49
TORSDOF 8
ENDMDL
MODEL 4
REMARK VINA RESULT:      -6.6      2.890      4.731
REMARK  8 active torsions:
REMARK  status: ('A' for Active; 'I' for Inactive)
REMARK       I    between atoms: C25_25  and  N1_1 
REMARK    1  A    between atoms: C3_3  and  N5_5 
REMARK       I    between atoms: N5_5  and  C6_6 
REMARK    2  A    between atoms: C6_6  and  C7_7 
REMARK    3  A    between atoms: C24_24  and  N17_17 
REMARK    4  A    between atoms: N20_20  and  C23_23 
REMARK    5  A    between atoms: C20_32  and  C25_25 
REMARK    6  A    between atoms: C29_29  and  C20_32 
REMARK    7  A    between atoms: C20_32  and  O34_35 
REMARK    8  A    between atoms: O34_35  and  C36_34 
ROOT
ATOM      1  N1  MOL d         -43.487 -47.932  -7.219  0.00  0.00    -0.340 N 
ATOM      2  N2  MOL d         -46.101 -50.078  -5.923  0.00  0.00    -0.278 N 
ATOM      3  C3  MOL d         -44.912 -51.316  -7.351  0.00  0.00     0.160 A 
ATOM      4  N4  MOL d         -45.999 -51.346  -6.557  0.00  0.00    -0.156 NA
ATOM      5  C13 MOL d         -45.063 -49.334  -6.356  0.00  0.00     0.057 A 
ATOM      6  C14 MOL d         -44.283 -50.089  -7.285  0.00  0.00     0.033 A 
ATOM      7  C15 MOL d         -43.149 -49.267  -7.813  0.00  0.00     0.027 C 
ATOM      8  C16 MOL d         -44.541 -47.949  -6.183  0.00  0.00     0.038 C 
ATOM      9  C25 MOL d         -42.907 -46.771  -7.559  0.00  0.00     0.254 C 
ATOM     10  O26 MOL d         -43.222 -45.703  -7.037  0.00  0.00    -0.270 OA
ATOM     11  H1  MOL d         -46.830 -49.783  -5.258  0.00  0.00     0.189 HD
ATOM     12  H7  MOL d         -42.177 -49.637  -7.457  0.00  0.00     0.072 H 
ATOM     13  H8  MOL d         -43.147 -49.235  -8.912  0.00  0.00     0.072 H 
ATOM     14  H9  MOL d         -45.316 -47.195  -6.379  0.00  0.00     0.074 H 
ATOM     15  H10 MOL d         -44.125 -47.795  -5.177  0.00  0.00     0.074 H 
ENDROOT
BRANCH   3  16
ATOM     16  N5  MOL d         -44.592 -52.427  -8.102  0.00  0.00    -0.305 N 
ATOM     17  C6  MOL d         -44.989 -52.671  -9.340  0.00  0.00     0.257 C 
ATOM     18  O8  MOL d         -45.679 -51.919 -10.002  0.00  0.00    -0.267 OA
ATOM     19  H2  MOL d         -44.005 -53.111  -7.670  0.00  0.00     0.170 HD
BRANCH  17  20
ATOM     20  C7  MOL d         -44.545 -53.939  -9.960  0.00  0.00     0.032 A 
ATOM     21  C9  MOL d         -44.269 -53.920 -11.319  0.00  0.00    -0.066 A 
ATOM     22  C10 MOL d         -43.837 -55.056 -11.970  0.00  0.00    -0.056 A 
ATOM     23  H3  MOL d         -44.395 -53.000 -11.877  0.00  0.00     0.085 H 
ATOM     24  C24 MOL d         -43.695 -56.216 -11.241  0.00  0.00     0.030 A 
ATOM     25  H4  MOL d         -43.613 -55.037 -13.031  0.00  0.00     0.086 H 
ATOM     26  C11 MOL d         -43.982 -56.237  -9.863  0.00  0.00    -0.056 A 
ATOM     27  C12 MOL d         -44.405 -55.095  -9.207  0.00  0.00    -0.066 A 
ATOM     28  H5  MOL d         -43.870 -57.161  -9.308  0.00  0.00     0.086 H 
ATOM     29  H6  MOL d         -44.620 -55.104  -8.144  0.00  0.00     0.085 H 
BRANCH  24  30
ATOM     30  N17 MOL d         -43.252 -57.375 -11.900  0.00  0.00    -0.378 N 
ATOM     31  C18 MOL d         -42.567 -57.326 -12.974  0.00  0.00     0.018 C 
ATOM     32  C19 MOL d         -42.931 -58.136 -13.979  0.00  0.00     0.098 C 
ATOM     33  H11 MOL d         -41.527 -57.572 -12.713  0.00  0.00     0.066 H 
ATOM     34  H12 MOL d         -42.616 -56.293 -13.349  0.00  0.00     0.066 H 
ATOM     35  N20 MOL d         -43.723 -59.317 -13.743  0.00  0.00    -0.072 N 
ATOM     36  H13 MOL d         -42.001 -58.477 -14.456  0.00  0.00     0.078 H 
ATOM     37  H14 MOL d         -43.501 -57.517 -14.687  0.00  0.00     0.078 H 
ATOM     38  C21 MOL d         -44.462 -59.286 -12.450  0.00  0.00     0.098 C 
ATOM     39  H15 MOL d         -43.095 -60.105 -13.726  0.00  0.00     0.279 HD
ATOM     40  C22 MOL d         -43.606 -58.683 -11.338  0.00  0.00     0.018 C 
ATOM     41  H16 MOL d         -44.740 -60.314 -12.171  0.00  0.00     0.078 H 
ATOM     42  H17 MOL d         -45.373 -58.680 -12.571  0.00  0.00     0.078 H 
ATOM     43  H18 MOL d         -44.180 -58.575 -10.407  0.00  0.00     0.066 H 
ATOM     44  H19 MOL d         -42.711 -59.292 -11.149  0.00  0.00     0.066 H 
BRANCH  35  45
ATOM     45  C23 MOL d         -44.707 -59.522 -14.823  0.00  0.00     0.066 C 
ATOM     46  H20 MOL d         -44.396 -60.373 -15.446  0.00  0.00     0.068 H 
ATOM     47  H21 MOL d         -44.765 -58.616 -15.443  0.00  0.00     0.068 H 
ATOM     48  H22 MOL d         -45.695 -59.730 -14.385  0.00  0.00     0.068 H 
ENDBRANCH  35  45
ENDBRANCH  24  30
ENDBRANCH  17  20
ENDBRANCH   3  16
BRANCH   9  49
ATOM     49  C20 MOL d         -41.850 -46.777  -8.620  0.00  0.00     0.140 C 
ATOM     50  H27 MOL d         -40.956 -47.302  -8.252  0.00  0.00     0.106 H 
BRANCH  49  51
ATOM     51  C29 MOL d         -42.393 -47.518  -9.800  0.00  0.00    -0.020 A 
ATOM     52  C27 MOL d         -41.542 -48.373 -10.542  0.00  0.00    -0.074 A 
ATOM     53  C28 MOL d         -42.045 -49.092 -11.625  0.00  0.00    -0.082 A 
ATOM     54  H23 MOL d         -40.498 -48.468 -10.267  0.00  0.00     0.084 H 
ATOM     55  C31 MOL d         -43.403 -48.941 -11.971  0.00  0.00    -0.083 A 
ATOM     56  H24 MOL d         -41.403 -49.756 -12.191  0.00  0.00     0.083 H 
ATOM     57  C35 MOL d         -44.248 -48.094 -11.248  0.00  0.00    -0.082 A 
ATOM     58  H25 MOL d         -43.800 -49.494 -12.816  0.00  0.00     0.083 H 
ATOM     59  C33 MOL d         -43.746 -47.377 -10.174  0.00  0.00    -0.074 A 
ATOM     60  H28 MOL d         -45.292 -47.998 -11.526  0.00  0.00     0.083 H 
ATOM     61  H26 MOL d         -44.393 -46.708  -9.619  0.00  0.00     0.084 H 
ENDBRANCH  49  51
BRANCH  49  62
ATOM     62  O34 MOL d         -41.496 -45.424  -8.916  0.00  0.00    -0.377 OA
BRANCH  62  63
ATOM     63  C36 MOL d         -40.079 -45.163  -8.905  0.00  0.00     0.005 C 
ATOM     64  H29 MOL d         -39.530 -46.114  -8.961  0.00  0.00     0.066 H 
ATOM     65  H30 MOL d         -39.809 -44.639  -7.976  0.00  0.00     0.066 H 
ATOM     66  H31 MOL d         -39.814 -44.536  -9.769  0.00  0.00     0.066 H 
ENDBRANCH  62  63
ENDBRANCH  49  62
ENDBRANCH   9  49
TORSDOF 8
ENDMDL
MODEL 5
REMARK VINA RESULT:      -6.5      2.174      4.025
REMARK  8 active torsions:
REMARK  status: ('A' for Active; 'I' for Inactive)
REMARK       I    between atoms: C25_25  and  N1_1 
REMARK    1  A    between atoms: C3_3  and  N5_5 
REMARK       I    between atoms: N5_5  and  C6_6 
REMARK    2  A    between atoms: C6_6  and  C7_7 
REMARK    3  A    between atoms: C24_24  and  N17_17 
REMARK    4  A    between atoms: N20_20  and  C23_23 
REMARK    5  A    between atoms: C20_32  and  C25_25 
REMARK    6  A    between atoms: C29_29  and  C20_32 
REMARK    7  A    between atoms: C20_32  and  O34_35 
REMARK    8  A    between atoms: O34_35  and  C36_34 
ROOT
ATOM      1  N1  MOL d         -42.324 -46.327  -7.774  0.00  0.00    -0.340 N 
ATOM      2  N2  MOL d         -45.238 -48.278  -6.869  0.00  0.00    -0.278 N 
ATOM      3  C3  MOL d         -44.153 -49.445  -8.432  0.00  0.00     0.160 A 
ATOM      4  N4  MOL d         -45.267 -49.445  -7.678  0.00  0.00    -0.156 NA
ATOM      5  C13 MOL d         -44.098 -47.620  -7.163  0.00  0.00     0.057 A 
ATOM      6  C14 MOL d         -43.379 -48.331  -8.173  0.00  0.00     0.033 A 
ATOM      7  C15 MOL d         -42.130 -47.596  -8.548  0.00  0.00     0.027 C 
ATOM      8  C16 MOL d         -43.415 -46.354  -6.777  0.00  0.00     0.038 C 
ATOM      9  C25 MOL d         -41.590 -45.214  -7.926  0.00  0.00     0.254 C 
ATOM     10  O26 MOL d         -41.792 -44.199  -7.262  0.00  0.00    -0.270 OA
ATOM     11  H1  MOL d         -45.953 -47.989  -6.186  0.00  0.00     0.189 HD
ATOM     12  H7  MOL d         -41.227 -48.136  -8.225  0.00  0.00     0.072 H 
ATOM     13  H8  MOL d         -42.077 -47.409  -9.630  0.00  0.00     0.072 H 
ATOM     14  H9  MOL d         -44.082 -45.485  -6.879  0.00  0.00     0.074 H 
ATOM     15  H10 MOL d         -43.027 -46.399  -5.749  0.00  0.00     0.074 H 
ENDROOT
BRANCH   3  16
ATOM     16  N5  MOL d         -43.941 -50.470  -9.329  0.00  0.00    -0.305 N 
ATOM     17  C6  MOL d         -44.139 -50.415 -10.636  0.00  0.00     0.257 C 
ATOM     18  O8  MOL d         -44.512 -49.423 -11.234  0.00  0.00    -0.267 OA
ATOM     19  H2  MOL d         -43.608 -51.336  -8.957  0.00  0.00     0.170 HD
BRANCH  17  20
ATOM     20  C7  MOL d         -43.867 -51.641 -11.419  0.00  0.00     0.032 A 
ATOM     21  C9  MOL d         -42.714 -51.662 -12.188  0.00  0.00    -0.066 A 
ATOM     22  C10 MOL d         -42.381 -52.772 -12.936  0.00  0.00    -0.056 A 
ATOM     23  H3  MOL d         -42.065 -50.794 -12.202  0.00  0.00     0.085 H 
ATOM     24  C24 MOL d         -43.228 -53.858 -12.910  0.00  0.00     0.030 A 
ATOM     25  H4  MOL d         -41.474 -52.790 -13.530  0.00  0.00     0.086 H 
ATOM     26  C11 MOL d         -44.402 -53.834 -12.134  0.00  0.00    -0.056 A 
ATOM     27  C12 MOL d         -44.731 -52.725 -11.376  0.00  0.00    -0.066 A 
ATOM     28  H5  MOL d         -45.058 -54.696 -12.132  0.00  0.00     0.086 H 
ATOM     29  H6  MOL d         -45.630 -52.704 -10.771  0.00  0.00     0.085 H 
BRANCH  24  30
ATOM     30  N17 MOL d         -42.891 -54.992 -13.669  0.00  0.00    -0.378 N 
ATOM     31  C18 MOL d         -42.728 -54.940 -14.932  0.00  0.00     0.018 C 
ATOM     32  C19 MOL d         -43.317 -55.891 -15.672  0.00  0.00     0.098 C 
ATOM     33  H11 MOL d         -41.647 -54.993 -15.127  0.00  0.00     0.066 H 
ATOM     34  H12 MOL d         -43.114 -53.968 -15.275  0.00  0.00     0.066 H 
ATOM     35  N20 MOL d         -43.712 -57.152 -15.098  0.00  0.00    -0.072 N 
ATOM     36  H13 MOL d         -42.619 -56.126 -16.489  0.00  0.00     0.078 H 
ATOM     37  H14 MOL d         -44.230 -55.439 -16.088  0.00  0.00     0.078 H 
ATOM     38  C21 MOL d         -43.848 -57.113 -13.616  0.00  0.00     0.098 C 
ATOM     39  H15 MOL d         -43.000 -57.827 -15.330  0.00  0.00     0.279 HD
ATOM     40  C22 MOL d         -42.738 -56.278 -12.981  0.00  0.00     0.018 C 
ATOM     41  H16 MOL d         -43.794 -58.139 -13.223  0.00  0.00     0.078 H 
ATOM     42  H17 MOL d         -44.822 -56.671 -13.356  0.00  0.00     0.078 H 
ATOM     43  H18 MOL d         -42.888 -56.171 -11.897  0.00  0.00     0.066 H 
ATOM     44  H19 MOL d         -41.749 -56.718 -13.173  0.00  0.00     0.066 H 
BRANCH  35  45
ATOM     45  C23 MOL d         -44.997 -57.612 -15.660  0.00  0.00     0.066 C 
ATOM     46  H20 MOL d         -44.968 -57.533 -16.757  0.00  0.00     0.068 H 
ATOM     47  H21 MOL d         -45.813 -56.987 -15.269  0.00  0.00     0.068 H 
ATOM     48  H22 MOL d         -45.169 -58.660 -15.372  0.00  0.00     0.068 H 
ENDBRANCH  35  45
ENDBRANCH  24  30
ENDBRANCH  17  20
ENDBRANCH   3  16
BRANCH   9  49
ATOM     49  C20 MOL d         -40.497 -45.206  -8.951  0.00  0.00     0.140 C 
ATOM     50  H27 MOL d         -39.626 -45.758  -8.569  0.00  0.00     0.106 H 
BRANCH  49  51
ATOM     51  C29 MOL d         -41.012 -45.900 -10.171  0.00  0.00    -0.020 A 
ATOM     52  C27 MOL d         -40.272 -46.967 -10.734  0.00  0.00    -0.074 A 
ATOM     53  C28 MOL d         -40.757 -47.641 -11.854  0.00  0.00    -0.082 A 
ATOM     54  H23 MOL d         -39.325 -47.260 -10.294  0.00  0.00     0.084 H 
ATOM     55  C31 MOL d         -41.984 -47.233 -12.416  0.00  0.00    -0.083 A 
ATOM     56  H24 MOL d         -40.201 -48.466 -12.284  0.00  0.00     0.083 H 
ATOM     57  C35 MOL d         -42.718 -46.176 -11.870  0.00  0.00    -0.082 A 
ATOM     58  H25 MOL d         -42.365 -47.750 -13.290  0.00  0.00     0.083 H 
ATOM     59  C33 MOL d         -42.232 -45.505 -10.759  0.00  0.00    -0.074 A 
ATOM     60  H28 MOL d         -43.663 -45.883 -12.313  0.00  0.00     0.083 H 
ATOM     61  H26 MOL d         -42.790 -44.675 -10.341  0.00  0.00     0.084 H 
ENDBRANCH  49  51
BRANCH  49  62
ATOM     62  O34 MOL d         -40.111 -43.851  -9.192  0.00  0.00    -0.377 OA
BRANCH  62  63
ATOM     63  C36 MOL d         -38.965 -43.415  -8.433  0.00  0.00     0.005 C 
ATOM     64  H29 MOL d         -39.154 -43.571  -7.361  0.00  0.00     0.066 H 
ATOM     65  H30 MOL d         -38.786 -42.346  -8.621  0.00  0.00     0.066 H 
ATOM     66  H31 MOL d         -38.081 -43.994  -8.737  0.00  0.00     0.066 H 
ENDBRANCH  62  63
ENDBRANCH  49  62
ENDBRANCH   9  49
TORSDOF 8
ENDMDL
MODEL 6
REMARK VINA RESULT:      -6.3      3.414     10.698
REMARK  8 active torsions:
REMARK  status: ('A' for Active; 'I' for Inactive)
REMARK       I    between atoms: C25_25  and  N1_1 
REMARK    1  A    between atoms: C3_3  and  N5_5 
REMARK       I    between atoms: N5_5  and  C6_6 
REMARK    2  A    between atoms: C6_6  and  C7_7 
REMARK    3  A    between atoms: C24_24  and  N17_17 
REMARK    4  A    between atoms: N20_20  and  C23_23 
REMARK    5  A    between atoms: C20_32  and  C25_25 
REMARK    6  A    between atoms: C29_29  and  C20_32 
REMARK    7  A    between atoms: C20_32  and  O34_35 
REMARK    8  A    between atoms: O34_35  and  C36_34 
ROOT
ATOM      1  N1  MOL d         -45.140 -57.319 -11.128  0.00  0.00    -0.340 N 
ATOM      2  N2  MOL d         -46.049 -55.337  -8.236  0.00  0.00    -0.278 N 
ATOM      3  C3  MOL d         -44.867 -53.999  -9.577  0.00  0.00     0.160 A 
ATOM      4  N4  MOL d         -45.474 -54.045  -8.376  0.00  0.00    -0.156 NA
ATOM      5  C13 MOL d         -45.772 -56.019  -9.365  0.00  0.00     0.057 A 
ATOM      6  C14 MOL d         -45.003 -55.198 -10.247  0.00  0.00     0.033 A 
ATOM      7  C15 MOL d         -44.645 -55.951 -11.490  0.00  0.00     0.027 C 
ATOM      8  C16 MOL d         -45.992 -57.384  -9.920  0.00  0.00     0.038 C 
ATOM      9  C25 MOL d         -44.869 -58.441 -11.812  0.00  0.00     0.254 C 
ATOM     10  O26 MOL d         -45.304 -59.539 -11.469  0.00  0.00    -0.270 OA
ATOM     11  H1  MOL d         -46.578 -55.686  -7.424  0.00  0.00     0.189 HD
ATOM     12  H7  MOL d         -45.165 -55.550 -12.373  0.00  0.00     0.072 H 
ATOM     13  H8  MOL d         -43.560 -55.946 -11.671  0.00  0.00     0.072 H 
ATOM     14  H9  MOL d         -45.652 -58.165  -9.225  0.00  0.00     0.074 H 
ATOM     15  H10 MOL d         -47.048 -57.554 -10.176  0.00  0.00     0.074 H 
ENDROOT
BRANCH   3  16
ATOM     16  N5  MOL d         -44.208 -52.851  -9.959  0.00  0.00    -0.305 N 
ATOM     17  C6  MOL d         -44.772 -51.731 -10.380  0.00  0.00     0.257 C 
ATOM     18  O8  MOL d         -45.974 -51.555 -10.460  0.00  0.00    -0.267 OA
ATOM     19  H2  MOL d         -43.209 -52.866  -9.913  0.00  0.00     0.170 HD
BRANCH  17  20
ATOM     20  C7  MOL d         -43.876 -50.617 -10.761  0.00  0.00     0.032 A 
ATOM     21  C9  MOL d         -44.227 -49.345 -10.336  0.00  0.00    -0.066 A 
ATOM     22  C10 MOL d         -43.438 -48.254 -10.638  0.00  0.00    -0.056 A 
ATOM     23  H3  MOL d         -45.134 -49.205  -9.760  0.00  0.00     0.085 H 
ATOM     24  C24 MOL d         -42.296 -48.457 -11.380  0.00  0.00     0.030 A 
ATOM     25  H4  MOL d         -43.709 -47.261 -10.297  0.00  0.00     0.086 H 
ATOM     26  C11 MOL d         -41.944 -49.748 -11.817  0.00  0.00    -0.056 A 
ATOM     27  C12 MOL d         -42.729 -50.843 -11.507  0.00  0.00    -0.066 A 
ATOM     28  H5  MOL d         -41.044 -49.885 -12.406  0.00  0.00     0.086 H 
ATOM     29  H6  MOL d         -42.458 -51.840 -11.834  0.00  0.00     0.085 H 
BRANCH  24  30
ATOM     30  N17 MOL d         -41.488 -47.349 -11.687  0.00  0.00    -0.378 N 
ATOM     31  C18 MOL d         -40.235 -47.459 -11.896  0.00  0.00     0.018 C 
ATOM     32  C19 MOL d         -39.426 -46.580 -11.287  0.00  0.00     0.098 C 
ATOM     33  H11 MOL d         -40.072 -47.361 -12.979  0.00  0.00     0.066 H 
ATOM     34  H12 MOL d         -39.934 -48.465 -11.570  0.00  0.00     0.066 H 
ATOM     35  N20 MOL d         -39.918 -45.311 -10.810  0.00  0.00    -0.072 N 
ATOM     36  H13 MOL d         -38.621 -46.352 -12.000  0.00  0.00     0.078 H 
ATOM     37  H14 MOL d         -39.006 -47.098 -10.412  0.00  0.00     0.078 H 
ATOM     38  C21 MOL d         -41.395 -45.280 -10.625  0.00  0.00     0.098 C 
ATOM     39  H15 MOL d         -39.672 -44.615 -11.496  0.00  0.00     0.279 HD
ATOM     40  C22 MOL d         -42.109 -46.022 -11.753  0.00  0.00     0.018 C 
ATOM     41  H16 MOL d         -41.733 -44.233 -10.615  0.00  0.00     0.078 H 
ATOM     42  H17 MOL d         -41.647 -45.756  -9.666  0.00  0.00     0.078 H 
ATOM     43  H18 MOL d         -43.192 -46.079 -11.571  0.00  0.00     0.066 H 
ATOM     44  H19 MOL d         -41.925 -45.542 -12.725  0.00  0.00     0.066 H 
BRANCH  35  45
ATOM     45  C23 MOL d         -39.291 -44.948  -9.525  0.00  0.00     0.066 C 
ATOM     46  H20 MOL d         -38.198 -44.922  -9.643  0.00  0.00     0.068 H 
ATOM     47  H21 MOL d         -39.560 -45.693  -8.762  0.00  0.00     0.068 H 
ATOM     48  H22 MOL d         -39.649 -43.956  -9.210  0.00  0.00     0.068 H 
ENDBRANCH  35  45
ENDBRANCH  24  30
ENDBRANCH  17  20
ENDBRANCH   3  16
BRANCH   9  49
ATOM     49  C20 MOL d         -43.995 -58.352 -13.025  0.00  0.00     0.140 C 
ATOM     50  H27 MOL d         -43.949 -59.332 -13.522  0.00  0.00     0.106 H 
BRANCH  49  51
ATOM     51  C29 MOL d         -44.614 -57.363 -13.961  0.00  0.00    -0.020 A 
ATOM     52  C27 MOL d         -45.981 -57.486 -14.304  0.00  0.00    -0.074 A 
ATOM     53  C28 MOL d         -46.576 -56.552 -15.152  0.00  0.00    -0.082 A 
ATOM     54  H23 MOL d         -46.567 -58.307 -13.908  0.00  0.00     0.084 H 
ATOM     55  C31 MOL d         -45.790 -55.501 -15.666  0.00  0.00    -0.083 A 
ATOM     56  H24 MOL d         -47.625 -56.633 -15.411  0.00  0.00     0.083 H 
ATOM     57  C35 MOL d         -44.436 -55.377 -15.336  0.00  0.00    -0.082 A 
ATOM     58  H25 MOL d         -46.244 -54.774 -16.329  0.00  0.00     0.083 H 
ATOM     59  C33 MOL d         -43.846 -56.307 -14.496  0.00  0.00    -0.074 A 
ATOM     60  H28 MOL d         -43.851 -54.556 -15.736  0.00  0.00     0.083 H 
ATOM     61  H26 MOL d         -42.794 -56.224 -14.250  0.00  0.00     0.084 H 
ENDBRANCH  49  51
BRANCH  49  62
ATOM     62  O34 MOL d         -42.677 -57.989 -12.608  0.00  0.00    -0.377 OA
BRANCH  62  63
ATOM     63  C36 MOL d         -41.912 -59.071 -12.042  0.00  0.00     0.005 C 
ATOM     64  H29 MOL d         -42.594 -59.859 -11.691  0.00  0.00     0.066 H 
ATOM     65  H30 MOL d         -41.318 -58.696 -11.194  0.00  0.00     0.066 H 
ATOM     66  H31 MOL d         -41.237 -59.484 -12.806  0.00  0.00     0.066 H 
ENDBRANCH  62  63
ENDBRANCH  49  62
ENDBRANCH   9  49
TORSDOF 8
ENDMDL
MODEL 7
REMARK VINA RESULT:      -6.2      3.345     10.139
REMARK  8 active torsions:
REMARK  status: ('A' for Active; 'I' for Inactive)
REMARK       I    between atoms: C25_25  and  N1_1 
REMARK    1  A    between atoms: C3_3  and  N5_5 
REMARK       I    between atoms: N5_5  and  C6_6 
REMARK    2  A    between atoms: C6_6  and  C7_7 
REMARK    3  A    between atoms: C24_24  and  N17_17 
REMARK    4  A    between atoms: N20_20  and  C23_23 
REMARK    5  A    between atoms: C20_32  and  C25_25 
REMARK    6  A    between atoms: C29_29  and  C20_32 
REMARK    7  A    between atoms: C20_32  and  O34_35 
REMARK    8  A    between atoms: O34_35  and  C36_34 
ROOT
ATOM      1  N1  MOL d         -43.909 -57.296 -12.704  0.00  0.00    -0.340 N 
ATOM      2  N2  MOL d         -42.473 -55.131 -15.226  0.00  0.00    -0.278 N 
ATOM      3  C3  MOL d         -42.649 -53.909 -13.366  0.00  0.00     0.160 A 
ATOM      4  N4  MOL d         -42.296 -53.839 -14.662  0.00  0.00    -0.156 NA
ATOM      5  C13 MOL d         -42.921 -55.935 -14.241  0.00  0.00     0.057 A 
ATOM      6  C14 MOL d         -43.060 -55.185 -13.032  0.00  0.00     0.033 A 
ATOM      7  C15 MOL d         -43.600 -56.047 -11.935  0.00  0.00     0.027 C 
ATOM      8  C16 MOL d         -43.357 -57.350 -14.074  0.00  0.00     0.038 C 
ATOM      9  C25 MOL d         -44.627 -58.329 -12.235  0.00  0.00     0.254 C 
ATOM     10  O26 MOL d         -44.850 -59.332 -12.911  0.00  0.00    -0.270 OA
ATOM     11  H1  MOL d         -42.293 -55.402 -16.203  0.00  0.00     0.189 HD
ATOM     12  H7  MOL d         -42.848 -56.227 -11.152  0.00  0.00     0.072 H 
ATOM     13  H8  MOL d         -44.503 -55.613 -11.482  0.00  0.00     0.072 H 
ATOM     14  H9  MOL d         -44.124 -57.628 -14.811  0.00  0.00     0.074 H 
ATOM     15  H10 MOL d         -42.510 -58.047 -14.145  0.00  0.00     0.074 H 
ENDROOT
BRANCH   3  16
ATOM     16  N5  MOL d         -42.588 -52.776 -12.585  0.00  0.00    -0.305 N 
ATOM     17  C6  MOL d         -43.620 -52.082 -12.135  0.00  0.00     0.257 C 
ATOM     18  O8  MOL d         -44.784 -52.377 -12.331  0.00  0.00    -0.267 OA
ATOM     19  H2  MOL d         -41.677 -52.447 -12.335  0.00  0.00     0.170 HD
BRANCH  17  20
ATOM     20  C7  MOL d         -43.332 -50.879 -11.323  0.00  0.00     0.032 A 
ATOM     21  C9  MOL d         -43.421 -51.004  -9.945  0.00  0.00    -0.066 A 
ATOM     22  C10 MOL d         -43.155 -49.934  -9.118  0.00  0.00    -0.056 A 
ATOM     23  H3  MOL d         -43.705 -51.957  -9.513  0.00  0.00     0.085 H 
ATOM     24  C24 MOL d         -42.807 -48.731  -9.692  0.00  0.00     0.030 A 
ATOM     25  H4  MOL d         -43.217 -50.036  -8.040  0.00  0.00     0.086 H 
ATOM     26  C11 MOL d         -42.724 -48.602 -11.092  0.00  0.00    -0.056 A 
ATOM     27  C12 MOL d         -42.980 -49.678 -11.922  0.00  0.00    -0.066 A 
ATOM     28  H5  MOL d         -42.454 -47.646 -11.524  0.00  0.00     0.086 H 
ATOM     29  H6  MOL d         -42.910 -49.586 -13.000  0.00  0.00     0.085 H 
BRANCH  24  30
ATOM     30  N17 MOL d         -42.533 -47.639  -8.852  0.00  0.00    -0.378 N 
ATOM     31  C18 MOL d         -42.529 -47.743  -7.581  0.00  0.00     0.018 C 
ATOM     32  C19 MOL d         -43.177 -46.800  -6.881  0.00  0.00     0.098 C 
ATOM     33  H11 MOL d         -41.480 -47.735  -7.253  0.00  0.00     0.066 H 
ATOM     34  H12 MOL d         -42.985 -48.712  -7.329  0.00  0.00     0.066 H 
ATOM     35  N20 MOL d         -43.459 -45.505  -7.447  0.00  0.00    -0.072 N 
ATOM     36  H13 MOL d         -42.578 -46.620  -5.976  0.00  0.00     0.078 H 
ATOM     37  H14 MOL d         -44.147 -47.234  -6.599  0.00  0.00     0.078 H 
ATOM     38  C21 MOL d         -43.411 -45.485  -8.935  0.00  0.00     0.098 C 
ATOM     39  H15 MOL d         -42.760 -44.865  -7.102  0.00  0.00     0.279 HD
ATOM     40  C22 MOL d         -42.256 -46.334  -9.462  0.00  0.00     0.018 C 
ATOM     41  H16 MOL d         -43.277 -44.447  -9.276  0.00  0.00     0.078 H 
ATOM     42  H17 MOL d         -44.358 -45.882  -9.330  0.00  0.00     0.078 H 
ATOM     43  H18 MOL d         -42.274 -46.395 -10.560  0.00  0.00     0.066 H 
ATOM     44  H19 MOL d         -41.286 -45.936  -9.133  0.00  0.00     0.066 H 
BRANCH  35  45
ATOM     45  C23 MOL d         -44.789 -45.021  -7.029  0.00  0.00     0.066 C 
ATOM     46  H20 MOL d         -45.409 -45.874  -6.717  0.00  0.00     0.068 H 
ATOM     47  H21 MOL d         -45.272 -44.505  -7.871  0.00  0.00     0.068 H 
ATOM     48  H22 MOL d         -44.676 -44.322  -6.187  0.00  0.00     0.068 H 
ENDBRANCH  35  45
ENDBRANCH  24  30
ENDBRANCH  17  20
ENDBRANCH   3  16
BRANCH   9  49
ATOM     49  C20 MOL d         -45.186 -58.248 -10.848  0.00  0.00     0.140 C 
ATOM     50  H27 MOL d         -45.900 -59.068 -10.686  0.00  0.00     0.106 H 
BRANCH  49  51
ATOM     51  C29 MOL d         -44.049 -58.400  -9.889  0.00  0.00    -0.020 A 
ATOM     52  C27 MOL d         -43.060 -59.383 -10.128  0.00  0.00    -0.074 A 
ATOM     53  C28 MOL d         -41.979 -59.514  -9.257  0.00  0.00    -0.082 A 
ATOM     54  H23 MOL d         -43.142 -60.035 -10.990  0.00  0.00     0.084 H 
ATOM     55  C31 MOL d         -41.901 -58.664  -8.135  0.00  0.00    -0.083 A 
ATOM     56  H24 MOL d         -41.211 -60.257  -9.439  0.00  0.00     0.083 H 
ATOM     57  C35 MOL d         -42.879 -57.695  -7.888  0.00  0.00    -0.082 A 
ATOM     58  H25 MOL d         -41.066 -58.763  -7.451  0.00  0.00     0.083 H 
ATOM     59  C33 MOL d         -43.953 -57.568  -8.754  0.00  0.00    -0.074 A 
ATOM     60  H28 MOL d         -42.796 -57.045  -7.024  0.00  0.00     0.083 H 
ATOM     61  H26 MOL d         -44.721 -56.829  -8.558  0.00  0.00     0.084 H 
ENDBRANCH  49  51
BRANCH  49  62
ATOM     62  O34 MOL d         -45.879 -57.005 -10.711  0.00  0.00    -0.377 OA
BRANCH  62  63
ATOM     63  C36 MOL d         -46.597 -56.857  -9.469  0.00  0.00     0.005 C 
ATOM     64  H29 MOL d         -47.554 -57.394  -9.533  0.00  0.00     0.066 H 
ATOM     65  H30 MOL d         -46.787 -55.790  -9.280  0.00  0.00     0.066 H 
ATOM     66  H31 MOL d         -45.997 -57.273  -8.647  0.00  0.00     0.066 H 
ENDBRANCH  62  63
ENDBRANCH  49  62
ENDBRANCH   9  49
TORSDOF 8
ENDMDL
MODEL 8
REMARK VINA RESULT:      -6.0      3.313      5.088
REMARK  8 active torsions:
REMARK  status: ('A' for Active; 'I' for Inactive)
REMARK       I    between atoms: C25_25  and  N1_1 
REMARK    1  A    between atoms: C3_3  and  N5_5 
REMARK       I    between atoms: N5_5  and  C6_6 
REMARK    2  A    between atoms: C6_6  and  C7_7 
REMARK    3  A    between atoms: C24_24  and  N17_17 
REMARK    4  A    between atoms: N20_20  and  C23_23 
REMARK    5  A    between atoms: C20_32  and  C25_25 
REMARK    6  A    between atoms: C29_29  and  C20_32 
REMARK    7  A    between atoms: C20_32  and  O34_35 
REMARK    8  A    between atoms: O34_35  and  C36_34 
ROOT
ATOM      1  N1  MOL d         -42.711 -46.956  -8.117  0.00  0.00    -0.340 N 
ATOM      2  N2  MOL d         -45.463 -47.818  -5.927  0.00  0.00    -0.278 N 
ATOM      3  C3  MOL d         -44.884 -49.695  -6.988  0.00  0.00     0.160 A 
ATOM      4  N4  MOL d         -45.780 -49.190  -6.120  0.00  0.00    -0.156 NA
ATOM      5  C13 MOL d         -44.380 -47.551  -6.684  0.00  0.00     0.057 A 
ATOM      6  C14 MOL d         -43.985 -48.728  -7.392  0.00  0.00     0.033 A 
ATOM      7  C15 MOL d         -42.811 -48.444  -8.275  0.00  0.00     0.027 C 
ATOM      8  C16 MOL d         -43.527 -46.379  -7.027  0.00  0.00     0.038 C 
ATOM      9  C25 MOL d         -41.950 -46.152  -8.875  0.00  0.00     0.254 C 
ATOM     10  O26 MOL d         -41.905 -44.935  -8.700  0.00  0.00    -0.270 OA
ATOM     11  H1  MOL d         -45.966 -47.153  -5.322  0.00  0.00     0.189 HD
ATOM     12  H7  MOL d         -41.902 -48.953  -7.920  0.00  0.00     0.072 H 
ATOM     13  H8  MOL d         -43.007 -48.730  -9.318  0.00  0.00     0.072 H 
ATOM     14  H9  MOL d         -44.127 -45.527  -7.377  0.00  0.00     0.074 H 
ATOM     15  H10 MOL d         -42.906 -46.065  -6.176  0.00  0.00     0.074 H 
ENDROOT
BRANCH   3  16
ATOM     16  N5  MOL d         -44.978 -51.017  -7.365  0.00  0.00    -0.305 N 
ATOM     17  C6  MOL d         -45.482 -51.470  -8.501  0.00  0.00     0.257 C 
ATOM     18  O8  MOL d         -45.912 -50.762  -9.393  0.00  0.00    -0.267 OA
ATOM     19  H2  MOL d         -44.633 -51.697  -6.719  0.00  0.00     0.170 HD
BRANCH  17  20
ATOM     20  C7  MOL d         -45.505 -52.936  -8.700  0.00  0.00     0.032 A 
ATOM     21  C9  MOL d         -44.396 -53.514  -9.298  0.00  0.00    -0.066 A 
ATOM     22  C10 MOL d         -44.333 -54.876  -9.507  0.00  0.00    -0.056 A 
ATOM     23  H3  MOL d         -43.567 -52.887  -9.605  0.00  0.00     0.085 H 
ATOM     24  C24 MOL d         -45.404 -55.649  -9.118  0.00  0.00     0.030 A 
ATOM     25  H4  MOL d         -43.461 -55.327  -9.967  0.00  0.00     0.086 H 
ATOM     26  C11 MOL d         -46.534 -55.061  -8.517  0.00  0.00    -0.056 A 
ATOM     27  C12 MOL d         -46.593 -53.697  -8.298  0.00  0.00    -0.066 A 
ATOM     28  H5  MOL d         -47.368 -55.687  -8.224  0.00  0.00     0.086 H 
ATOM     29  H6  MOL d         -47.457 -53.240  -7.829  0.00  0.00     0.085 H 
BRANCH  24  30
ATOM     30  N17 MOL d         -45.343 -57.038  -9.327  0.00  0.00    -0.378 N 
ATOM     31  C18 MOL d         -44.693 -57.813  -8.551  0.00  0.00     0.018 C 
ATOM     32  C19 MOL d         -43.895 -58.731  -9.117  0.00  0.00     0.098 C 
ATOM     33  H11 MOL d         -45.428 -58.351  -7.934  0.00  0.00     0.066 H 
ATOM     34  H12 MOL d         -44.064 -57.183  -7.905  0.00  0.00     0.066 H 
ATOM     35  N20 MOL d         -44.089 -59.154 -10.481  0.00  0.00    -0.072 N 
ATOM     36  H13 MOL d         -43.973 -59.635  -8.497  0.00  0.00     0.078 H 
ATOM     37  H14 MOL d         -42.873 -58.331  -9.058  0.00  0.00     0.078 H 
ATOM     38  C21 MOL d         -44.882 -58.192 -11.295  0.00  0.00     0.098 C 
ATOM     39  H15 MOL d         -44.587 -60.030 -10.458  0.00  0.00     0.279 HD
ATOM     40  C22 MOL d         -46.037 -57.606 -10.486  0.00  0.00     0.018 C 
ATOM     41  H16 MOL d         -45.287 -58.714 -12.174  0.00  0.00     0.078 H 
ATOM     42  H17 MOL d         -44.223 -57.374 -11.625  0.00  0.00     0.078 H 
ATOM     43  H18 MOL d         -46.568 -56.828 -11.054  0.00  0.00     0.066 H 
ATOM     44  H19 MOL d         -46.748 -58.388 -10.183  0.00  0.00     0.066 H 
BRANCH  35  45
ATOM     45  C23 MOL d         -42.796 -59.366 -11.160  0.00  0.00     0.066 C 
ATOM     46  H20 MOL d         -42.187 -58.453 -11.083  0.00  0.00     0.068 H 
ATOM     47  H21 MOL d         -42.972 -59.600 -12.220  0.00  0.00     0.068 H 
ATOM     48  H22 MOL d         -42.264 -60.203 -10.683  0.00  0.00     0.068 H 
ENDBRANCH  35  45
ENDBRANCH  24  30
ENDBRANCH  17  20
ENDBRANCH   3  16
BRANCH   9  49
ATOM     49  C20 MOL d         -41.141 -46.758  -9.980  0.00  0.00     0.140 C 
ATOM     50  H27 MOL d         -40.254 -47.256  -9.562  0.00  0.00     0.106 H 
BRANCH  49  51
ATOM     51  C29 MOL d         -41.993 -47.781 -10.661  0.00  0.00    -0.020 A 
ATOM     52  C27 MOL d         -43.384 -47.557 -10.793  0.00  0.00    -0.074 A 
ATOM     53  C28 MOL d         -44.183 -48.489 -11.452  0.00  0.00    -0.082 A 
ATOM     54  H23 MOL d         -43.829 -46.659 -10.380  0.00  0.00     0.084 H 
ATOM     55  C31 MOL d         -43.584 -49.656 -11.969  0.00  0.00    -0.083 A 
ATOM     56  H24 MOL d         -45.248 -48.321 -11.566  0.00  0.00     0.083 H 
ATOM     57  C35 MOL d         -42.211 -49.888 -11.837  0.00  0.00    -0.082 A 
ATOM     58  H25 MOL d         -44.200 -50.388 -12.478  0.00  0.00     0.083 H 
ATOM     59  C33 MOL d         -41.419 -48.961 -11.178  0.00  0.00    -0.074 A 
ATOM     60  H28 MOL d         -41.769 -50.788 -12.248  0.00  0.00     0.083 H 
ATOM     61  H26 MOL d         -40.357 -49.144 -11.060  0.00  0.00     0.084 H 
ENDBRANCH  49  51
BRANCH  49  62
ATOM     62  O34 MOL d         -40.708 -45.711 -10.852  0.00  0.00    -0.377 OA
BRANCH  62  63
ATOM     63  C36 MOL d         -39.440 -45.126 -10.498  0.00  0.00     0.005 C 
ATOM     64  H29 MOL d         -38.937 -44.762 -11.406  0.00  0.00     0.066 H 
ATOM     65  H30 MOL d         -38.809 -45.884 -10.010  0.00  0.00     0.066 H 
ATOM     66  H31 MOL d         -39.603 -44.286  -9.807  0.00  0.00     0.066 H 
ENDBRANCH  62  63
ENDBRANCH  49  62
ENDBRANCH   9  49
TORSDOF 8
ENDMDL
MODEL 9
REMARK VINA RESULT:      -5.4      2.304      4.107
REMARK  8 active torsions:
REMARK  status: ('A' for Active; 'I' for Inactive)
REMARK       I    between atoms: C25_25  and  N1_1 
REMARK    1  A    between atoms: C3_3  and  N5_5 
REMARK       I    between atoms: N5_5  and  C6_6 
REMARK    2  A    between atoms: C6_6  and  C7_7 
REMARK    3  A    between atoms: C24_24  and  N17_17 
REMARK    4  A    between atoms: N20_20  and  C23_23 
REMARK    5  A    between atoms: C20_32  and  C25_25 
REMARK    6  A    between atoms: C29_29  and  C20_32 
REMARK    7  A    between atoms: C20_32  and  O34_35 
REMARK    8  A    between atoms: O34_35  and  C36_34 
ROOT
ATOM      1  N1  MOL d         -41.657 -46.653  -8.696  0.00  0.00    -0.340 N 
ATOM      2  N2  MOL d         -42.478 -48.856  -5.941  0.00  0.00    -0.278 N 
ATOM      3  C3  MOL d         -43.134 -49.897  -7.805  0.00  0.00     0.160 A 
ATOM      4  N4  MOL d         -43.132 -50.005  -6.463  0.00  0.00    -0.156 NA
ATOM      5  C13 MOL d         -42.104 -48.101  -6.994  0.00  0.00     0.057 A 
ATOM      6  C14 MOL d         -42.519 -48.729  -8.209  0.00  0.00     0.033 A 
ATOM      7  C15 MOL d         -42.153 -47.885  -9.390  0.00  0.00     0.027 C 
ATOM      8  C16 MOL d         -41.439 -46.791  -7.240  0.00  0.00     0.038 C 
ATOM      9  C25 MOL d         -41.405 -45.480  -9.298  0.00  0.00     0.254 C 
ATOM     10  O26 MOL d         -40.997 -44.499  -8.678  0.00  0.00    -0.270 OA
ATOM     11  H1  MOL d         -42.320 -48.641  -4.947  0.00  0.00     0.189 HD
ATOM     12  H7  MOL d         -41.365 -48.355  -9.998  0.00  0.00     0.072 H 
ATOM     13  H8  MOL d         -43.026 -47.672 -10.024  0.00  0.00     0.072 H 
ATOM     14  H9  MOL d         -41.922 -45.978  -6.678  0.00  0.00     0.074 H 
ATOM     15  H10 MOL d         -40.369 -46.824  -6.990  0.00  0.00     0.074 H 
ENDROOT
BRANCH   3  16
ATOM     16  N5  MOL d         -43.729 -50.882  -8.562  0.00  0.00    -0.305 N 
ATOM     17  C6  MOL d         -43.325 -51.305  -9.749  0.00  0.00     0.257 C 
ATOM     18  O8  MOL d         -42.336 -50.891 -10.326  0.00  0.00    -0.267 OA
ATOM     19  H2  MOL d         -44.544 -51.317  -8.179  0.00  0.00     0.170 HD
BRANCH  17  20
ATOM     20  C7  MOL d         -44.123 -52.365 -10.403  0.00  0.00     0.032 A 
ATOM     21  C9  MOL d         -43.661 -52.853 -11.616  0.00  0.00    -0.066 A 
ATOM     22  C10 MOL d         -44.339 -53.851 -12.284  0.00  0.00    -0.056 A 
ATOM     23  H3  MOL d         -42.753 -52.444 -12.045  0.00  0.00     0.085 H 
ATOM     24  C24 MOL d         -45.496 -54.345 -11.723  0.00  0.00     0.030 A 
ATOM     25  H4  MOL d         -43.971 -54.237 -13.227  0.00  0.00     0.086 H 
ATOM     26  C11 MOL d         -45.969 -53.845 -10.495  0.00  0.00    -0.056 A 
ATOM     27  C12 MOL d         -45.284 -52.852  -9.820  0.00  0.00    -0.066 A 
ATOM     28  H5  MOL d         -46.885 -54.243 -10.074  0.00  0.00     0.086 H 
ATOM     29  H6  MOL d         -45.640 -52.468  -8.871  0.00  0.00     0.085 H 
BRANCH  24  30
ATOM     30  N17 MOL d         -46.189 -55.364 -12.399  0.00  0.00    -0.378 N 
ATOM     31  C18 MOL d         -46.598 -56.416 -11.807  0.00  0.00     0.018 C 
ATOM     32  C19 MOL d         -46.363 -57.594 -12.404  0.00  0.00     0.098 C 
ATOM     33  H11 MOL d         -47.686 -56.321 -11.681  0.00  0.00     0.066 H 
ATOM     34  H12 MOL d         -46.116 -56.446 -10.818  0.00  0.00     0.066 H 
ATOM     35  N20 MOL d         -46.101 -57.680 -13.818  0.00  0.00    -0.072 N 
ATOM     36  H13 MOL d         -47.247 -58.220 -12.213  0.00  0.00     0.078 H 
ATOM     37  H14 MOL d         -45.489 -58.029 -11.898  0.00  0.00     0.078 H 
ATOM     38  C21 MOL d         -45.655 -56.392 -14.418  0.00  0.00     0.098 C 
ATOM     39  H15 MOL d         -46.959 -57.956 -14.269  0.00  0.00     0.279 HD
ATOM     40  C22 MOL d         -46.433 -55.213 -13.837  0.00  0.00     0.018 C 
ATOM     41  H16 MOL d         -45.817 -56.427 -15.505  0.00  0.00     0.078 H 
ATOM     42  H17 MOL d         -44.583 -56.251 -14.211  0.00  0.00     0.078 H 
ATOM     43  H18 MOL d         -46.044 -54.255 -14.210  0.00  0.00     0.066 H 
ATOM     44  H19 MOL d         -47.505 -55.289 -14.070  0.00  0.00     0.066 H 
BRANCH  35  45
ATOM     45  C23 MOL d         -45.069 -58.696 -14.106  0.00  0.00     0.066 C 
ATOM     46  H20 MOL d         -45.554 -59.660 -14.316  0.00  0.00     0.068 H 
ATOM     47  H21 MOL d         -44.405 -58.801 -13.236  0.00  0.00     0.068 H 
ATOM     48  H22 MOL d         -44.480 -58.382 -14.980  0.00  0.00     0.068 H 
ENDBRANCH  35  45
ENDBRANCH  24  30
ENDBRANCH  17  20
ENDBRANCH   3  16
BRANCH   9  49
ATOM     49  C20 MOL d         -41.644 -45.361 -10.772  0.00  0.00     0.140 C 
ATOM     50  H27 MOL d         -41.177 -44.440 -11.151  0.00  0.00     0.106 H 
BRANCH  49  51
ATOM     51  C29 MOL d         -41.000 -46.537 -11.434  0.00  0.00    -0.020 A 
ATOM     52  C27 MOL d         -39.589 -46.655 -11.433  0.00  0.00    -0.074 A 
ATOM     53  C28 MOL d         -38.979 -47.762 -12.021  0.00  0.00    -0.082 A 
ATOM     54  H23 MOL d         -38.983 -45.882 -10.974  0.00  0.00     0.084 H 
ATOM     55  C31 MOL d         -39.789 -48.746 -12.623  0.00  0.00    -0.083 A 
ATOM     56  H24 MOL d         -37.900 -47.864 -12.015  0.00  0.00     0.083 H 
ATOM     57  C35 MOL d         -41.183 -48.633 -12.635  0.00  0.00    -0.082 A 
ATOM     58  H25 MOL d         -39.321 -49.607 -13.087  0.00  0.00     0.083 H 
ATOM     59  C33 MOL d         -41.787 -47.531 -12.053  0.00  0.00    -0.074 A 
ATOM     60  H28 MOL d         -41.788 -49.405 -13.097  0.00  0.00     0.083 H 
ATOM     61  H26 MOL d         -42.866 -47.432 -12.072  0.00  0.00     0.084 H 
ENDBRANCH  49  51
BRANCH  49  62
ATOM     62  O34 MOL d         -43.053 -45.286 -10.998  0.00  0.00    -0.377 OA
BRANCH  62  63
ATOM     63  C36 MOL d         -43.859 -45.598  -9.846  0.00  0.00     0.005 C 
ATOM     64  H29 MOL d         -43.413 -46.445  -9.304  0.00  0.00     0.066 H 
ATOM     65  H30 MOL d         -44.876 -45.866 -10.170  0.00  0.00     0.066 H 
ATOM     66  H31 MOL d         -43.906 -44.722  -9.182  0.00  0.00     0.066 H 
ENDBRANCH  62  63
ENDBRANCH  49  62
ENDBRANCH   9  49
TORSDOF 8
ENDMDL
MODEL 10
REMARK VINA RESULT:      -5.4      3.524     10.940
REMARK  8 active torsions:
REMARK  status: ('A' for Active; 'I' for Inactive)
REMARK       I    between atoms: C25_25  and  N1_1 
REMARK    1  A    between atoms: C3_3  and  N5_5 
REMARK       I    between atoms: N5_5  and  C6_6 
REMARK    2  A    between atoms: C6_6  and  C7_7 
REMARK    3  A    between atoms: C24_24  and  N17_17 
REMARK    4  A    between atoms: N20_20  and  C23_23 
REMARK    5  A    between atoms: C20_32  and  C25_25 
REMARK    6  A    between atoms: C29_29  and  C20_32 
REMARK    7  A    between atoms: C20_32  and  O34_35 
REMARK    8  A    between atoms: O34_35  and  C36_34 
ROOT
ATOM      1  N1  MOL d         -45.917 -57.273 -11.863  0.00  0.00    -0.340 N 
ATOM      2  N2  MOL d         -44.783 -56.518  -8.507  0.00  0.00    -0.278 N 
ATOM      3  C3  MOL d         -44.584 -54.631  -9.684  0.00  0.00     0.160 A 
ATOM      4  N4  MOL d         -44.342 -55.167  -8.474  0.00  0.00    -0.156 NA
ATOM      5  C13 MOL d         -45.283 -56.741  -9.739  0.00  0.00     0.057 A 
ATOM      6  C14 MOL d         -45.161 -55.557 -10.530  0.00  0.00     0.033 A 
ATOM      7  C15 MOL d         -45.669 -55.795 -11.918  0.00  0.00     0.027 C 
ATOM      8  C16 MOL d         -45.867 -57.873 -10.512  0.00  0.00     0.038 C 
ATOM      9  C25 MOL d         -46.176 -58.049 -12.926  0.00  0.00     0.254 C 
ATOM     10  O26 MOL d         -46.373 -59.258 -12.823  0.00  0.00    -0.270 OA
ATOM     11  H1  MOL d         -44.732 -57.198  -7.735  0.00  0.00     0.189 HD
ATOM     12  H7  MOL d         -46.595 -55.234 -12.115  0.00  0.00     0.072 H 
ATOM     13  H8  MOL d         -44.917 -55.537 -12.677  0.00  0.00     0.072 H 
ATOM     14  H9  MOL d         -45.218 -58.761 -10.486  0.00  0.00     0.074 H 
ATOM     15  H10 MOL d         -46.869 -58.140 -10.148  0.00  0.00     0.074 H 
ENDROOT
BRANCH   3  16
ATOM     16  N5  MOL d         -44.230 -53.322  -9.928  0.00  0.00    -0.305 N 
ATOM     17  C6  MOL d         -44.288 -52.325  -9.061  0.00  0.00     0.257 C 
ATOM     18  O8  MOL d         -44.642 -52.440  -7.902  0.00  0.00    -0.267 OA
ATOM     19  H2  MOL d         -43.898 -53.106 -10.846  0.00  0.00     0.170 HD
BRANCH  17  20
ATOM     20  C7  MOL d         -43.876 -50.984  -9.535  0.00  0.00     0.032 A 
ATOM     21  C9  MOL d         -43.297 -50.132  -8.608  0.00  0.00    -0.066 A 
ATOM     22  C10 MOL d         -42.873 -48.871  -8.972  0.00  0.00    -0.056 A 
ATOM     23  H3  MOL d         -43.176 -50.461  -7.582  0.00  0.00     0.085 H 
ATOM     24  C24 MOL d         -43.048 -48.473 -10.279  0.00  0.00     0.030 A 
ATOM     25  H4  MOL d         -42.413 -48.209  -8.248  0.00  0.00     0.086 H 
ATOM     26  C11 MOL d         -43.643 -49.336 -11.219  0.00  0.00    -0.056 A 
ATOM     27  C12 MOL d         -44.058 -50.605 -10.857  0.00  0.00    -0.066 A 
ATOM     28  H5  MOL d         -43.776 -49.002 -12.241  0.00  0.00     0.086 H 
ATOM     29  H6  MOL d         -44.509 -51.276 -11.578  0.00  0.00     0.085 H 
BRANCH  24  30
ATOM     30  N17 MOL d         -42.615 -47.190 -10.655  0.00  0.00    -0.378 N 
ATOM     31  C18 MOL d         -41.679 -47.010 -11.501  0.00  0.00     0.018 C 
ATOM     32  C19 MOL d         -40.727 -46.117 -11.191  0.00  0.00     0.098 C 
ATOM     33  H11 MOL d         -42.144 -46.682 -12.443  0.00  0.00     0.066 H 
ATOM     34  H12 MOL d         -41.183 -47.980 -11.656  0.00  0.00     0.066 H 
ATOM     35  N20 MOL d         -40.958 -45.082 -10.216  0.00  0.00    -0.072 N 
ATOM     36  H13 MOL d         -40.463 -45.607 -12.129  0.00  0.00     0.078 H 
ATOM     37  H14 MOL d         -39.864 -46.696 -10.832  0.00  0.00     0.078 H 
ATOM     38  C21 MOL d         -42.089 -45.377  -9.294  0.00  0.00     0.098 C 
ATOM     39  H15 MOL d         -41.175 -44.235 -10.718  0.00  0.00     0.279 HD
ATOM     40  C22 MOL d         -43.255 -46.023 -10.039  0.00  0.00     0.018 C 
ATOM     41  H16 MOL d         -42.433 -44.438  -8.835  0.00  0.00     0.078 H 
ATOM     42  H17 MOL d         -41.741 -46.063  -8.507  0.00  0.00     0.078 H 
ATOM     43  H18 MOL d         -44.053 -46.326  -9.346  0.00  0.00     0.066 H 
ATOM     44  H19 MOL d         -43.667 -45.345 -10.800  0.00  0.00     0.066 H 
BRANCH  35  45
ATOM     45  C23 MOL d         -39.753 -44.847  -9.396  0.00  0.00     0.066 C 
ATOM     46  H20 MOL d         -39.389 -43.823  -9.564  0.00  0.00     0.068 H 
ATOM     47  H21 MOL d         -38.970 -45.565  -9.680  0.00  0.00     0.068 H 
ATOM     48  H22 MOL d         -40.002 -44.978  -8.333  0.00  0.00     0.068 H 
ENDBRANCH  35  45
ENDBRANCH  24  30
ENDBRANCH  17  20
ENDBRANCH   3  16
BRANCH   9  49
ATOM     49  C20 MOL d         -46.210 -57.421 -14.285  0.00  0.00     0.140 C 
ATOM     50  H27 MOL d         -46.954 -56.611 -14.302  0.00  0.00     0.106 H 
BRANCH  49  51
ATOM     51  C29 MOL d         -44.858 -56.839 -14.553  0.00  0.00    -0.020 A 
ATOM     52  C27 MOL d         -43.703 -57.625 -14.332  0.00  0.00    -0.074 A 
ATOM     53  C28 MOL d         -42.439 -57.104 -14.607  0.00  0.00    -0.082 A 
ATOM     54  H23 MOL d         -43.800 -58.634 -13.948  0.00  0.00     0.084 H 
ATOM     55  C31 MOL d         -42.337 -55.785 -15.093  0.00  0.00    -0.083 A 
ATOM     56  H24 MOL d         -41.550 -57.703 -14.450  0.00  0.00     0.083 H 
ATOM     57  C35 MOL d         -43.474 -54.999 -15.308  0.00  0.00    -0.082 A 
ATOM     58  H25 MOL d         -41.358 -55.371 -15.304  0.00  0.00     0.083 H 
ATOM     59  C33 MOL d         -44.729 -55.518 -15.031  0.00  0.00    -0.074 A 
ATOM     60  H28 MOL d         -43.375 -53.989 -15.689  0.00  0.00     0.083 H 
ATOM     61  H26 MOL d         -45.612 -54.908 -15.181  0.00  0.00     0.084 H 
ENDBRANCH  49  51
BRANCH  49  62
ATOM     62  O34 MOL d         -46.596 -58.416 -15.236  0.00  0.00    -0.377 OA
BRANCH  62  63
ATOM     63  C36 MOL d         -45.522 -59.272 -15.672  0.00  0.00     0.005 C 
ATOM     64  H29 MOL d         -45.715 -60.302 -15.339  0.00  0.00     0.066 H 
ATOM     65  H30 MOL d         -44.573 -58.920 -15.240  0.00  0.00     0.066 H 
ATOM     66  H31 MOL d         -45.455 -59.248 -16.770  0.00  0.00     0.066 H 
ENDBRANCH  62  63
ENDBRANCH  49  62
ENDBRANCH   9  49
TORSDOF 8
ENDMDL
