MODEL 1
REMARK VINA RESULT:     -10.3      0.000      0.000
REMARK  8 active torsions:
REMARK  status: ('A' for Active; 'I' for Inactive)
REMARK    1  A    between atoms: C4_4  and  N17_5 
REMARK    2  A    between atoms: C10_8  and  C18_9 
REMARK    3  A    between atoms: C18_9  and  C19_10 
REMARK    4  A    between atoms: C19_10  and  N20_11 
REMARK    5  A    between atoms: N20_11  and  C21_12 
REMARK    6  A    between atoms: C21_12  and  C22_13 
REMARK    7  A    between atoms: C12_20  and  N14_21 
REMARK    8  A    between atoms: N14_21  and  C15_22 
ROOT
ATOM      1  C2  AFQ d          18.096  17.212  23.149  0.00  0.00     0.272 C 
ATOM      2  O16 AFQ d          19.192  17.587  23.525  0.00  0.00    -0.267 OA
ATOM      3  N3  AFQ d          17.041  16.990  23.977  0.00  0.00    -0.156 N 
ATOM      4  C4  AFQ d          15.890  16.490  23.436  0.00  0.00     0.679 C 
ATOM      5  N5  AFQ d          15.703  16.354  22.171  0.00  0.00    -0.190 N 
ATOM      6  C6  AFQ d          16.634  16.630  21.210  0.00  0.00     0.073 A 
ATOM      7  C10 AFQ d          16.327  16.466  19.840  0.00  0.00     0.004 A 
ATOM      8  C9  AFQ d          17.364  16.802  18.968  0.00  0.00     0.111 A 
ATOM      9  N11 AFQ d          17.474  16.872  17.620  0.00  0.00    -0.062 NA
ATOM     10  C12 AFQ d          18.648  17.226  17.263  0.00  0.00     0.701 A 
ATOM     11  N13 AFQ d          19.422  17.481  18.335  0.00  0.00    -0.188 N 
ATOM     12  C8  AFQ d          18.580  17.229  19.434  0.00  0.00     0.080 A 
ATOM     13  C7  AFQ d          18.932  17.383  20.774  0.00  0.00    -0.037 A 
ATOM     14  C1  AFQ d          17.900  17.041  21.663  0.00  0.00     0.062 A 
ATOM     15  H1  AFQ d          17.104  17.187  24.954  0.00  0.00     0.187 HD
ATOM     16  H4  AFQ d          14.784  16.011  21.859  0.00  0.00     0.184 HD
ATOM     17  H26 AFQ d          20.405  17.789  18.348  0.00  0.00     0.184 HD
ATOM     18  H27 AFQ d          19.906  17.731  21.098  0.00  0.00     0.088 H 
ENDROOT
BRANCH   7  19
ATOM     19  C18 AFQ d          15.086  15.801  19.274  0.00  0.00    -0.014 C 
ATOM     20  H5  AFQ d          14.817  16.319  18.341  0.00  0.00     0.042 H 
ATOM     21  H6  AFQ d          14.273  15.919  20.005  0.00  0.00     0.042 H 
BRANCH  19  22
ATOM     22  C19 AFQ d          15.234  14.272  18.954  0.00  0.00     0.085 C 
ATOM     23  H7  AFQ d          15.098  13.673  19.866  0.00  0.00     0.076 H 
ATOM     24  H8  AFQ d          16.224  14.063  18.522  0.00  0.00     0.076 H 
BRANCH  22  25
ATOM     25  N20 AFQ d          14.158  13.977  17.967  0.00  0.00    -0.074 N 
ATOM     26  H9  AFQ d          14.306  13.041  17.625  0.00  0.00     0.277 HD
ATOM     27  H10 AFQ d          14.253  14.632  17.207  0.00  0.00     0.277 HD
BRANCH  25  28
ATOM     28  C21 AFQ d          12.749  14.060  18.464  0.00  0.00     0.085 C 
ATOM     29  H11 AFQ d          12.641  14.931  19.128  0.00  0.00     0.076 H 
ATOM     30  H12 AFQ d          12.496  13.144  19.018  0.00  0.00     0.076 H 
BRANCH  28  31
ATOM     31  C22 AFQ d          11.803  14.212  17.236  0.00  0.00    -0.031 C 
ATOM     32  C26 AFQ d          11.772  15.644  16.673  0.00  0.00    -0.060 C 
ATOM     33  C25 AFQ d          10.375  15.767  16.015  0.00  0.00    -0.065 C 
ATOM     34  H14 AFQ d          12.568  15.786  15.926  0.00  0.00     0.033 H 
ATOM     35  H15 AFQ d          11.889  16.382  17.479  0.00  0.00     0.033 H 
ATOM     36  C24 AFQ d           9.427  14.934  16.943  0.00  0.00    -0.065 C 
ATOM     37  H16 AFQ d          10.386  15.351  14.997  0.00  0.00     0.033 H 
ATOM     38  H17 AFQ d          10.055  16.819  15.977  0.00  0.00     0.033 H 
ATOM     39  C23 AFQ d          10.339  13.898  17.626  0.00  0.00    -0.060 C 
ATOM     40  H18 AFQ d           8.650  14.432  16.348  0.00  0.00     0.033 H 
ATOM     41  H19 AFQ d           8.952  15.585  17.693  0.00  0.00     0.033 H 
ATOM     42  H20 AFQ d          10.222  13.962  18.717  0.00  0.00     0.033 H 
ATOM     43  H21 AFQ d          10.072  12.887  17.286  0.00  0.00     0.033 H 
ATOM     44  H13 AFQ d          12.139  13.518  16.452  0.00  0.00     0.042 H 
ENDBRANCH  28  31
ENDBRANCH  25  28
ENDBRANCH  22  25
ENDBRANCH  19  22
ENDBRANCH   7  19
BRANCH   4  45
ATOM     45  N17 AFQ d          14.883  16.197  24.300  0.00  0.00    -0.234 N 
ATOM     46  H2  AFQ d          13.993  15.817  23.944  0.00  0.00     0.174 HD
ATOM     47  H3  AFQ d          15.008  16.354  25.310  0.00  0.00     0.174 HD
ENDBRANCH   4  45
BRANCH  10  48
ATOM     48  N14 AFQ d          19.229  17.388  16.073  0.00  0.00    -0.229 N 
ATOM     49  H22 AFQ d          20.218  17.108  15.997  0.00  0.00     0.177 HD
BRANCH  48  50
ATOM     50  C15 AFQ d          18.608  17.918  14.875  0.00  0.00    -0.005 C 
ATOM     51  H23 AFQ d          19.341  17.928  14.056  0.00  0.00     0.057 H 
ATOM     52  H24 AFQ d          18.258  18.943  15.067  0.00  0.00     0.057 H 
ATOM     53  H25 AFQ d          17.754  17.285  14.595  0.00  0.00     0.057 H 
ENDBRANCH  48  50
ENDBRANCH  10  48
TORSDOF 8
ENDMDL
