MODEL 1
REMARK VINA RESULT:     -10.5      0.000      0.000
REMARK  8 active torsions:
REMARK  status: ('A' for Active; 'I' for Inactive)
REMARK    1  A    between atoms: C4_4  and  N17_5 
REMARK    2  A    between atoms: C10_8  and  C18_9 
REMARK    3  A    between atoms: C18_9  and  C19_10 
REMARK    4  A    between atoms: C19_10  and  N20_11 
REMARK    5  A    between atoms: N20_11  and  C21_12 
REMARK    6  A    between atoms: C21_12  and  C22_13 
REMARK    7  A    between atoms: C12_20  and  N14_21 
REMARK    8  A    between atoms: N14_21  and  C15_22 
ROOT
ATOM      1  C2  AFQ d          18.061  17.107  23.103  0.00  0.00     0.272 C 
ATOM      2  O16 AFQ d          19.179  17.418  23.473  0.00  0.00    -0.267 OA
ATOM      3  N3  AFQ d          17.003  16.925  23.939  0.00  0.00    -0.156 N 
ATOM      4  C4  AFQ d          15.823  16.495  23.402  0.00  0.00     0.679 C 
ATOM      5  N5  AFQ d          15.616  16.392  22.138  0.00  0.00    -0.190 N 
ATOM      6  C6  AFQ d          16.550  16.637  21.171  0.00  0.00     0.073 A 
ATOM      7  C10 AFQ d          16.220  16.515  19.802  0.00  0.00     0.004 A 
ATOM      8  C9  AFQ d          17.265  16.812  18.925  0.00  0.00     0.111 A 
ATOM      9  N11 AFQ d          17.364  16.902  17.576  0.00  0.00    -0.062 NA
ATOM     10  C12 AFQ d          18.551  17.201  17.212  0.00  0.00     0.701 A 
ATOM     11  N13 AFQ d          19.349  17.396  18.280  0.00  0.00    -0.188 N 
ATOM     12  C8  AFQ d          18.506  17.168  19.384  0.00  0.00     0.080 A 
ATOM     13  C7  AFQ d          18.879  17.278  20.722  0.00  0.00    -0.037 A 
ATOM     14  C1  AFQ d          17.840  16.974  21.616  0.00  0.00     0.062 A 
ATOM     15  H1  AFQ d          17.088  17.100  24.919  0.00  0.00     0.187 HD
ATOM     16  H4  AFQ d          14.677  16.103  21.830  0.00  0.00     0.184 HD
ATOM     17  H26 AFQ d          20.346  17.652  18.287  0.00  0.00     0.184 HD
ATOM     18  H27 AFQ d          19.874  17.569  21.041  0.00  0.00     0.088 H 
ENDROOT
BRANCH   7  19
ATOM     19  C18 AFQ d          14.941  15.926  19.238  0.00  0.00    -0.014 C 
ATOM     20  H5  AFQ d          14.714  16.443  18.294  0.00  0.00     0.042 H 
ATOM     21  H6  AFQ d          14.133  16.112  19.960  0.00  0.00     0.042 H 
BRANCH  19  22
ATOM     22  C19 AFQ d          14.987  14.385  18.947  0.00  0.00     0.085 C 
ATOM     23  H7  AFQ d          14.903  13.813  19.883  0.00  0.00     0.076 H 
ATOM     24  H8  AFQ d          15.922  14.116  18.436  0.00  0.00     0.076 H 
BRANCH  22  25
ATOM     25  N20 AFQ d          13.814  14.122  18.066  0.00  0.00    -0.074 N 
ATOM     26  H9  AFQ d          13.035  13.882  18.658  0.00  0.00     0.277 HD
ATOM     27  H10 AFQ d          14.044  13.336  17.478  0.00  0.00     0.277 HD
BRANCH  25  28
ATOM     28  C21 AFQ d          13.379  15.242  17.176  0.00  0.00     0.085 C 
ATOM     29  H11 AFQ d          13.733  15.061  16.150  0.00  0.00     0.076 H 
ATOM     30  H12 AFQ d          13.794  16.192  17.544  0.00  0.00     0.076 H 
BRANCH  28  31
ATOM     31  C22 AFQ d          11.822  15.306  17.193  0.00  0.00    -0.031 C 
ATOM     32  C26 AFQ d          11.248  15.634  18.583  0.00  0.00    -0.060 C 
ATOM     33  C25 AFQ d           9.840  14.986  18.578  0.00  0.00    -0.065 C 
ATOM     34  H14 AFQ d          11.175  16.722  18.728  0.00  0.00     0.033 H 
ATOM     35  H15 AFQ d          11.874  15.199  19.375  0.00  0.00     0.033 H 
ATOM     36  C24 AFQ d          10.014  13.670  17.747  0.00  0.00    -0.065 C 
ATOM     37  H16 AFQ d           9.107  15.652  18.102  0.00  0.00     0.033 H 
ATOM     38  H17 AFQ d           9.515  14.758  19.604  0.00  0.00     0.033 H 
ATOM     39  C23 AFQ d          11.209  13.937  16.813  0.00  0.00    -0.060 C 
ATOM     40  H18 AFQ d           9.106  13.461  17.162  0.00  0.00     0.033 H 
ATOM     41  H19 AFQ d          10.226  12.819  18.412  0.00  0.00     0.033 H 
ATOM     42  H20 AFQ d          11.962  13.145  16.937  0.00  0.00     0.033 H 
ATOM     43  H21 AFQ d          10.867  13.959  15.768  0.00  0.00     0.033 H 
ATOM     44  H13 AFQ d          11.499  16.073  16.473  0.00  0.00     0.042 H 
ENDBRANCH  28  31
ENDBRANCH  25  28
ENDBRANCH  22  25
ENDBRANCH  19  22
ENDBRANCH   7  19
BRANCH   4  45
ATOM     45  N17 AFQ d          14.811  16.238  24.272  0.00  0.00    -0.234 N 
ATOM     46  H2  AFQ d          14.879  15.442  24.922  0.00  0.00     0.174 HD
ATOM     47  H3  AFQ d          13.974  16.840  24.281  0.00  0.00     0.174 HD
ENDBRANCH   4  45
BRANCH  10  48
ATOM     48  N14 AFQ d          19.127  17.355  16.019  0.00  0.00    -0.229 N 
ATOM     49  H22 AFQ d          20.104  17.039  15.931  0.00  0.00     0.177 HD
BRANCH  48  50
ATOM     50  C15 AFQ d          18.516  17.921  14.833  0.00  0.00    -0.005 C 
ATOM     51  H23 AFQ d          19.301  18.287  14.155  0.00  0.00     0.057 H 
ATOM     52  H24 AFQ d          17.861  18.756  15.122  0.00  0.00     0.057 H 
ATOM     53  H25 AFQ d          17.922  17.149  14.323  0.00  0.00     0.057 H 
ENDBRANCH  48  50
ENDBRANCH  10  48
TORSDOF 8
ENDMDL
MODEL 2
REMARK VINA RESULT:     -10.3      0.789      1.431
REMARK  8 active torsions:
REMARK  status: ('A' for Active; 'I' for Inactive)
REMARK    1  A    between atoms: C4_4  and  N17_5 
REMARK    2  A    between atoms: C10_8  and  C18_9 
REMARK    3  A    between atoms: C18_9  and  C19_10 
REMARK    4  A    between atoms: C19_10  and  N20_11 
REMARK    5  A    between atoms: N20_11  and  C21_12 
REMARK    6  A    between atoms: C21_12  and  C22_13 
REMARK    7  A    between atoms: C12_20  and  N14_21 
REMARK    8  A    between atoms: N14_21  and  C15_22 
ROOT
ATOM      1  C2  AFQ d          18.063  17.136  23.103  0.00  0.00     0.272 C 
ATOM      2  O16 AFQ d          19.176  17.465  23.473  0.00  0.00    -0.267 OA
ATOM      3  N3  AFQ d          17.008  16.942  23.938  0.00  0.00    -0.156 N 
ATOM      4  C4  AFQ d          15.834  16.492  23.402  0.00  0.00     0.679 C 
ATOM      5  N5  AFQ d          15.631  16.379  22.138  0.00  0.00    -0.190 N 
ATOM      6  C6  AFQ d          16.563  16.633  21.172  0.00  0.00     0.073 A 
ATOM      7  C10 AFQ d          16.237  16.499  19.802  0.00  0.00     0.004 A 
ATOM      8  C9  AFQ d          17.278  16.807  18.925  0.00  0.00     0.111 A 
ATOM      9  N11 AFQ d          17.378  16.891  17.577  0.00  0.00    -0.062 NA
ATOM     10  C12 AFQ d          18.561  17.206  17.213  0.00  0.00     0.701 A 
ATOM     11  N13 AFQ d          19.354  17.418  18.281  0.00  0.00    -0.188 N 
ATOM     12  C8  AFQ d          18.513  17.183  19.385  0.00  0.00     0.080 A 
ATOM     13  C7  AFQ d          18.883  17.306  20.722  0.00  0.00    -0.037 A 
ATOM     14  C1  AFQ d          17.847  16.991  21.617  0.00  0.00     0.062 A 
ATOM     15  H1  AFQ d          17.088  17.124  24.918  0.00  0.00     0.187 HD
ATOM     16  H4  AFQ d          14.697  16.075  21.831  0.00  0.00     0.184 HD
ATOM     17  H26 AFQ d          20.348  17.689  18.287  0.00  0.00     0.184 HD
ATOM     18  H27 AFQ d          19.873  17.614  21.041  0.00  0.00     0.088 H 
ENDROOT
BRANCH   7  19
ATOM     19  C18 AFQ d          14.967  15.888  19.239  0.00  0.00    -0.014 C 
ATOM     20  H5  AFQ d          14.705  16.433  18.321  0.00  0.00     0.042 H 
ATOM     21  H6  AFQ d          14.167  16.020  19.983  0.00  0.00     0.042 H 
BRANCH  19  22
ATOM     22  C19 AFQ d          15.058  14.362  18.890  0.00  0.00     0.085 C 
ATOM     23  H7  AFQ d          14.922  13.750  19.793  0.00  0.00     0.076 H 
ATOM     24  H8  AFQ d          16.031  14.128  18.433  0.00  0.00     0.076 H 
BRANCH  22  25
ATOM     25  N20 AFQ d          13.953  14.120  17.921  0.00  0.00    -0.074 N 
ATOM     26  H9  AFQ d          14.075  13.194  17.543  0.00  0.00     0.277 HD
ATOM     27  H10 AFQ d          14.041  14.799  17.182  0.00  0.00     0.277 HD
BRANCH  25  28
ATOM     28  C21 AFQ d          12.559  14.210  18.456  0.00  0.00     0.085 C 
ATOM     29  H11 AFQ d          12.560  14.773  19.401  0.00  0.00     0.076 H 
ATOM     30  H12 AFQ d          12.162  13.199  18.631  0.00  0.00     0.076 H 
BRANCH  28  31
ATOM     31  C22 AFQ d          11.676  14.948  17.404  0.00  0.00    -0.031 C 
ATOM     32  C26 AFQ d          12.107  14.668  15.954  0.00  0.00    -0.060 C 
ATOM     33  C25 AFQ d          11.656  15.926  15.170  0.00  0.00    -0.065 C 
ATOM     34  H14 AFQ d          11.607  13.768  15.566  0.00  0.00     0.033 H 
ATOM     35  H15 AFQ d          13.197  14.539  15.889  0.00  0.00     0.033 H 
ATOM     36  C24 AFQ d          11.876  17.112  16.169  0.00  0.00    -0.065 C 
ATOM     37  H16 AFQ d          10.597  15.848  14.887  0.00  0.00     0.033 H 
ATOM     38  H17 AFQ d          12.269  16.060  14.266  0.00  0.00     0.033 H 
ATOM     39  C23 AFQ d          11.786  16.482  17.571  0.00  0.00    -0.060 C 
ATOM     40  H18 AFQ d          11.095  17.876  16.038  0.00  0.00     0.033 H 
ATOM     41  H19 AFQ d          12.865  17.569  16.014  0.00  0.00     0.033 H 
ATOM     42  H20 AFQ d          12.687  16.730  18.149  0.00  0.00     0.033 H 
ATOM     43  H21 AFQ d          10.897  16.864  18.094  0.00  0.00     0.033 H 
ATOM     44  H13 AFQ d          10.633  14.630  17.544  0.00  0.00     0.042 H 
ENDBRANCH  28  31
ENDBRANCH  25  28
ENDBRANCH  22  25
ENDBRANCH  19  22
ENDBRANCH   7  19
BRANCH   4  45
ATOM     45  N17 AFQ d          14.825  16.225  24.272  0.00  0.00    -0.234 N 
ATOM     46  H2  AFQ d          14.697  15.270  24.635  0.00  0.00     0.174 HD
ATOM     47  H3  AFQ d          14.187  16.979  24.567  0.00  0.00     0.174 HD
ENDBRANCH   4  45
BRANCH  10  48
ATOM     48  N14 AFQ d          19.137  17.362  16.019  0.00  0.00    -0.229 N 
ATOM     49  H22 AFQ d          20.101  17.013  15.920  0.00  0.00     0.177 HD
BRANCH  48  50
ATOM     50  C15 AFQ d          18.541  17.972  14.848  0.00  0.00    -0.005 C 
ATOM     51  H23 AFQ d          17.834  17.267  14.386  0.00  0.00     0.057 H 
ATOM     52  H24 AFQ d          19.330  18.227  14.126  0.00  0.00     0.057 H 
ATOM     53  H25 AFQ d          18.006  18.886  15.143  0.00  0.00     0.057 H 
ENDBRANCH  48  50
ENDBRANCH  10  48
TORSDOF 8
ENDMDL
MODEL 3
REMARK VINA RESULT:      -8.6      1.561      1.987
REMARK  8 active torsions:
REMARK  status: ('A' for Active; 'I' for Inactive)
REMARK    1  A    between atoms: C4_4  and  N17_5 
REMARK    2  A    between atoms: C10_8  and  C18_9 
REMARK    3  A    between atoms: C18_9  and  C19_10 
REMARK    4  A    between atoms: C19_10  and  N20_11 
REMARK    5  A    between atoms: N20_11  and  C21_12 
REMARK    6  A    between atoms: C21_12  and  C22_13 
REMARK    7  A    between atoms: C12_20  and  N14_21 
REMARK    8  A    between atoms: N14_21  and  C15_22 
ROOT
ATOM      1  C2  AFQ d          19.054  17.125  20.705  0.00  0.00     0.272 C 
ATOM      2  O16 AFQ d          20.225  17.386  20.494  0.00  0.00    -0.267 OA
ATOM      3  N3  AFQ d          18.508  17.013  21.945  0.00  0.00    -0.156 N 
ATOM      4  C4  AFQ d          17.199  16.635  22.044  0.00  0.00     0.679 C 
ATOM      5  N5  AFQ d          16.418  16.518  21.029  0.00  0.00    -0.190 N 
ATOM      6  C6  AFQ d          16.796  16.696  19.729  0.00  0.00     0.073 A 
ATOM      7  C10 AFQ d          15.856  16.565  18.680  0.00  0.00     0.004 A 
ATOM      8  C9  AFQ d          16.375  16.791  17.404  0.00  0.00     0.111 A 
ATOM      9  N11 AFQ d          15.831  16.850  16.165  0.00  0.00    -0.062 NA
ATOM     10  C12 AFQ d          16.717  17.081  15.274  0.00  0.00     0.701 A 
ATOM     11  N13 AFQ d          17.930  17.255  15.834  0.00  0.00    -0.188 N 
ATOM     12  C8  AFQ d          17.699  17.091  17.213  0.00  0.00     0.080 A 
ATOM     13  C7  AFQ d          18.661  17.208  18.213  0.00  0.00    -0.037 A 
ATOM     14  C1  AFQ d          18.155  16.975  19.502  0.00  0.00     0.062 A 
ATOM     15  H1  AFQ d          19.050  17.203  22.763  0.00  0.00     0.187 HD
ATOM     16  H4  AFQ d          15.435  16.271  21.210  0.00  0.00     0.184 HD
ATOM     17  H26 AFQ d          18.822  17.460  15.361  0.00  0.00     0.184 HD
ATOM     18  H27 AFQ d          19.698  17.454  18.016  0.00  0.00     0.088 H 
ENDROOT
BRANCH   7  19
ATOM     19  C18 AFQ d          14.441  16.031  18.807  0.00  0.00    -0.014 C 
ATOM     20  H5  AFQ d          13.781  16.670  18.203  0.00  0.00     0.042 H 
ATOM     21  H6  AFQ d          14.147  16.096  19.865  0.00  0.00     0.042 H 
BRANCH  19  22
ATOM     22  C19 AFQ d          14.243  14.547  18.338  0.00  0.00     0.085 C 
ATOM     23  H7  AFQ d          13.746  13.957  19.122  0.00  0.00     0.076 H 
ATOM     24  H8  AFQ d          15.211  14.087  18.093  0.00  0.00     0.076 H 
BRANCH  22  25
ATOM     25  N20 AFQ d          13.383  14.636  17.125  0.00  0.00    -0.074 N 
ATOM     26  H9  AFQ d          12.720  13.878  17.164  0.00  0.00     0.277 HD
ATOM     27  H10 AFQ d          13.978  14.521  16.320  0.00  0.00     0.277 HD
BRANCH  25  28
ATOM     28  C21 AFQ d          12.611  15.904  16.941  0.00  0.00     0.085 C 
ATOM     29  H11 AFQ d          12.753  16.280  15.917  0.00  0.00     0.076 H 
ATOM     30  H12 AFQ d          12.961  16.660  17.660  0.00  0.00     0.076 H 
BRANCH  28  31
ATOM     31  C22 AFQ d          11.103  15.602  17.187  0.00  0.00    -0.031 C 
ATOM     32  C26 AFQ d          10.679  15.804  18.653  0.00  0.00    -0.060 C 
ATOM     33  C25 AFQ d           9.478  14.845  18.841  0.00  0.00    -0.065 C 
ATOM     34  H14 AFQ d          10.376  16.847  18.829  0.00  0.00     0.033 H 
ATOM     35  H15 AFQ d          11.500  15.540  19.335  0.00  0.00     0.033 H 
ATOM     36  C24 AFQ d           9.831  13.594  17.966  0.00  0.00    -0.065 C 
ATOM     37  H16 AFQ d           8.547  15.313  18.491  0.00  0.00     0.033 H 
ATOM     38  H17 AFQ d           9.370  14.561  19.898  0.00  0.00     0.033 H 
ATOM     39  C23 AFQ d          10.779  14.121  16.873  0.00  0.00    -0.060 C 
ATOM     40  H18 AFQ d           8.921  13.170  17.516  0.00  0.00     0.033 H 
ATOM     41  H19 AFQ d          10.332  12.826  18.574  0.00  0.00     0.033 H 
ATOM     42  H20 AFQ d          11.706  13.531  16.868  0.00  0.00     0.033 H 
ATOM     43  H21 AFQ d          10.291  14.047  15.890  0.00  0.00     0.033 H 
ATOM     44  H13 AFQ d          10.507  16.261  16.539  0.00  0.00     0.042 H 
ENDBRANCH  28  31
ENDBRANCH  25  28
ENDBRANCH  22  25
ENDBRANCH  19  22
ENDBRANCH   7  19
BRANCH   4  45
ATOM     45  N17 AFQ d          16.707  16.447  23.296  0.00  0.00    -0.234 N 
ATOM     46  H2  AFQ d          16.621  15.494  23.679  0.00  0.00     0.174 HD
ATOM     47  H3  AFQ d          16.419  17.258  23.863  0.00  0.00     0.174 HD
ENDBRANCH   4  45
BRANCH  10  48
ATOM     48  N14 AFQ d          16.669  17.181  13.945  0.00  0.00    -0.229 N 
ATOM     49  H22 AFQ d          16.906  18.099  13.540  0.00  0.00     0.177 HD
BRANCH  48  50
ATOM     50  C15 AFQ d          16.318  16.128  13.013  0.00  0.00    -0.005 C 
ATOM     51  H23 AFQ d          17.206  15.516  12.800  0.00  0.00     0.057 H 
ATOM     52  H24 AFQ d          15.948  16.575  12.079  0.00  0.00     0.057 H 
ATOM     53  H25 AFQ d          15.533  15.496  13.453  0.00  0.00     0.057 H 
ENDBRANCH  48  50
ENDBRANCH  10  48
TORSDOF 8
ENDMDL
MODEL 4
REMARK VINA RESULT:      -8.3      1.831      2.605
REMARK  8 active torsions:
REMARK  status: ('A' for Active; 'I' for Inactive)
REMARK    1  A    between atoms: C4_4  and  N17_5 
REMARK    2  A    between atoms: C10_8  and  C18_9 
REMARK    3  A    between atoms: C18_9  and  C19_10 
REMARK    4  A    between atoms: C19_10  and  N20_11 
REMARK    5  A    between atoms: N20_11  and  C21_12 
REMARK    6  A    between atoms: C21_12  and  C22_13 
REMARK    7  A    between atoms: C12_20  and  N14_21 
REMARK    8  A    between atoms: N14_21  and  C15_22 
ROOT
ATOM      1  C2  AFQ d          19.145  17.319  20.754  0.00  0.00     0.272 C 
ATOM      2  O16 AFQ d          20.272  17.690  20.479  0.00  0.00    -0.267 OA
ATOM      3  N3  AFQ d          18.684  17.157  22.024  0.00  0.00    -0.156 N 
ATOM      4  C4  AFQ d          17.425  16.654  22.194  0.00  0.00     0.679 C 
ATOM      5  N5  AFQ d          16.603  16.461  21.225  0.00  0.00    -0.190 N 
ATOM      6  C6  AFQ d          16.888  16.672  19.906  0.00  0.00     0.073 A 
ATOM      7  C10 AFQ d          15.907  16.449  18.911  0.00  0.00     0.004 A 
ATOM      8  C9  AFQ d          16.329  16.722  17.609  0.00  0.00     0.111 A 
ATOM      9  N11 AFQ d          15.713  16.726  16.402  0.00  0.00    -0.062 NA
ATOM     10  C12 AFQ d          16.521  17.039  15.464  0.00  0.00     0.701 A 
ATOM     11  N13 AFQ d          17.742  17.330  15.955  0.00  0.00    -0.188 N 
ATOM     12  C8  AFQ d          17.605  17.148  17.344  0.00  0.00     0.080 A 
ATOM     13  C7  AFQ d          18.607  17.359  18.289  0.00  0.00    -0.037 A 
ATOM     14  C1  AFQ d          18.199  17.080  19.604  0.00  0.00     0.062 A 
ATOM     15  H1  AFQ d          19.250  17.400  22.810  0.00  0.00     0.187 HD
ATOM     16  H4  AFQ d          15.660  16.122  21.460  0.00  0.00     0.184 HD
ATOM     17  H26 AFQ d          18.581  17.619  15.434  0.00  0.00     0.184 HD
ATOM     18  H27 AFQ d          19.603  17.703  18.035  0.00  0.00     0.088 H 
ENDROOT
BRANCH   7  19
ATOM     19  C18 AFQ d          14.560  15.782  19.116  0.00  0.00    -0.014 C 
ATOM     20  H5  AFQ d          13.815  16.329  18.520  0.00  0.00     0.042 H 
ATOM     21  H6  AFQ d          14.302  15.856  20.183  0.00  0.00     0.042 H 
BRANCH  19  22
ATOM     22  C19 AFQ d          14.494  14.269  18.705  0.00  0.00     0.085 C 
ATOM     23  H7  AFQ d          14.047  13.669  19.510  0.00  0.00     0.076 H 
ATOM     24  H8  AFQ d          15.501  13.887  18.478  0.00  0.00     0.076 H 
BRANCH  22  25
ATOM     25  N20 AFQ d          13.635  14.236  17.488  0.00  0.00    -0.074 N 
ATOM     26  H9  AFQ d          13.695  13.310  17.097  0.00  0.00     0.277 HD
ATOM     27  H10 AFQ d          14.009  14.903  16.832  0.00  0.00     0.277 HD
BRANCH  25  28
ATOM     28  C21 AFQ d          12.186  14.554  17.680  0.00  0.00     0.085 C 
ATOM     29  H11 AFQ d          12.034  15.011  18.669  0.00  0.00     0.076 H 
ATOM     30  H12 AFQ d          11.591  13.631  17.608  0.00  0.00     0.076 H 
BRANCH  28  31
ATOM     31  C22 AFQ d          11.750  15.551  16.566  0.00  0.00    -0.031 C 
ATOM     32  C26 AFQ d          12.651  15.494  15.320  0.00  0.00    -0.060 C 
ATOM     33  C25 AFQ d          12.542  16.911  14.702  0.00  0.00    -0.065 C 
ATOM     34  H14 AFQ d          12.289  14.732  14.613  0.00  0.00     0.033 H 
ATOM     35  H15 AFQ d          13.690  15.270  15.600  0.00  0.00     0.033 H 
ATOM     36  C24 AFQ d          12.437  17.871  15.934  0.00  0.00    -0.065 C 
ATOM     37  H16 AFQ d          11.646  16.991  14.070  0.00  0.00     0.033 H 
ATOM     38  H17 AFQ d          13.435  17.143  14.104  0.00  0.00     0.033 H 
ATOM     39  C23 AFQ d          11.843  17.013  17.066  0.00  0.00    -0.060 C 
ATOM     40  H18 AFQ d          11.775  18.720  15.706  0.00  0.00     0.033 H 
ATOM     41  H19 AFQ d          13.432  18.247  16.216  0.00  0.00     0.033 H 
ATOM     42  H20 AFQ d          12.493  17.062  17.952  0.00  0.00     0.033 H 
ATOM     43  H21 AFQ d          10.840  17.382  17.326  0.00  0.00     0.033 H 
ATOM     44  H13 AFQ d          10.713  15.319  16.279  0.00  0.00     0.042 H 
ENDBRANCH  28  31
ENDBRANCH  25  28
ENDBRANCH  22  25
ENDBRANCH  19  22
ENDBRANCH   7  19
BRANCH   4  45
ATOM     45  N17 AFQ d          17.025  16.423  23.472  0.00  0.00    -0.234 N 
ATOM     46  H2  AFQ d          17.697  16.065  24.165  0.00  0.00     0.174 HD
ATOM     47  H3  AFQ d          16.048  16.604  23.746  0.00  0.00     0.174 HD
ENDBRANCH   4  45
BRANCH  10  48
ATOM     48  N14 AFQ d          16.389  17.132  14.140  0.00  0.00    -0.229 N 
ATOM     49  H22 AFQ d          16.477  18.073  13.730  0.00  0.00     0.177 HD
BRANCH  48  50
ATOM     50  C15 AFQ d          16.134  16.042  13.221  0.00  0.00    -0.005 C 
ATOM     51  H23 AFQ d          15.149  16.181  12.751  0.00  0.00     0.057 H 
ATOM     52  H24 AFQ d          16.146  15.089  13.770  0.00  0.00     0.057 H 
ATOM     53  H25 AFQ d          16.911  16.027  12.444  0.00  0.00     0.057 H 
ENDBRANCH  48  50
ENDBRANCH  10  48
TORSDOF 8
ENDMDL
MODEL 5
REMARK VINA RESULT:      -7.9      2.602      5.286
REMARK  8 active torsions:
REMARK  status: ('A' for Active; 'I' for Inactive)
REMARK    1  A    between atoms: C4_4  and  N17_5 
REMARK    2  A    between atoms: C10_8  and  C18_9 
REMARK    3  A    between atoms: C18_9  and  C19_10 
REMARK    4  A    between atoms: C19_10  and  N20_11 
REMARK    5  A    between atoms: N20_11  and  C21_12 
REMARK    6  A    between atoms: C21_12  and  C22_13 
REMARK    7  A    between atoms: C12_20  and  N14_21 
REMARK    8  A    between atoms: N14_21  and  C15_22 
ROOT
ATOM      1  C2  AFQ d          17.890  17.511  15.012  0.00  0.00     0.272 C 
ATOM      2  O16 AFQ d          18.977  17.979  14.727  0.00  0.00    -0.267 OA
ATOM      3  N3  AFQ d          16.943  17.169  14.098  0.00  0.00    -0.156 N 
ATOM      4  C4  AFQ d          15.732  16.732  14.555  0.00  0.00     0.679 C 
ATOM      5  N5  AFQ d          15.488  16.492  15.794  0.00  0.00    -0.190 N 
ATOM      6  C6  AFQ d          16.372  16.692  16.817  0.00  0.00     0.073 A 
ATOM      7  C10 AFQ d          16.016  16.378  18.149  0.00  0.00     0.004 A 
ATOM      8  C9  AFQ d          17.021  16.615  19.089  0.00  0.00     0.111 A 
ATOM      9  N11 AFQ d          17.136  16.388  20.420  0.00  0.00    -0.062 NA
ATOM     10  C12 AFQ d          18.263  16.789  20.868  0.00  0.00     0.701 A 
ATOM     11  N13 AFQ d          19.033  17.272  19.874  0.00  0.00    -0.188 N 
ATOM     12  C8  AFQ d          18.235  17.134  18.723  0.00  0.00     0.080 A 
ATOM     13  C7  AFQ d          18.618  17.478  17.428  0.00  0.00    -0.037 A 
ATOM     14  C1  AFQ d          17.614  17.252  16.472  0.00  0.00     0.062 A 
ATOM     15  H1  AFQ d          17.128  17.234  13.118  0.00  0.00     0.187 HD
ATOM     16  H4  AFQ d          14.558  16.121  16.034  0.00  0.00     0.184 HD
ATOM     17  H26 AFQ d          19.987  17.655  19.941  0.00  0.00     0.184 HD
ATOM     18  H27 AFQ d          19.594  17.881  17.183  0.00  0.00     0.088 H 
ENDROOT
BRANCH   7  19
ATOM     19  C18 AFQ d          14.630  16.005  18.642  0.00  0.00    -0.014 C 
ATOM     20  H5  AFQ d          13.899  16.627  18.106  0.00  0.00     0.042 H 
ATOM     21  H6  AFQ d          14.580  16.227  19.718  0.00  0.00     0.042 H 
BRANCH  19  22
ATOM     22  C19 AFQ d          14.231  14.502  18.438  0.00  0.00     0.085 C 
ATOM     23  H7  AFQ d          13.975  14.036  19.401  0.00  0.00     0.076 H 
ATOM     24  H8  AFQ d          15.054  13.944  17.968  0.00  0.00     0.076 H 
BRANCH  22  25
ATOM     25  N20 AFQ d          13.042  14.536  17.540  0.00  0.00    -0.074 N 
ATOM     26  H9  AFQ d          12.962  13.631  17.105  0.00  0.00     0.277 HD
ATOM     27  H10 AFQ d          13.213  15.234  16.835  0.00  0.00     0.277 HD
BRANCH  25  28
ATOM     28  C21 AFQ d          11.726  14.849  18.179  0.00  0.00     0.085 C 
ATOM     29  H11 AFQ d          11.890  15.229  19.198  0.00  0.00     0.076 H 
ATOM     30  H12 AFQ d          11.109  13.939  18.222  0.00  0.00     0.076 H 
BRANCH  28  31
ATOM     31  C22 AFQ d          11.009  15.933  17.321  0.00  0.00    -0.031 C 
ATOM     32  C26 AFQ d          10.268  15.347  16.106  0.00  0.00    -0.060 C 
ATOM     33  C25 AFQ d          10.253  16.500  15.072  0.00  0.00    -0.065 C 
ATOM     34  H14 AFQ d           9.242  15.055  16.379  0.00  0.00     0.033 H 
ATOM     35  H15 AFQ d          10.803  14.473  15.708  0.00  0.00     0.033 H 
ATOM     36  C24 AFQ d          11.626  17.226  15.271  0.00  0.00    -0.065 C 
ATOM     37  H16 AFQ d           9.418  17.188  15.269  0.00  0.00     0.033 H 
ATOM     38  H17 AFQ d          10.168  16.103  14.050  0.00  0.00     0.033 H 
ATOM     39  C23 AFQ d          12.031  16.932  16.728  0.00  0.00    -0.060 C 
ATOM     40  H18 AFQ d          11.517  18.309  15.112  0.00  0.00     0.033 H 
ATOM     41  H19 AFQ d          12.378  16.827  14.574  0.00  0.00     0.033 H 
ATOM     42  H20 AFQ d          13.038  16.493  16.753  0.00  0.00     0.033 H 
ATOM     43  H21 AFQ d          12.022  17.864  17.311  0.00  0.00     0.033 H 
ATOM     44  H13 AFQ d          10.294  16.467  17.964  0.00  0.00     0.042 H 
ENDBRANCH  28  31
ENDBRANCH  25  28
ENDBRANCH  22  25
ENDBRANCH  19  22
ENDBRANCH   7  19
BRANCH   4  45
ATOM     45  N17 AFQ d          14.778  16.480  13.621  0.00  0.00    -0.234 N 
ATOM     46  H2  AFQ d          14.748  15.565  13.149  0.00  0.00     0.174 HD
ATOM     47  H3  AFQ d          14.084  17.205  13.385  0.00  0.00     0.174 HD
ENDBRANCH   4  45
BRANCH  10  48
ATOM     48  N14 AFQ d          18.801  16.816  22.088  0.00  0.00    -0.229 N 
ATOM     49  H22 AFQ d          19.794  16.550  22.163  0.00  0.00     0.177 HD
BRANCH  48  50
ATOM     50  C15 AFQ d          18.129  17.182  23.318  0.00  0.00    -0.005 C 
ATOM     51  H23 AFQ d          17.076  16.870  23.268  0.00  0.00     0.057 H 
ATOM     52  H24 AFQ d          18.183  18.272  23.454  0.00  0.00     0.057 H 
ATOM     53  H25 AFQ d          18.620  16.683  24.166  0.00  0.00     0.057 H 
ENDBRANCH  48  50
ENDBRANCH  10  48
TORSDOF 8
ENDMDL
