MODEL 1
REMARK VINA RESULT:      -6.5      0.000      0.000
REMARK  9 active torsions:
REMARK  status: ('A' for Active; 'I' for Inactive)
REMARK    1  A    between atoms: C1_1  and  S1_12 
REMARK    2  A    between atoms: C2_2  and  O2_3 
REMARK    3  A    between atoms: C3_4  and  O3_5 
REMARK    4  A    between atoms: C4_6  and  O4_7 
REMARK    5  A    between atoms: C5_8  and  C6_10 
REMARK    6  A    between atoms: C6_10  and  O6_11 
REMARK    7  A    between atoms: S1_12  and  C1'_13 
REMARK    8  A    between atoms: C1'_13  and  C2'_14 
REMARK    9  A    between atoms: C1'_13  and  C3'_15 
ROOT
ATOM      1  C1  IPT d         -14.947 -27.746 -26.509  0.00  0.00     0.110 C 
ATOM      2  C2  IPT d         -13.872 -27.471 -25.453  0.00  0.00     0.096 C 
ATOM      3  C3  IPT d         -12.530 -27.100 -26.095  0.00  0.00     0.090 C 
ATOM      4  C4  IPT d         -12.156 -28.026 -27.261  0.00  0.00     0.089 C 
ATOM      5  C5  IPT d         -13.352 -28.163 -28.213  0.00  0.00     0.087 C 
ATOM      6  O5  IPT d         -14.452 -28.676 -27.470  0.00  0.00    -0.363 OA
ATOM      7  H1  IPT d         -15.204 -26.799 -27.006  0.00  0.00     0.104 H 
ATOM      8  H2  IPT d         -13.735 -28.372 -24.836  0.00  0.00     0.092 H 
ATOM      9  H4  IPT d         -12.617 -26.077 -26.491  0.00  0.00     0.091 H 
ATOM     10  H6  IPT d         -11.308 -27.594 -27.813  0.00  0.00     0.091 H 
ATOM     11  H8  IPT d         -13.596 -27.159 -28.590  0.00  0.00     0.090 H 
ENDROOT
BRANCH   1  12
ATOM     12  S1  IPT d         -16.409 -28.454 -25.813  0.00  0.00    -0.131 SA
BRANCH  12  13
ATOM     13  C1' IPT d         -17.788 -27.991 -26.829  0.00  0.00    -0.014 C 
ATOM     14  H12 IPT d         -17.683 -26.929 -27.094  0.00  0.00     0.055 H 
BRANCH  13  15
ATOM     15  C2' IPT d         -17.830 -28.806 -28.124  0.00  0.00    -0.065 C 
ATOM     16  H13 IPT d         -18.822 -28.703 -28.590  0.00  0.00     0.028 H 
ATOM     17  H14 IPT d         -17.639 -29.865 -27.897  0.00  0.00     0.028 H 
ATOM     18  H15 IPT d         -17.060 -28.434 -28.816  0.00  0.00     0.028 H 
ENDBRANCH  13  15
BRANCH  13  19
ATOM     19  C3' IPT d         -19.081 -28.171 -26.040  0.00  0.00    -0.065 C 
ATOM     20  H16 IPT d         -19.431 -27.191 -25.683  0.00  0.00     0.028 H 
ATOM     21  H17 IPT d         -18.897 -28.831 -25.179  0.00  0.00     0.028 H 
ATOM     22  H18 IPT d         -19.847 -28.620 -26.689  0.00  0.00     0.028 H 
ENDBRANCH  13  19
ENDBRANCH  12  13
ENDBRANCH   1  12
BRANCH   2  23
ATOM     23  O2  IPT d         -14.313 -26.391 -24.628  0.00  0.00    -0.389 OA
ATOM     24  H3  IPT d         -13.926 -26.475 -23.764  0.00  0.00     0.210 HD
ENDBRANCH   2  23
BRANCH   3  25
ATOM     25  O3  IPT d         -11.485 -27.117 -25.108  0.00  0.00    -0.390 OA
ATOM     26  H5  IPT d         -11.870 -27.180 -24.241  0.00  0.00     0.210 HD
ENDBRANCH   3  25
BRANCH   5  27
ATOM     27  C6  IPT d         -13.163 -29.083 -29.415  0.00  0.00     0.043 C 
ATOM     28  H9  IPT d         -13.758 -28.697 -30.257  0.00  0.00     0.078 H 
ATOM     29  H10 IPT d         -13.513 -30.091 -29.151  0.00  0.00     0.078 H 
BRANCH  27  30
ATOM     30  O6  IPT d         -11.788 -29.157 -29.813  0.00  0.00    -0.398 OA
ATOM     31  H11 IPT d         -11.718 -28.977 -30.742  0.00  0.00     0.209 HD
ENDBRANCH  27  30
ENDBRANCH   5  27
BRANCH   4  32
ATOM     32  O4  IPT d         -11.771 -29.306 -26.738  0.00  0.00    -0.390 OA
ATOM     33  H7  IPT d         -12.347 -29.975 -27.086  0.00  0.00     0.210 HD
ENDBRANCH   4  32
TORSDOF 9
ENDMDL
MODEL 2
REMARK VINA RESULT:      -5.7      1.685      3.467
REMARK  9 active torsions:
REMARK  status: ('A' for Active; 'I' for Inactive)
REMARK    1  A    between atoms: C1_1  and  S1_12 
REMARK    2  A    between atoms: C2_2  and  O2_3 
REMARK    3  A    between atoms: C3_4  and  O3_5 
REMARK    4  A    between atoms: C4_6  and  O4_7 
REMARK    5  A    between atoms: C5_8  and  C6_10 
REMARK    6  A    between atoms: C6_10  and  O6_11 
REMARK    7  A    between atoms: S1_12  and  C1'_13 
REMARK    8  A    between atoms: C1'_13  and  C2'_14 
REMARK    9  A    between atoms: C1'_13  and  C3'_15 
ROOT
ATOM      1  C1  IPT d         -13.604 -28.488 -26.483  0.00  0.00     0.110 C 
ATOM      2  C2  IPT d         -13.403 -28.438 -28.002  0.00  0.00     0.096 C 
ATOM      3  C3  IPT d         -12.094 -29.118 -28.422  0.00  0.00     0.090 C 
ATOM      4  C4  IPT d         -10.907 -28.713 -27.537  0.00  0.00     0.089 C 
ATOM      5  C5  IPT d         -11.298 -28.844 -26.059  0.00  0.00     0.087 C 
ATOM      6  O5  IPT d         -12.431 -28.013 -25.827  0.00  0.00    -0.363 OA
ATOM      7  H1  IPT d         -13.801 -29.529 -26.188  0.00  0.00     0.104 H 
ATOM      8  H2  IPT d         -13.379 -27.387 -28.327  0.00  0.00     0.092 H 
ATOM      9  H4  IPT d         -12.234 -30.205 -28.324  0.00  0.00     0.091 H 
ATOM     10  H6  IPT d         -10.057 -29.380 -27.742  0.00  0.00     0.091 H 
ATOM     11  H8  IPT d         -11.566 -29.895 -25.876  0.00  0.00     0.090 H 
ENDROOT
BRANCH   1  12
ATOM     12  S1  IPT d         -14.943 -27.467 -25.947  0.00  0.00    -0.131 SA
BRANCH  12  13
ATOM     13  C1' IPT d         -16.378 -28.490 -25.752  0.00  0.00    -0.014 C 
ATOM     14  H12 IPT d         -16.073 -29.542 -25.864  0.00  0.00     0.055 H 
BRANCH  13  15
ATOM     15  C2' IPT d         -17.006 -28.319 -24.366  0.00  0.00    -0.065 C 
ATOM     16  H13 IPT d         -17.672 -29.169 -24.157  0.00  0.00     0.028 H 
ATOM     17  H14 IPT d         -17.584 -27.384 -24.338  0.00  0.00     0.028 H 
ATOM     18  H15 IPT d         -16.211 -28.282 -23.606  0.00  0.00     0.028 H 
ENDBRANCH  13  15
BRANCH  13  19
ATOM     19  C3' IPT d         -17.390 -28.158 -26.843  0.00  0.00    -0.065 C 
ATOM     20  H16 IPT d         -17.374 -28.946 -27.610  0.00  0.00     0.028 H 
ATOM     21  H17 IPT d         -17.130 -27.193 -27.303  0.00  0.00     0.028 H 
ATOM     22  H18 IPT d         -18.397 -28.095 -26.403  0.00  0.00     0.028 H 
ENDBRANCH  13  19
ENDBRANCH  12  13
ENDBRANCH   1  12
BRANCH   2  23
ATOM     23  O2  IPT d         -14.502 -29.105 -28.626  0.00  0.00    -0.389 OA
ATOM     24  H3  IPT d         -15.271 -29.029 -28.074  0.00  0.00     0.210 HD
ENDBRANCH   2  23
BRANCH   3  25
ATOM     25  O3  IPT d         -11.799 -28.820 -29.797  0.00  0.00    -0.390 OA
ATOM     26  H5  IPT d         -10.907 -29.084 -29.993  0.00  0.00     0.210 HD
ENDBRANCH   3  25
BRANCH   5  27
ATOM     27  C6  IPT d         -10.240 -28.444 -25.037  0.00  0.00     0.043 C 
ATOM     28  H9  IPT d          -9.250 -28.473 -25.517  0.00  0.00     0.078 H 
ATOM     29  H10 IPT d         -10.263 -29.158 -24.201  0.00  0.00     0.078 H 
BRANCH  27  30
ATOM     30  O6  IPT d         -10.470 -27.125 -24.527  0.00  0.00    -0.398 OA
ATOM     31  H11 IPT d         -10.775 -27.182 -23.630  0.00  0.00     0.209 HD
ENDBRANCH  27  30
ENDBRANCH   5  27
BRANCH   4  32
ATOM     32  O4  IPT d         -10.530 -27.364 -27.848  0.00  0.00    -0.390 OA
ATOM     33  H7  IPT d          -9.798 -27.106 -27.301  0.00  0.00     0.210 HD
ENDBRANCH   4  32
TORSDOF 9
ENDMDL
MODEL 3
REMARK VINA RESULT:      -5.6      0.885      1.240
REMARK  9 active torsions:
REMARK  status: ('A' for Active; 'I' for Inactive)
REMARK    1  A    between atoms: C1_1  and  S1_12 
REMARK    2  A    between atoms: C2_2  and  O2_3 
REMARK    3  A    between atoms: C3_4  and  O3_5 
REMARK    4  A    between atoms: C4_6  and  O4_7 
REMARK    5  A    between atoms: C5_8  and  C6_10 
REMARK    6  A    between atoms: C6_10  and  O6_11 
REMARK    7  A    between atoms: S1_12  and  C1'_13 
REMARK    8  A    between atoms: C1'_13  and  C2'_14 
REMARK    9  A    between atoms: C1'_13  and  C3'_15 
ROOT
ATOM      1  C1  IPT d         -14.916 -28.074 -26.311  0.00  0.00     0.110 C 
ATOM      2  C2  IPT d         -13.791 -27.625 -25.372  0.00  0.00     0.096 C 
ATOM      3  C3  IPT d         -12.610 -27.031 -26.149  0.00  0.00     0.090 C 
ATOM      4  C4  IPT d         -12.219 -27.875 -27.370  0.00  0.00     0.089 C 
ATOM      5  C5  IPT d         -13.474 -28.208 -28.188  0.00  0.00     0.087 C 
ATOM      6  O5  IPT d         -14.382 -28.903 -27.341  0.00  0.00    -0.363 OA
ATOM      7  H1  IPT d         -15.382 -27.182 -26.755  0.00  0.00     0.104 H 
ATOM      8  H2  IPT d         -13.437 -28.493 -24.795  0.00  0.00     0.092 H 
ATOM      9  H4  IPT d         -12.911 -26.035 -26.509  0.00  0.00     0.091 H 
ATOM     10  H6  IPT d         -11.522 -27.304 -28.000  0.00  0.00     0.091 H 
ATOM     11  H8  IPT d         -13.923 -27.258 -28.513  0.00  0.00     0.090 H 
ENDROOT
BRANCH   1  12
ATOM     12  S1  IPT d         -16.152 -29.021 -25.476  0.00  0.00    -0.131 SA
BRANCH  12  13
ATOM     13  C1' IPT d         -17.745 -28.417 -25.972  0.00  0.00    -0.014 C 
ATOM     14  H12 IPT d         -18.514 -29.088 -25.561  0.00  0.00     0.055 H 
BRANCH  13  15
ATOM     15  C2' IPT d         -18.003 -27.007 -25.435  0.00  0.00    -0.065 C 
ATOM     16  H13 IPT d         -17.395 -26.283 -25.997  0.00  0.00     0.028 H 
ATOM     17  H14 IPT d         -17.731 -26.965 -24.370  0.00  0.00     0.028 H 
ATOM     18  H15 IPT d         -19.068 -26.760 -25.552  0.00  0.00     0.028 H 
ENDBRANCH  13  15
BRANCH  13  19
ATOM     19  C3' IPT d         -17.842 -28.437 -27.494  0.00  0.00    -0.065 C 
ATOM     20  H16 IPT d         -16.906 -28.830 -27.916  0.00  0.00     0.028 H 
ATOM     21  H17 IPT d         -18.011 -27.415 -27.864  0.00  0.00     0.028 H 
ATOM     22  H18 IPT d         -18.681 -29.080 -27.799  0.00  0.00     0.028 H 
ENDBRANCH  13  19
ENDBRANCH  12  13
ENDBRANCH   1  12
BRANCH   2  23
ATOM     23  O2  IPT d         -14.312 -26.639 -24.480  0.00  0.00    -0.389 OA
ATOM     24  H3  IPT d         -15.229 -26.488 -24.677  0.00  0.00     0.210 HD
ENDBRANCH   2  23
BRANCH   3  25
ATOM     25  O3  IPT d         -11.473 -26.874 -25.282  0.00  0.00    -0.390 OA
ATOM     26  H5  IPT d         -11.130 -25.992 -25.367  0.00  0.00     0.210 HD
ENDBRANCH   3  25
BRANCH   5  27
ATOM     27  C6  IPT d         -13.269 -29.078 -29.424  0.00  0.00     0.043 C 
ATOM     28  H9  IPT d         -12.223 -29.421 -29.450  0.00  0.00     0.078 H 
ATOM     29  H10 IPT d         -13.481 -28.479 -30.321  0.00  0.00     0.078 H 
BRANCH  27  30
ATOM     30  O6  IPT d         -14.133 -30.221 -29.413  0.00  0.00    -0.398 OA
ATOM     31  H11 IPT d         -13.618 -31.005 -29.267  0.00  0.00     0.209 HD
ENDBRANCH  27  30
ENDBRANCH   5  27
BRANCH   4  32
ATOM     32  O4  IPT d         -11.569 -29.074 -26.921  0.00  0.00    -0.390 OA
ATOM     33  H7  IPT d         -11.306 -29.591 -27.673  0.00  0.00     0.210 HD
ENDBRANCH   4  32
TORSDOF 9
ENDMDL
MODEL 4
REMARK VINA RESULT:      -5.2      1.941      3.622
REMARK  9 active torsions:
REMARK  status: ('A' for Active; 'I' for Inactive)
REMARK    1  A    between atoms: C1_1  and  S1_12 
REMARK    2  A    between atoms: C2_2  and  O2_3 
REMARK    3  A    between atoms: C3_4  and  O3_5 
REMARK    4  A    between atoms: C4_6  and  O4_7 
REMARK    5  A    between atoms: C5_8  and  C6_10 
REMARK    6  A    between atoms: C6_10  and  O6_11 
REMARK    7  A    between atoms: S1_12  and  C1'_13 
REMARK    8  A    between atoms: C1'_13  and  C2'_14 
REMARK    9  A    between atoms: C1'_13  and  C3'_15 
ROOT
ATOM      1  C1  IPT d         -15.177 -28.225 -26.456  0.00  0.00     0.110 C 
ATOM      2  C2  IPT d         -15.235 -28.292 -27.986  0.00  0.00     0.096 C 
ATOM      3  C3  IPT d         -13.998 -28.986 -28.569  0.00  0.00     0.090 C 
ATOM      4  C4  IPT d         -12.690 -28.497 -27.931  0.00  0.00     0.089 C 
ATOM      5  C5  IPT d         -12.824 -28.517 -26.402  0.00  0.00     0.087 C 
ATOM      6  O5  IPT d         -13.923 -27.685 -26.045  0.00  0.00    -0.363 OA
ATOM      7  H1  IPT d         -15.294 -29.242 -26.053  0.00  0.00     0.104 H 
ATOM      8  H2  IPT d         -15.294 -27.270 -28.388  0.00  0.00     0.092 H 
ATOM      9  H4  IPT d         -14.090 -30.063 -28.367  0.00  0.00     0.091 H 
ATOM     10  H6  IPT d         -11.869 -29.166 -28.226  0.00  0.00     0.091 H 
ATOM     11  H8  IPT d         -13.030 -29.553 -26.098  0.00  0.00     0.090 H 
ENDROOT
BRANCH   1  12
ATOM     12  S1  IPT d         -16.433 -27.183 -25.779  0.00  0.00    -0.131 SA
BRANCH  12  13
ATOM     13  C1' IPT d         -16.236 -27.147 -24.017  0.00  0.00    -0.014 C 
ATOM     14  H12 IPT d         -15.542 -27.951 -23.729  0.00  0.00     0.055 H 
BRANCH  13  15
ATOM     15  C2' IPT d         -15.650 -25.815 -23.544  0.00  0.00    -0.065 C 
ATOM     16  H13 IPT d         -15.957 -25.014 -24.233  0.00  0.00     0.028 H 
ATOM     17  H14 IPT d         -14.552 -25.883 -23.527  0.00  0.00     0.028 H 
ATOM     18  H15 IPT d         -16.019 -25.590 -22.533  0.00  0.00     0.028 H 
ENDBRANCH  13  15
BRANCH  13  19
ATOM     19  C3' IPT d         -17.583 -27.406 -23.351  0.00  0.00    -0.065 C 
ATOM     20  H16 IPT d         -17.421 -27.813 -22.342  0.00  0.00     0.028 H 
ATOM     21  H17 IPT d         -18.156 -28.130 -23.950  0.00  0.00     0.028 H 
ATOM     22  H18 IPT d         -18.145 -26.463 -23.280  0.00  0.00     0.028 H 
ENDBRANCH  13  19
ENDBRANCH  12  13
ENDBRANCH   1  12
BRANCH   2  23
ATOM     23  O2  IPT d         -16.405 -29.021 -28.363  0.00  0.00    -0.389 OA
ATOM     24  H3  IPT d         -17.045 -28.423 -28.730  0.00  0.00     0.210 HD
ENDBRANCH   2  23
BRANCH   3  25
ATOM     25  O3  IPT d         -13.946 -28.794 -29.993  0.00  0.00    -0.390 OA
ATOM     26  H5  IPT d         -13.083 -29.031 -30.312  0.00  0.00     0.210 HD
ENDBRANCH   3  25
BRANCH   5  27
ATOM     27  C6  IPT d         -11.620 -28.023 -25.607  0.00  0.00     0.043 C 
ATOM     28  H9  IPT d         -10.707 -28.201 -26.195  0.00  0.00     0.078 H 
ATOM     29  H10 IPT d         -11.563 -28.582 -24.662  0.00  0.00     0.078 H 
BRANCH  27  30
ATOM     30  O6  IPT d         -11.719 -26.624 -25.314  0.00  0.00    -0.398 OA
ATOM     31  H11 IPT d         -11.796 -26.136 -26.125  0.00  0.00     0.209 HD
ENDBRANCH  27  30
ENDBRANCH   5  27
BRANCH   4  32
ATOM     32  O4  IPT d         -12.406 -27.171 -28.402  0.00  0.00    -0.390 OA
ATOM     33  H7  IPT d         -12.005 -26.667 -27.704  0.00  0.00     0.210 HD
ENDBRANCH   4  32
TORSDOF 9
ENDMDL
MODEL 5
REMARK VINA RESULT:      -4.8      2.322      5.772
REMARK  9 active torsions:
REMARK  status: ('A' for Active; 'I' for Inactive)
REMARK    1  A    between atoms: C1_1  and  S1_12 
REMARK    2  A    between atoms: C2_2  and  O2_3 
REMARK    3  A    between atoms: C3_4  and  O3_5 
REMARK    4  A    between atoms: C4_6  and  O4_7 
REMARK    5  A    between atoms: C5_8  and  C6_10 
REMARK    6  A    between atoms: C6_10  and  O6_11 
REMARK    7  A    between atoms: S1_12  and  C1'_13 
REMARK    8  A    between atoms: C1'_13  and  C2'_14 
REMARK    9  A    between atoms: C1'_13  and  C3'_15 
ROOT
ATOM      1  C1  IPT d         -14.336 -27.853 -26.241  0.00  0.00     0.110 C 
ATOM      2  C2  IPT d         -15.404 -28.615 -27.034  0.00  0.00     0.096 C 
ATOM      3  C3  IPT d         -16.743 -27.868 -27.041  0.00  0.00     0.090 C 
ATOM      4  C4  IPT d         -17.133 -27.339 -25.653  0.00  0.00     0.089 C 
ATOM      5  C5  IPT d         -15.942 -26.597 -25.032  0.00  0.00     0.087 C 
ATOM      6  O5  IPT d         -14.847 -27.504 -24.957  0.00  0.00    -0.363 OA
ATOM      7  H1  IPT d         -14.067 -26.943 -26.796  0.00  0.00     0.104 H 
ATOM      8  H2  IPT d         -15.551 -29.605 -26.578  0.00  0.00     0.092 H 
ATOM      9  H4  IPT d         -16.642 -27.004 -27.715  0.00  0.00     0.091 H 
ATOM     10  H6  IPT d         -17.976 -26.641 -25.754  0.00  0.00     0.091 H 
ATOM     11  H8  IPT d         -15.686 -25.760 -25.697  0.00  0.00     0.090 H 
ENDROOT
BRANCH   1  12
ATOM     12  S1  IPT d         -12.881 -28.820 -25.970  0.00  0.00    -0.131 SA
BRANCH  12  13
ATOM     13  C1' IPT d         -11.502 -27.959 -26.680  0.00  0.00    -0.014 C 
ATOM     14  H12 IPT d         -11.549 -26.907 -26.362  0.00  0.00     0.055 H 
BRANCH  13  15
ATOM     15  C2' IPT d         -10.170 -28.544 -26.203  0.00  0.00    -0.065 C 
ATOM     16  H13 IPT d         -10.309 -29.024 -25.223  0.00  0.00     0.028 H 
ATOM     17  H14 IPT d          -9.427 -27.738 -26.115  0.00  0.00     0.028 H 
ATOM     18  H15 IPT d          -9.817 -29.290 -26.930  0.00  0.00     0.028 H 
ENDBRANCH  13  15
BRANCH  13  19
ATOM     19  C3' IPT d         -11.598 -28.014 -28.200  0.00  0.00    -0.065 C 
ATOM     20  H16 IPT d         -11.641 -29.064 -28.527  0.00  0.00     0.028 H 
ATOM     21  H17 IPT d         -10.716 -27.529 -28.642  0.00  0.00     0.028 H 
ATOM     22  H18 IPT d         -12.508 -27.491 -28.530  0.00  0.00     0.028 H 
ENDBRANCH  13  19
ENDBRANCH  12  13
ENDBRANCH   1  12
BRANCH   2  23
ATOM     23  O2  IPT d         -14.944 -28.771 -28.378  0.00  0.00    -0.389 OA
ATOM     24  H3  IPT d         -14.196 -28.204 -28.523  0.00  0.00     0.210 HD
ENDBRANCH   2  23
BRANCH   3  25
ATOM     25  O3  IPT d         -17.784 -28.719 -27.548  0.00  0.00    -0.390 OA
ATOM     26  H5  IPT d         -17.726 -28.760 -28.495  0.00  0.00     0.210 HD
ENDBRANCH   3  25
BRANCH   5  27
ATOM     27  C6  IPT d         -16.148 -26.036 -23.628  0.00  0.00     0.043 C 
ATOM     28  H9  IPT d         -15.609 -25.081 -23.543  0.00  0.00     0.078 H 
ATOM     29  H10 IPT d         -15.745 -26.751 -22.896  0.00  0.00     0.078 H 
BRANCH  27  30
ATOM     30  O6  IPT d         -17.536 -25.814 -23.347  0.00  0.00    -0.398 OA
ATOM     31  H11 IPT d         -17.994 -26.646 -23.343  0.00  0.00     0.209 HD
ENDBRANCH  27  30
ENDBRANCH   5  27
BRANCH   4  32
ATOM     32  O4  IPT d         -17.535 -28.443 -24.829  0.00  0.00    -0.390 OA
ATOM     33  H7  IPT d         -17.392 -29.256 -25.298  0.00  0.00     0.210 HD
ENDBRANCH   4  32
TORSDOF 9
ENDMDL
MODEL 6
REMARK VINA RESULT:      -4.4      2.550      5.129
REMARK  9 active torsions:
REMARK  status: ('A' for Active; 'I' for Inactive)
REMARK    1  A    between atoms: C1_1  and  S1_12 
REMARK    2  A    between atoms: C2_2  and  O2_3 
REMARK    3  A    between atoms: C3_4  and  O3_5 
REMARK    4  A    between atoms: C4_6  and  O4_7 
REMARK    5  A    between atoms: C5_8  and  C6_10 
REMARK    6  A    between atoms: C6_10  and  O6_11 
REMARK    7  A    between atoms: S1_12  and  C1'_13 
REMARK    8  A    between atoms: C1'_13  and  C2'_14 
REMARK    9  A    between atoms: C1'_13  and  C3'_15 
ROOT
ATOM      1  C1  IPT d         -15.027 -28.214 -25.960  0.00  0.00     0.110 C 
ATOM      2  C2  IPT d         -15.354 -26.913 -25.218  0.00  0.00     0.096 C 
ATOM      3  C3  IPT d         -16.528 -27.095 -24.248  0.00  0.00     0.090 C 
ATOM      4  C4  IPT d         -17.698 -27.868 -24.874  0.00  0.00     0.089 C 
ATOM      5  C5  IPT d         -17.171 -29.140 -25.552  0.00  0.00     0.087 C 
ATOM      6  O5  IPT d         -16.215 -28.753 -26.533  0.00  0.00    -0.363 OA
ATOM      7  H1  IPT d         -14.600 -28.931 -25.243  0.00  0.00     0.104 H 
ATOM      8  H2  IPT d         -15.616 -26.137 -25.952  0.00  0.00     0.092 H 
ATOM      9  H4  IPT d         -16.164 -27.673 -23.385  0.00  0.00     0.091 H 
ATOM     10  H6  IPT d         -18.410 -28.152 -24.085  0.00  0.00     0.091 H 
ATOM     11  H8  IPT d         -16.683 -29.752 -24.780  0.00  0.00     0.090 H 
ENDROOT
BRANCH   1  12
ATOM     12  S1  IPT d         -13.883 -27.964 -27.284  0.00  0.00    -0.131 SA
BRANCH  12  13
ATOM     13  C1' IPT d         -12.239 -28.103 -26.631  0.00  0.00    -0.014 C 
ATOM     14  H12 IPT d         -12.041 -27.224 -25.999  0.00  0.00     0.055 H 
BRANCH  13  15
ATOM     15  C2' IPT d         -12.081 -29.358 -25.770  0.00  0.00    -0.065 C 
ATOM     16  H13 IPT d         -12.802 -30.121 -26.096  0.00  0.00     0.028 H 
ATOM     17  H14 IPT d         -12.267 -29.104 -24.715  0.00  0.00     0.028 H 
ATOM     18  H15 IPT d         -11.059 -29.750 -25.878  0.00  0.00     0.028 H 
ENDBRANCH  13  15
BRANCH  13  19
ATOM     19  C3' IPT d         -11.237 -28.112 -27.781  0.00  0.00    -0.065 C 
ATOM     20  H16 IPT d         -10.682 -29.061 -27.775  0.00  0.00     0.028 H 
ATOM     21  H17 IPT d         -10.534 -27.274 -27.661  0.00  0.00     0.028 H 
ATOM     22  H18 IPT d         -11.773 -28.006 -28.736  0.00  0.00     0.028 H 
ENDBRANCH  13  19
ENDBRANCH  12  13
ENDBRANCH   1  12
BRANCH   2  23
ATOM     23  O2  IPT d         -14.197 -26.506 -24.485  0.00  0.00    -0.389 OA
ATOM     24  H3  IPT d         -13.499 -27.136 -24.622  0.00  0.00     0.210 HD
ENDBRANCH   2  23
BRANCH   3  25
ATOM     25  O3  IPT d         -16.986 -25.817 -23.777  0.00  0.00    -0.390 OA
ATOM     26  H5  IPT d         -16.295 -25.173 -23.886  0.00  0.00     0.210 HD
ENDBRANCH   3  25
BRANCH   5  27
ATOM     27  C6  IPT d         -18.204 -30.011 -26.260  0.00  0.00     0.043 C 
ATOM     28  H9  IPT d         -19.198 -29.798 -25.839  0.00  0.00     0.078 H 
ATOM     29  H10 IPT d         -17.953 -31.068 -26.093  0.00  0.00     0.078 H 
BRANCH  27  30
ATOM     30  O6  IPT d         -18.231 -29.756 -27.670  0.00  0.00    -0.398 OA
ATOM     31  H11 IPT d         -17.382 -29.437 -27.949  0.00  0.00     0.209 HD
ENDBRANCH  27  30
ENDBRANCH   5  27
BRANCH   4  32
ATOM     32  O4  IPT d         -18.363 -27.021 -25.823  0.00  0.00    -0.390 OA
ATOM     33  H7  IPT d         -19.299 -27.176 -25.782  0.00  0.00     0.210 HD
ENDBRANCH   4  32
TORSDOF 9
ENDMDL
MODEL 7
REMARK VINA RESULT:      -4.1      1.899      3.355
REMARK  9 active torsions:
REMARK  status: ('A' for Active; 'I' for Inactive)
REMARK    1  A    between atoms: C1_1  and  S1_12 
REMARK    2  A    between atoms: C2_2  and  O2_3 
REMARK    3  A    between atoms: C3_4  and  O3_5 
REMARK    4  A    between atoms: C4_6  and  O4_7 
REMARK    5  A    between atoms: C5_8  and  C6_10 
REMARK    6  A    between atoms: C6_10  and  O6_11 
REMARK    7  A    between atoms: S1_12  and  C1'_13 
REMARK    8  A    between atoms: C1'_13  and  C2'_14 
REMARK    9  A    between atoms: C1'_13  and  C3'_15 
ROOT
ATOM      1  C1  IPT d         -14.607 -27.879 -26.582  0.00  0.00     0.110 C 
ATOM      2  C2  IPT d         -13.180 -28.125 -27.083  0.00  0.00     0.096 C 
ATOM      3  C3  IPT d         -13.097 -28.055 -28.612  0.00  0.00     0.090 C 
ATOM      4  C4  IPT d         -14.231 -28.825 -29.302  0.00  0.00     0.089 C 
ATOM      5  C5  IPT d         -15.576 -28.433 -28.675  0.00  0.00     0.087 C 
ATOM      6  O5  IPT d         -15.516 -28.726 -27.283  0.00  0.00    -0.363 OA
ATOM      7  H1  IPT d         -14.867 -26.826 -26.761  0.00  0.00     0.104 H 
ATOM      8  H2  IPT d         -12.850 -29.122 -26.753  0.00  0.00     0.092 H 
ATOM      9  H4  IPT d         -13.179 -26.998 -28.905  0.00  0.00     0.091 H 
ATOM     10  H6  IPT d         -14.248 -28.569 -30.371  0.00  0.00     0.091 H 
ATOM     11  H8  IPT d         -15.709 -27.351 -28.820  0.00  0.00     0.090 H 
ENDROOT
BRANCH   1  12
ATOM     12  S1  IPT d         -14.789 -28.240 -24.862  0.00  0.00    -0.131 SA
BRANCH  12  13
ATOM     13  C1' IPT d         -16.025 -27.156 -24.194  0.00  0.00    -0.014 C 
ATOM     14  H12 IPT d         -16.463 -27.634 -23.306  0.00  0.00     0.055 H 
BRANCH  13  15
ATOM     15  C2' IPT d         -15.423 -25.814 -23.769  0.00  0.00    -0.065 C 
ATOM     16  H13 IPT d         -14.721 -25.466 -24.540  0.00  0.00     0.028 H 
ATOM     17  H14 IPT d         -14.890 -25.938 -22.815  0.00  0.00     0.028 H 
ATOM     18  H15 IPT d         -16.228 -25.075 -23.646  0.00  0.00     0.028 H 
ENDBRANCH  13  15
BRANCH  13  19
ATOM     19  C3' IPT d         -17.126 -26.946 -25.228  0.00  0.00    -0.065 C 
ATOM     20  H16 IPT d         -16.775 -27.289 -26.212  0.00  0.00     0.028 H 
ATOM     21  H17 IPT d         -17.381 -25.878 -25.280  0.00  0.00     0.028 H 
ATOM     22  H18 IPT d         -18.017 -27.522 -24.936  0.00  0.00     0.028 H 
ENDBRANCH  13  19
ENDBRANCH  12  13
ENDBRANCH   1  12
BRANCH   2  23
ATOM     23  O2  IPT d         -12.324 -27.129 -26.518  0.00  0.00    -0.389 OA
ATOM     24  H3  IPT d         -12.804 -26.314 -26.432  0.00  0.00     0.210 HD
ENDBRANCH   2  23
BRANCH   3  25
ATOM     25  O3  IPT d         -11.826 -28.554 -29.064  0.00  0.00    -0.390 OA
ATOM     26  H5  IPT d         -11.616 -28.166 -29.906  0.00  0.00     0.210 HD
ENDBRANCH   3  25
BRANCH   5  27
ATOM     27  C6  IPT d         -16.813 -29.137 -29.221  0.00  0.00     0.043 C 
ATOM     28  H9  IPT d         -16.494 -29.969 -29.867  0.00  0.00     0.078 H 
ATOM     29  H10 IPT d         -17.401 -28.419 -29.812  0.00  0.00     0.078 H 
BRANCH  27  30
ATOM     30  O6  IPT d         -17.635 -29.654 -28.167  0.00  0.00    -0.398 OA
ATOM     31  H11 IPT d         -18.164 -30.368 -28.501  0.00  0.00     0.209 HD
ENDBRANCH  27  30
ENDBRANCH   5  27
BRANCH   4  32
ATOM     32  O4  IPT d         -13.994 -30.234 -29.162  0.00  0.00    -0.390 OA
ATOM     33  H7  IPT d         -14.404 -30.545 -28.364  0.00  0.00     0.210 HD
ENDBRANCH   4  32
TORSDOF 9
ENDMDL
