REMARK  7 active torsions:
REMARK  status: ('A' for Active; 'I' for Inactive)
REMARK    1  A    between atoms: C1_1  and  C6_6 
REMARK    2  A    between atoms: C7_7  and  C2_2 
REMARK    3  A    between atoms: N4_4  and  C33_33 
REMARK       I    between atoms: C6_6  and  N11_11 
REMARK       I    between atoms: N8_8  and  C7_7 
REMARK    4  A    between atoms: C19_19  and  N8_8 
REMARK    5  A    between atoms: N11_11  and  C12_12 
REMARK    6  A    between atoms: N25_25  and  C21_21 
REMARK    7  A    between atoms: C33_33  and  C34_34 
ROOT
ATOM      1  C1  XBV d          10.439  66.750   4.002  0.00  0.00     0.060 C 
ATOM      2  C2  XBV d           9.693  66.331   2.726  0.00  0.00     0.060 C 
ATOM      3  C3  XBV d           8.930  67.600   2.289  0.00  0.00     0.096 C 
ATOM      4  N4  XBV d           9.858  68.686   2.736  0.00  0.00    -0.064 N 
ATOM      5  C5  XBV d          10.408  68.291   4.056  0.00  0.00     0.096 C 
ATOM      6  H1  XBV d           9.883  66.366   4.870  0.00  0.00     0.058 H 
ATOM      7  H2  XBV d          10.401  66.017   1.944  0.00  0.00     0.058 H 
ATOM      8  H3  XBV d           7.955  67.674   2.793  0.00  0.00     0.077 H 
ATOM      9  H4  XBV d           8.782  67.623   1.199  0.00  0.00     0.077 H 
ATOM     10  H5  XBV d          10.610  68.779   2.071  0.00  0.00     0.280 HD
ATOM     11  H6  XBV d          11.421  68.698   4.195  0.00  0.00     0.077 H 
ATOM     12  H7  XBV d           9.757  68.641   4.871  0.00  0.00     0.077 H 
ENDROOT
BRANCH   2  13
ATOM     13  C7  XBV d           8.741  65.194   3.030  0.00  0.00     0.229 C 
ATOM     14  N8  XBV d           9.250  64.004   2.857  0.00  0.00    -0.324 N 
ATOM     15  H8  XBV d          10.213  63.955   2.590  0.00  0.00     0.169 HD
ATOM     16  O9  XBV d           7.611  65.369   3.460  0.00  0.00    -0.273 OA
BRANCH  14  17
ATOM     17  C19 XBV d           8.562  62.781   3.013  0.00  0.00     0.073 A 
ATOM     18  C20 XBV d           7.735  62.477   4.100  0.00  0.00    -0.052 A 
ATOM     19  C23 XBV d           7.153  61.207   4.155  0.00  0.00    -0.054 A 
ATOM     20  H13 XBV d           7.550  63.207   4.879  0.00  0.00     0.087 H 
ATOM     21  C21 XBV d           7.455  60.276   3.156  0.00  0.00     0.045 A 
ATOM     22  H15 XBV d           6.477  60.947   4.961  0.00  0.00     0.087 H 
ATOM     23  C22 XBV d           8.291  60.586   2.073  0.00  0.00    -0.017 A 
ATOM     24  C24 XBV d           8.807  61.887   2.008  0.00  0.00     0.145 A 
ATOM     25  H14 XBV d           8.529  59.848   1.316  0.00  0.00     0.091 H 
ATOM     26  F32 XBV d           9.630  62.206   0.998  0.00  0.00    -0.204 F 
BRANCH  21  27
ATOM     27  N25 XBV d           6.900  58.961   3.155  0.00  0.00    -0.290 N 
ATOM     28  C26 XBV d           7.401  57.992   4.038  0.00  0.00    -0.011 A 
ATOM     29  C29 XBV d           6.906  56.723   4.032  0.00  0.00    -0.067 A 
ATOM     30  H16 XBV d           8.194  58.258   4.736  0.00  0.00     0.112 H 
ATOM     31  C27 XBV d           5.873  56.368   3.156  0.00  0.00    -0.076 A 
ATOM     32  H19 XBV d           7.317  55.979   4.713  0.00  0.00     0.085 H 
ATOM     33  C28 XBV d           5.363  57.304   2.283  0.00  0.00    -0.017 A 
ATOM     34  H17 XBV d           5.474  55.355   3.165  0.00  0.00     0.083 H 
ATOM     35  C30 XBV d           5.869  58.653   2.259  0.00  0.00     0.252 A 
ATOM     36  H18 XBV d           4.564  57.020   1.600  0.00  0.00     0.092 H 
ATOM     37  O31 XBV d           5.445  59.508   1.471  0.00  0.00    -0.268 OA
ENDBRANCH  21  27
ENDBRANCH  14  17
ENDBRANCH   2  13
BRANCH   1  38
ATOM     38  C6  XBV d          11.829  66.169   4.075  0.00  0.00     0.230 C 
ATOM     39  O10 XBV d          12.511  65.980   3.079  0.00  0.00    -0.273 OA
ATOM     40  N11 XBV d          12.317  65.979   5.322  0.00  0.00    -0.311 N 
ATOM     41  H9  XBV d          11.771  66.366   6.065  0.00  0.00     0.170 HD
BRANCH  40  42
ATOM     42  C12 XBV d          13.479  65.316   5.710  0.00  0.00     0.129 A 
ATOM     43  N13 XBV d          14.029  64.414   4.880  0.00  0.00    -0.242 NA
ATOM     44  C16 XBV d          15.062  63.618   5.265  0.00  0.00     0.025 A 
ATOM     45  C14 XBV d          15.557  63.692   6.582  0.00  0.00     0.051 A 
ATOM     46  H11 XBV d          15.505  62.926   4.558  0.00  0.00     0.117 H 
ATOM     47  C15 XBV d          14.980  64.616   7.475  0.00  0.00    -0.057 A 
ATOM     48 CL1  XBV d          16.803  62.623   7.147  0.00  0.00    -0.083 Cl
ATOM     49  C17 XBV d          13.922  65.417   7.037  0.00  0.00    -0.037 A 
ATOM     50  H10 XBV d          15.352  64.705   8.489  0.00  0.00     0.086 H 
ATOM     51  H12 XBV d          13.446  66.112   7.719  0.00  0.00     0.089 H 
ENDBRANCH  40  42
ENDBRANCH   1  38
BRANCH   4  52
ATOM     52  C33 XBV d           9.153  69.974   2.840  0.00  0.00     0.137 C 
ATOM     53  H20 XBV d           8.575  69.991   3.776  0.00  0.00     0.084 H 
ATOM     54  H21 XBV d           8.469  70.077   1.985  0.00  0.00     0.084 H 
BRANCH  52  55
ATOM     55  C34 XBV d          10.131  71.150   2.839  0.00  0.00     0.231 C 
ATOM     56  F35 XBV d          11.132  71.017   3.806  0.00  0.00    -0.213 F 
ATOM     57  F36 XBV d          10.790  71.122   1.628  0.00  0.00    -0.213 F 
ATOM     58  H22 XBV d           9.585  72.095   2.980  0.00  0.00     0.147 H 
ENDBRANCH  52  55
ENDBRANCH   4  52
TORSDOF 7
