MODEL 1
REMARK VINA RESULT:      -9.1      0.000      0.000
REMARK  7 active torsions:
REMARK  status: ('A' for Active; 'I' for Inactive)
REMARK    1  A    between atoms: C1_1  and  C6_6 
REMARK    2  A    between atoms: C7_7  and  C2_2 
REMARK    3  A    between atoms: N4_4  and  C33_33 
REMARK       I    between atoms: C6_6  and  N11_11 
REMARK       I    between atoms: N8_8  and  C7_7 
REMARK    4  A    between atoms: C19_19  and  N8_8 
REMARK    5  A    between atoms: N11_11  and  C12_12 
REMARK    6  A    between atoms: N25_25  and  C21_21 
REMARK    7  A    between atoms: C33_33  and  C34_34 
ROOT
ATOM      1  C1  XBV d           8.386  67.804   4.116  0.00  0.00     0.060 C 
ATOM      2  C2  XBV d           7.503  67.445   2.911  0.00  0.00     0.060 C 
ATOM      3  C3  XBV d           6.479  68.597   2.823  0.00  0.00     0.096 C 
ATOM      4  N4  XBV d           7.283  69.761   3.312  0.00  0.00    -0.064 N 
ATOM      5  C5  XBV d           8.116  69.287   4.445  0.00  0.00     0.096 C 
ATOM      6  H1  XBV d           8.063  67.199   4.975  0.00  0.00     0.058 H 
ATOM      7  H2  XBV d           8.102  67.389   1.989  0.00  0.00     0.058 H 
ATOM      8  H3  XBV d           5.611  68.410   3.472  0.00  0.00     0.077 H 
ATOM      9  H4  XBV d           6.138  68.751   1.789  0.00  0.00     0.077 H 
ATOM     10  H5  XBV d           7.880  70.091   2.570  0.00  0.00     0.280 HD
ATOM     11  H6  XBV d           9.058  69.853   4.501  0.00  0.00     0.077 H 
ATOM     12  H7  XBV d           7.572  69.383   5.396  0.00  0.00     0.077 H 
ENDROOT
BRANCH   2  13
ATOM     13  C7  XBV d           6.818  66.116   3.148  0.00  0.00     0.229 C 
ATOM     14  N8  XBV d           7.611  65.081   3.082  0.00  0.00    -0.324 N 
ATOM     15  H8  XBV d           8.583  65.261   2.930  0.00  0.00     0.169 HD
ATOM     16  O9  XBV d           5.635  66.020   3.437  0.00  0.00    -0.273 OA
BRANCH  14  17
ATOM     17  C19 XBV d           7.218  63.730   3.205  0.00  0.00     0.073 A 
ATOM     18  C20 XBV d           6.606  63.190   4.342  0.00  0.00    -0.052 A 
ATOM     19  C23 XBV d           6.315  61.823   4.351  0.00  0.00    -0.054 A 
ATOM     20  H13 XBV d           6.365  63.815   5.194  0.00  0.00     0.087 H 
ATOM     21  C21 XBV d           6.686  61.040   3.253  0.00  0.00     0.045 A 
ATOM     22  H15 XBV d           5.807  61.375   5.197  0.00  0.00     0.087 H 
ATOM     23  C22 XBV d           7.306  61.588   2.120  0.00  0.00    -0.017 A 
ATOM     24  C24 XBV d           7.526  62.972   2.110  0.00  0.00     0.145 A 
ATOM     25  H14 XBV d           7.603  60.965   1.284  0.00  0.00     0.091 H 
ATOM     26  F32 XBV d           8.140  63.521   1.052  0.00  0.00    -0.204 F 
BRANCH  21  27
ATOM     27  N25 XBV d           6.423  59.638   3.200  0.00  0.00    -0.290 N 
ATOM     28  C26 XBV d           7.355  58.734   3.731  0.00  0.00    -0.011 A 
ATOM     29  C29 XBV d           7.138  57.391   3.664  0.00  0.00    -0.067 A 
ATOM     30  H16 XBV d           8.262  59.110   4.204  0.00  0.00     0.112 H 
ATOM     31  C27 XBV d           5.969  56.889   3.079  0.00  0.00    -0.076 A 
ATOM     32  H19 XBV d           7.879  56.702   4.067  0.00  0.00     0.085 H 
ATOM     33  C28 XBV d           5.038  57.759   2.554  0.00  0.00    -0.017 A 
ATOM     34  H17 XBV d           5.796  55.815   3.039  0.00  0.00     0.083 H 
ATOM     35  C30 XBV d           5.241  59.185   2.603  0.00  0.00     0.252 A 
ATOM     36  H18 XBV d           4.134  57.363   2.094  0.00  0.00     0.092 H 
ATOM     37  O31 XBV d           4.432  59.988   2.120  0.00  0.00    -0.268 OA
ENDBRANCH  21  27
ENDBRANCH  14  17
ENDBRANCH   2  13
BRANCH   1  38
ATOM     38  C6  XBV d           9.843  67.493   3.877  0.00  0.00     0.230 C 
ATOM     39  O10 XBV d          10.614  68.307   3.392  0.00  0.00    -0.273 OA
ATOM     40  N11 XBV d          10.266  66.295   4.342  0.00  0.00    -0.311 N 
ATOM     41  H9  XBV d           9.615  65.797   4.914  0.00  0.00     0.170 HD
BRANCH  40  42
ATOM     42  C12 XBV d          11.489  65.663   4.130  0.00  0.00     0.129 A 
ATOM     43  N13 XBV d          12.433  65.720   5.084  0.00  0.00    -0.242 NA
ATOM     44  C16 XBV d          13.698  65.268   4.874  0.00  0.00     0.025 A 
ATOM     45  C14 XBV d          14.065  64.762   3.611  0.00  0.00     0.051 A 
ATOM     46  H11 XBV d          14.424  65.296   5.678  0.00  0.00     0.117 H 
ATOM     47  C15 XBV d          13.097  64.713   2.589  0.00  0.00    -0.057 A 
ATOM     48 CL1  XBV d          15.695  64.272   3.267  0.00  0.00    -0.083 Cl
ATOM     49  C17 XBV d          11.808  65.185   2.850  0.00  0.00    -0.037 A 
ATOM     50  H10 XBV d          13.348  64.314   1.614  0.00  0.00     0.086 H 
ATOM     51  H12 XBV d          11.058  65.184   2.067  0.00  0.00     0.089 H 
ENDBRANCH  40  42
ENDBRANCH   1  38
BRANCH   4  52
ATOM     52  C33 XBV d           6.409  70.862   3.745  0.00  0.00     0.137 C 
ATOM     53  H20 XBV d           6.465  70.954   4.840  0.00  0.00     0.084 H 
ATOM     54  H21 XBV d           5.374  70.635   3.449  0.00  0.00     0.084 H 
BRANCH  52  55
ATOM     55  C34 XBV d           6.827  72.191   3.114  0.00  0.00     0.231 C 
ATOM     56  F35 XBV d           8.200  72.258   2.863  0.00  0.00    -0.213 F 
ATOM     57  F36 XBV d           6.227  72.252   1.874  0.00  0.00    -0.213 F 
ATOM     58  H22 XBV d           6.514  73.029   3.756  0.00  0.00     0.147 H 
ENDBRANCH  52  55
ENDBRANCH   4  52
TORSDOF 7
ENDMDL
MODEL 2
REMARK VINA RESULT:      -7.7      3.683      5.913
REMARK  7 active torsions:
REMARK  status: ('A' for Active; 'I' for Inactive)
REMARK    1  A    between atoms: C1_1  and  C6_6 
REMARK    2  A    between atoms: C7_7  and  C2_2 
REMARK    3  A    between atoms: N4_4  and  C33_33 
REMARK       I    between atoms: C6_6  and  N11_11 
REMARK       I    between atoms: N8_8  and  C7_7 
REMARK    4  A    between atoms: C19_19  and  N8_8 
REMARK    5  A    between atoms: N11_11  and  C12_12 
REMARK    6  A    between atoms: N25_25  and  C21_21 
REMARK    7  A    between atoms: C33_33  and  C34_34 
ROOT
ATOM      1  C1  XBV d          10.146  66.246   2.102  0.00  0.00     0.060 C 
ATOM      2  C2  XBV d          10.037  65.461   3.418  0.00  0.00     0.060 C 
ATOM      3  C3  XBV d          11.367  64.684   3.516  0.00  0.00     0.096 C 
ATOM      4  N4  XBV d          12.323  65.624   2.851  0.00  0.00    -0.064 N 
ATOM      5  C5  XBV d          11.629  66.215   1.680  0.00  0.00     0.096 C 
ATOM      6  H1  XBV d           9.561  65.718   1.334  0.00  0.00     0.058 H 
ATOM      7  H2  XBV d           9.925  66.145   4.273  0.00  0.00     0.058 H 
ATOM      8  H3  XBV d          11.310  63.725   2.980  0.00  0.00     0.077 H 
ATOM      9  H4  XBV d          11.648  64.502   4.564  0.00  0.00     0.077 H 
ATOM     10  H5  XBV d          12.578  66.355   3.497  0.00  0.00     0.280 HD
ATOM     11  H6  XBV d          11.999  67.232   1.479  0.00  0.00     0.077 H 
ATOM     12  H7  XBV d          11.769  65.590   0.786  0.00  0.00     0.077 H 
ENDROOT
BRANCH   2  13
ATOM     13  C7  XBV d           8.852  64.520   3.366  0.00  0.00     0.229 C 
ATOM     14  N8  XBV d           9.160  63.259   3.503  0.00  0.00    -0.324 N 
ATOM     15  H8  XBV d          10.121  63.040   3.671  0.00  0.00     0.169 HD
ATOM     16  O9  XBV d           7.698  64.908   3.266  0.00  0.00    -0.273 OA
BRANCH  14  17
ATOM     17  C19 XBV d           8.256  62.176   3.434  0.00  0.00     0.073 A 
ATOM     18  C20 XBV d           7.376  61.820   4.462  0.00  0.00    -0.052 A 
ATOM     19  C23 XBV d           6.568  60.693   4.282  0.00  0.00    -0.054 A 
ATOM     20  H13 XBV d           7.321  62.403   5.374  0.00  0.00     0.087 H 
ATOM     21  C21 XBV d           6.702  59.939   3.112  0.00  0.00     0.045 A 
ATOM     22  H15 XBV d           5.847  60.407   5.039  0.00  0.00     0.087 H 
ATOM     23  C22 XBV d           7.592  60.299   2.089  0.00  0.00    -0.017 A 
ATOM     24  C24 XBV d           8.341  61.470   2.267  0.00  0.00     0.145 A 
ATOM     25  H14 XBV d           7.697  59.694   1.195  0.00  0.00     0.091 H 
ATOM     26  F32 XBV d           9.219  61.826   1.317  0.00  0.00    -0.204 F 
BRANCH  21  27
ATOM     27  N25 XBV d           5.914  58.775   2.867  0.00  0.00    -0.290 N 
ATOM     28  C26 XBV d           4.720  58.882   2.136  0.00  0.00    -0.011 A 
ATOM     29  C29 XBV d           3.938  57.789   1.918  0.00  0.00    -0.067 A 
ATOM     30  H16 XBV d           4.417  59.850   1.739  0.00  0.00     0.112 H 
ATOM     31  C27 XBV d           4.321  56.533   2.404  0.00  0.00    -0.076 A 
ATOM     32  H19 XBV d           3.007  57.892   1.362  0.00  0.00     0.085 H 
ATOM     33  C28 XBV d           5.490  56.403   3.121  0.00  0.00    -0.017 A 
ATOM     34  H17 XBV d           3.697  55.661   2.215  0.00  0.00     0.083 H 
ATOM     35  C30 XBV d           6.337  57.541   3.375  0.00  0.00     0.252 A 
ATOM     36  H18 XBV d           5.780  55.425   3.502  0.00  0.00     0.092 H 
ATOM     37  O31 XBV d           7.382  57.458   4.035  0.00  0.00    -0.268 OA
ENDBRANCH  21  27
ENDBRANCH  14  17
ENDBRANCH   2  13
BRANCH   1  38
ATOM     38  C6  XBV d           9.576  67.638   2.212  0.00  0.00     0.230 C 
ATOM     39  O10 XBV d          10.284  68.633   2.252  0.00  0.00    -0.273 OA
ATOM     40  N11 XBV d           8.228  67.724   2.145  0.00  0.00    -0.311 N 
ATOM     41  H9  XBV d           7.752  66.881   1.894  0.00  0.00     0.170 HD
BRANCH  40  42
ATOM     42  C12 XBV d           7.413  68.829   2.381  0.00  0.00     0.129 A 
ATOM     43  N13 XBV d           7.082  69.144   3.644  0.00  0.00    -0.242 NA
ATOM     44  C16 XBV d           6.163  70.105   3.928  0.00  0.00     0.025 A 
ATOM     45  C14 XBV d           5.492  70.771   2.884  0.00  0.00     0.051 A 
ATOM     46  H11 XBV d           5.946  70.358   4.960  0.00  0.00     0.117 H 
ATOM     47  C15 XBV d           5.808  70.440   1.552  0.00  0.00    -0.057 A 
ATOM     48 CL1  XBV d           4.237  71.928   3.201  0.00  0.00    -0.083 Cl
ATOM     49  C17 XBV d           6.762  69.449   1.304  0.00  0.00    -0.037 A 
ATOM     50  H10 XBV d           5.319  70.949   0.729  0.00  0.00     0.086 H 
ATOM     51  H12 XBV d           6.996  69.160   0.286  0.00  0.00     0.089 H 
ENDBRANCH  40  42
ENDBRANCH   1  38
BRANCH   4  52
ATOM     52  C33 XBV d          13.543  64.921   2.421  0.00  0.00     0.137 C 
ATOM     53  H20 XBV d          13.935  65.407   1.515  0.00  0.00     0.084 H 
ATOM     54  H21 XBV d          13.292  63.874   2.196  0.00  0.00     0.084 H 
BRANCH  52  55
ATOM     55  C34 XBV d          14.620  64.952   3.507  0.00  0.00     0.231 C 
ATOM     56  F35 XBV d          14.202  65.626   4.658  0.00  0.00    -0.213 F 
ATOM     57  F36 XBV d          14.826  63.648   3.904  0.00  0.00    -0.213 F 
ATOM     58  H22 XBV d          15.542  65.404   3.111  0.00  0.00     0.147 H 
ENDBRANCH  52  55
ENDBRANCH   4  52
TORSDOF 7
ENDMDL
MODEL 3
REMARK VINA RESULT:      -7.3      3.648      5.818
REMARK  7 active torsions:
REMARK  status: ('A' for Active; 'I' for Inactive)
REMARK    1  A    between atoms: C1_1  and  C6_6 
REMARK    2  A    between atoms: C7_7  and  C2_2 
REMARK    3  A    between atoms: N4_4  and  C33_33 
REMARK       I    between atoms: C6_6  and  N11_11 
REMARK       I    between atoms: N8_8  and  C7_7 
REMARK    4  A    between atoms: C19_19  and  N8_8 
REMARK    5  A    between atoms: N11_11  and  C12_12 
REMARK    6  A    between atoms: N25_25  and  C21_21 
REMARK    7  A    between atoms: C33_33  and  C34_34 
ROOT
ATOM      1  C1  XBV d           9.338  66.977   2.348  0.00  0.00     0.060 C 
ATOM      2  C2  XBV d           8.933  66.152   3.580  0.00  0.00     0.060 C 
ATOM      3  C3  XBV d          10.273  65.739   4.226  0.00  0.00     0.096 C 
ATOM      4  N4  XBV d          11.145  66.911   3.902  0.00  0.00    -0.064 N 
ATOM      5  C5  XBV d          10.827  67.339   2.518  0.00  0.00     0.096 C 
ATOM      6  H1  XBV d           9.240  66.339   1.457  0.00  0.00     0.058 H 
ATOM      7  H2  XBV d           8.338  66.759   4.279  0.00  0.00     0.058 H 
ATOM      8  H3  XBV d          10.664  64.813   3.778  0.00  0.00     0.077 H 
ATOM      9  H4  XBV d          10.169  65.605   5.313  0.00  0.00     0.077 H 
ATOM     10  H5  XBV d          10.946  67.664   4.542  0.00  0.00     0.280 HD
ATOM     11  H6  XBV d          10.983  68.422   2.398  0.00  0.00     0.077 H 
ATOM     12  H7  XBV d          11.447  66.796   1.789  0.00  0.00     0.077 H 
ENDROOT
BRANCH   2  13
ATOM     13  C7  XBV d           8.131  64.941   3.154  0.00  0.00     0.229 C 
ATOM     14  N8  XBV d           8.548  63.813   3.661  0.00  0.00    -0.324 N 
ATOM     15  H8  XBV d           9.314  63.858   4.303  0.00  0.00     0.169 HD
ATOM     16  O9  XBV d           7.138  65.016   2.446  0.00  0.00    -0.273 OA
BRANCH  14  17
ATOM     17  C19 XBV d           8.016  62.535   3.381  0.00  0.00     0.073 A 
ATOM     18  C20 XBV d           8.248  61.829   2.195  0.00  0.00    -0.052 A 
ATOM     19  C23 XBV d           7.617  60.593   2.027  0.00  0.00    -0.054 A 
ATOM     20  H13 XBV d           8.899  62.230   1.428  0.00  0.00     0.087 H 
ATOM     21  C21 XBV d           6.746  60.132   3.019  0.00  0.00     0.045 A 
ATOM     22  H15 XBV d           7.801  59.999   1.139  0.00  0.00     0.087 H 
ATOM     23  C22 XBV d           6.513  60.849   4.202  0.00  0.00    -0.017 A 
ATOM     24  C24 XBV d           7.209  62.053   4.374  0.00  0.00     0.145 A 
ATOM     25  H14 XBV d           5.822  60.487   4.953  0.00  0.00     0.091 H 
ATOM     26  F32 XBV d           6.989  62.774   5.483  0.00  0.00    -0.204 F 
BRANCH  21  27
ATOM     27  N25 XBV d           6.066  58.882   2.907  0.00  0.00    -0.290 N 
ATOM     28  C26 XBV d           6.659  57.717   3.418  0.00  0.00    -0.011 A 
ATOM     29  C29 XBV d           6.041  56.510   3.295  0.00  0.00    -0.067 A 
ATOM     30  H16 XBV d           7.624  57.780   3.920  0.00  0.00     0.112 H 
ATOM     31  C27 XBV d           4.791  56.413   2.672  0.00  0.00    -0.076 A 
ATOM     32  H19 XBV d           6.522  55.614   3.684  0.00  0.00     0.085 H 
ATOM     33  C28 XBV d           4.188  57.544   2.166  0.00  0.00    -0.017 A 
ATOM     34  H17 XBV d           4.297  55.446   2.587  0.00  0.00     0.083 H 
ATOM     35  C30 XBV d           4.818  58.835   2.273  0.00  0.00     0.252 A 
ATOM     36  H18 XBV d           3.219  57.460   1.676  0.00  0.00     0.092 H 
ATOM     37  O31 XBV d           4.310  59.863   1.809  0.00  0.00    -0.268 OA
ENDBRANCH  21  27
ENDBRANCH  14  17
ENDBRANCH   2  13
BRANCH   1  38
ATOM     38  C6  XBV d           8.444  68.173   2.135  0.00  0.00     0.230 C 
ATOM     39  O10 XBV d           8.580  68.929   1.185  0.00  0.00    -0.273 OA
ATOM     40  N11 XBV d           7.409  68.289   2.998  0.00  0.00    -0.311 N 
ATOM     41  H9  XBV d           7.257  67.505   3.600  0.00  0.00     0.170 HD
BRANCH  40  42
ATOM     42  C12 XBV d           6.526  69.354   3.160  0.00  0.00     0.129 A 
ATOM     43  N13 XBV d           6.975  70.504   3.690  0.00  0.00    -0.242 NA
ATOM     44  C16 XBV d           6.134  71.518   4.025  0.00  0.00     0.025 A 
ATOM     45  C14 XBV d           4.743  71.364   3.864  0.00  0.00     0.051 A 
ATOM     46  H11 XBV d           6.534  72.447   4.417  0.00  0.00     0.117 H 
ATOM     47  C15 XBV d           4.249  70.157   3.331  0.00  0.00    -0.057 A 
ATOM     48 CL1  XBV d           3.626  72.590   4.376  0.00  0.00    -0.083 Cl
ATOM     49  C17 XBV d           5.149  69.142   2.997  0.00  0.00    -0.037 A 
ATOM     50  H10 XBV d           3.185  70.018   3.181  0.00  0.00     0.086 H 
ATOM     51  H12 XBV d           4.786  68.195   2.613  0.00  0.00     0.089 H 
ENDBRANCH  40  42
ENDBRANCH   1  38
BRANCH   4  52
ATOM     52  C33 XBV d          12.570  66.557   4.014  0.00  0.00     0.137 C 
ATOM     53  H20 XBV d          12.847  66.522   5.078  0.00  0.00     0.084 H 
ATOM     54  H21 XBV d          13.170  67.324   3.503  0.00  0.00     0.084 H 
BRANCH  52  55
ATOM     55  C34 XBV d          12.860  65.195   3.381  0.00  0.00     0.231 C 
ATOM     56  F35 XBV d          13.526  65.303   2.156  0.00  0.00    -0.213 F 
ATOM     57  F36 XBV d          13.742  64.544   4.217  0.00  0.00    -0.213 F 
ATOM     58  H22 XBV d          11.924  64.628   3.260  0.00  0.00     0.147 H 
ENDBRANCH  52  55
ENDBRANCH   4  52
TORSDOF 7
ENDMDL
MODEL 4
REMARK VINA RESULT:      -6.1      3.578      8.936
REMARK  7 active torsions:
REMARK  status: ('A' for Active; 'I' for Inactive)
REMARK    1  A    between atoms: C1_1  and  C6_6 
REMARK    2  A    between atoms: C7_7  and  C2_2 
REMARK    3  A    between atoms: N4_4  and  C33_33 
REMARK       I    between atoms: C6_6  and  N11_11 
REMARK       I    between atoms: N8_8  and  C7_7 
REMARK    4  A    between atoms: C19_19  and  N8_8 
REMARK    5  A    between atoms: N11_11  and  C12_12 
REMARK    6  A    between atoms: N25_25  and  C21_21 
REMARK    7  A    between atoms: C33_33  and  C34_34 
ROOT
ATOM      1  C1  XBV d          11.196  64.304   2.778  0.00  0.00     0.060 C 
ATOM      2  C2  XBV d          11.536  65.599   2.025  0.00  0.00     0.060 C 
ATOM      3  C3  XBV d          13.040  65.820   2.294  0.00  0.00     0.096 C 
ATOM      4  N4  XBV d          13.546  64.415   2.386  0.00  0.00    -0.064 N 
ATOM      5  C5  XBV d          12.535  63.621   3.126  0.00  0.00     0.096 C 
ATOM      6  H1  XBV d          10.694  64.572   3.719  0.00  0.00     0.058 H 
ATOM      7  H2  XBV d          11.349  65.484   0.946  0.00  0.00     0.058 H 
ATOM      8  H3  XBV d          13.202  66.366   3.235  0.00  0.00     0.077 H 
ATOM      9  H4  XBV d          13.519  66.365   1.467  0.00  0.00     0.077 H 
ATOM     10  H5  XBV d          13.658  64.037   1.458  0.00  0.00     0.280 HD
ATOM     11  H6  XBV d          12.538  62.573   2.791  0.00  0.00     0.077 H 
ATOM     12  H7  XBV d          12.724  63.660   4.210  0.00  0.00     0.077 H 
ENDROOT
BRANCH   2  13
ATOM     13  C7  XBV d          10.706  66.745   2.562  0.00  0.00     0.229 C 
ATOM     14  N8  XBV d           9.616  66.985   1.884  0.00  0.00    -0.324 N 
ATOM     15  H8  XBV d           9.412  66.375   1.118  0.00  0.00     0.169 HD
ATOM     16  O9  XBV d          10.996  67.357   3.578  0.00  0.00    -0.273 OA
BRANCH  14  17
ATOM     17  C19 XBV d           8.701  68.030   2.136  0.00  0.00     0.073 A 
ATOM     18  C20 XBV d           9.067  69.365   2.341  0.00  0.00    -0.052 A 
ATOM     19  C23 XBV d           8.061  70.291   2.631  0.00  0.00    -0.054 A 
ATOM     20  H13 XBV d          10.104  69.673   2.276  0.00  0.00     0.087 H 
ATOM     21  C21 XBV d           6.741  69.847   2.754  0.00  0.00     0.045 A 
ATOM     22  H15 XBV d           8.301  71.340   2.759  0.00  0.00     0.087 H 
ATOM     23  C22 XBV d           6.382  68.505   2.554  0.00  0.00    -0.017 A 
ATOM     24  C24 XBV d           7.401  67.611   2.199  0.00  0.00     0.145 A 
ATOM     25  H14 XBV d           5.357  68.173   2.671  0.00  0.00     0.091 H 
ATOM     26  F32 XBV d           7.093  66.317   2.026  0.00  0.00    -0.204 F 
BRANCH  21  27
ATOM     27  N25 XBV d           5.668  70.738   3.054  0.00  0.00    -0.290 N 
ATOM     28  C26 XBV d           5.286  71.710   2.117  0.00  0.00    -0.011 A 
ATOM     29  C29 XBV d           4.284  72.590   2.396  0.00  0.00    -0.067 A 
ATOM     30  H16 XBV d           5.796  71.761   1.156  0.00  0.00     0.112 H 
ATOM     31  C27 XBV d           3.604  72.527   3.618  0.00  0.00    -0.076 A 
ATOM     32  H19 XBV d           4.011  73.349   1.664  0.00  0.00     0.085 H 
ATOM     33  C28 XBV d           3.959  71.578   4.552  0.00  0.00    -0.017 A 
ATOM     34  H17 XBV d           2.796  73.226   3.830  0.00  0.00     0.083 H 
ATOM     35  C30 XBV d           5.019  70.637   4.291  0.00  0.00     0.252 A 
ATOM     36  H18 XBV d           3.430  71.539   5.503  0.00  0.00     0.092 H 
ATOM     37  O31 XBV d           5.373  69.789   5.120  0.00  0.00    -0.268 OA
ENDBRANCH  21  27
ENDBRANCH  14  17
ENDBRANCH   2  13
BRANCH   1  38
ATOM     38  C6  XBV d          10.248  63.419   2.008  0.00  0.00     0.230 C 
ATOM     39  O10 XBV d          10.432  63.130   0.835  0.00  0.00    -0.273 OA
ATOM     40  N11 XBV d           9.243  62.873   2.730  0.00  0.00    -0.311 N 
ATOM     41  H9  XBV d           9.305  62.995   3.720  0.00  0.00     0.170 HD
BRANCH  40  42
ATOM     42  C12 XBV d           8.133  62.163   2.277  0.00  0.00     0.129 A 
ATOM     43  N13 XBV d           7.004  62.828   1.982  0.00  0.00    -0.242 NA
ATOM     44  C16 XBV d           5.842  62.182   1.696  0.00  0.00     0.025 A 
ATOM     45  C14 XBV d           5.786  60.775   1.749  0.00  0.00     0.051 A 
ATOM     46  H11 XBV d           4.959  62.750   1.427  0.00  0.00     0.117 H 
ATOM     47  C15 XBV d           6.953  60.059   2.079  0.00  0.00    -0.057 A 
ATOM     48 CL1  XBV d           4.300  59.914   1.495  0.00  0.00    -0.083 Cl
ATOM     49  C17 XBV d           8.126  60.763   2.362  0.00  0.00    -0.037 A 
ATOM     50  H10 XBV d           6.942  58.976   2.111  0.00  0.00     0.086 H 
ATOM     51  H12 XBV d           9.026  60.230   2.647  0.00  0.00     0.089 H 
ENDBRANCH  40  42
ENDBRANCH   1  38
BRANCH   4  52
ATOM     52  C33 XBV d          14.844  64.365   3.079  0.00  0.00     0.137 C 
ATOM     53  H20 XBV d          15.401  65.288   2.862  0.00  0.00     0.084 H 
ATOM     54  H21 XBV d          15.412  63.498   2.712  0.00  0.00     0.084 H 
BRANCH  52  55
ATOM     55  C34 XBV d          14.666  64.238   4.593  0.00  0.00     0.231 C 
ATOM     56  F35 XBV d          15.552  63.318   5.163  0.00  0.00    -0.213 F 
ATOM     57  F36 XBV d          15.006  65.457   5.140  0.00  0.00    -0.213 F 
ATOM     58  H22 XBV d          13.626  63.965   4.829  0.00  0.00     0.147 H 
ENDBRANCH  52  55
ENDBRANCH   4  52
TORSDOF 7
ENDMDL
