MODEL 1
REMARK VINA RESULT:      -5.3      0.000      0.000
REMARK  11 active torsions:
REMARK  status: ('A' for Active; 'I' for Inactive)
REMARK    1  A    between atoms: C1_3  and  C2_4 
REMARK    2  A    between atoms: C2_4  and  C3_5 
REMARK    3  A    between atoms: C3_5  and  C4_6 
REMARK    4  A    between atoms: C4_6  and  C5_7 
REMARK    5  A    between atoms: C5_7  and  C6_8 
REMARK    6  A    between atoms: C6_8  and  C7_9 
REMARK    7  A    between atoms: C7_9  and  C8_10 
REMARK    8  A    between atoms: C8_10  and  C9_11 
REMARK    9  A    between atoms: C9_11  and  C10_12 
REMARK   10  A    between atoms: C10_12  and  C11_13 
REMARK   11  A    between atoms: C11_13  and  C12_14 
ROOT
ATOM      1  C7  DAO d          -1.981  12.240  18.544  0.00  0.00    -0.065 C 
ATOM      2  H11 DAO d          -0.889  12.259  18.411  0.00  0.00     0.033 H 
ATOM      3  H12 DAO d          -2.218  12.103  19.609  0.00  0.00     0.033 H 
ENDROOT
BRANCH   1   4
ATOM      4  C6  DAO d          -2.550  11.054  17.758  0.00  0.00    -0.065 C 
ATOM      5  H9  DAO d          -3.610  10.917  18.017  0.00  0.00     0.033 H 
ATOM      6  H10 DAO d          -2.459  11.251  16.680  0.00  0.00     0.033 H 
BRANCH   4   7
ATOM      7  C5  DAO d          -1.773   9.795  18.113  0.00  0.00    -0.065 C 
ATOM      8  H7  DAO d          -0.742   9.908  17.745  0.00  0.00     0.033 H 
ATOM      9  H8  DAO d          -1.763   9.689  19.207  0.00  0.00     0.033 H 
BRANCH   7  10
ATOM     10  C4  DAO d          -2.366   8.525  17.509  0.00  0.00    -0.065 C 
ATOM     11  H5  DAO d          -3.441   8.492  17.739  0.00  0.00     0.033 H 
ATOM     12  H6  DAO d          -2.225   8.551  16.419  0.00  0.00     0.033 H 
BRANCH  10  13
ATOM     13  C3  DAO d          -1.700   7.258  18.065  0.00  0.00    -0.056 C 
ATOM     14  H3  DAO d          -0.613   7.419  18.110  0.00  0.00     0.033 H 
ATOM     15  H4  DAO d          -2.085   7.071  19.079  0.00  0.00     0.033 H 
BRANCH  13  16
ATOM     16  C2  DAO d          -1.981   6.028  17.196  0.00  0.00     0.016 C 
ATOM     17  H1  DAO d          -3.070   5.907  17.103  0.00  0.00     0.049 H 
ATOM     18  H2  DAO d          -1.545   6.197  16.200  0.00  0.00     0.049 H 
BRANCH  16  19
ATOM     19  C1  DAO d          -1.399   4.738  17.765  0.00  0.00     0.172 C 
ATOM     20  O1  DAO d          -1.768   3.631  17.296  0.00  0.00    -0.648 OA
ATOM     21  O2  DAO d          -0.549   4.784  18.683  0.00  0.00    -0.648 OA
ENDBRANCH  16  19
ENDBRANCH  13  16
ENDBRANCH  10  13
ENDBRANCH   7  10
ENDBRANCH   4   7
ENDBRANCH   1   4
BRANCH   1  22
ATOM     22  C8  DAO d          -2.552  13.577  18.085  0.00  0.00    -0.065 C 
ATOM     23  H13 DAO d          -3.374  13.862  18.758  0.00  0.00     0.033 H 
ATOM     24  H14 DAO d          -2.939  13.465  17.061  0.00  0.00     0.033 H 
BRANCH  22  25
ATOM     25  C9  DAO d          -1.508  14.675  18.095  0.00  0.00    -0.065 C 
ATOM     26  H15 DAO d          -0.834  14.524  17.238  0.00  0.00     0.033 H 
ATOM     27  H16 DAO d          -0.934  14.602  19.030  0.00  0.00     0.033 H 
BRANCH  25  28
ATOM     28  C10 DAO d          -2.106  16.080  18.000  0.00  0.00    -0.065 C 
ATOM     29  H17 DAO d          -1.341  16.770  17.614  0.00  0.00     0.033 H 
ATOM     30  H18 DAO d          -2.420  16.405  19.002  0.00  0.00     0.033 H 
BRANCH  28  31
ATOM     31  C11 DAO d          -3.304  16.102  17.075  0.00  0.00    -0.069 C 
ATOM     32  H19 DAO d          -4.068  15.406  17.453  0.00  0.00     0.032 H 
ATOM     33  H20 DAO d          -2.992  15.792  16.067  0.00  0.00     0.032 H 
BRANCH  31  34
ATOM     34  C12 DAO d          -3.885  17.493  17.011  0.00  0.00    -0.077 C 
ATOM     35  H21 DAO d          -4.754  17.498  16.337  0.00  0.00     0.027 H 
ATOM     36  H22 DAO d          -3.124  18.192  16.632  0.00  0.00     0.027 H 
ATOM     37  H23 DAO d          -4.200  17.805  18.018  0.00  0.00     0.027 H 
ENDBRANCH  31  34
ENDBRANCH  28  31
ENDBRANCH  25  28
ENDBRANCH  22  25
ENDBRANCH   1  22
TORSDOF 11
ENDMDL
