MODEL 1
REMARK VINA RESULT:      -6.0      0.000      0.000
REMARK  11 active torsions:
REMARK  status: ('A' for Active; 'I' for Inactive)
REMARK    1  A    between atoms: C1_3  and  C2_4 
REMARK    2  A    between atoms: C2_4  and  C3_5 
REMARK    3  A    between atoms: C3_5  and  C4_6 
REMARK    4  A    between atoms: C4_6  and  C5_7 
REMARK    5  A    between atoms: C5_7  and  C6_8 
REMARK    6  A    between atoms: C6_8  and  C7_9 
REMARK    7  A    between atoms: C7_9  and  C8_10 
REMARK    8  A    between atoms: C8_10  and  C9_11 
REMARK    9  A    between atoms: C9_11  and  C10_12 
REMARK   10  A    between atoms: C10_12  and  C11_13 
REMARK   11  A    between atoms: C11_13  and  C12_14 
ROOT
ATOM      1  C7  DAO d          -1.878  13.571  18.345  0.00  0.00    -0.065 C 
ATOM      2  H11 DAO d          -1.143  13.027  17.734  0.00  0.00     0.033 H 
ATOM      3  H12 DAO d          -1.771  13.274  19.398  0.00  0.00     0.033 H 
ENDROOT
BRANCH   1   4
ATOM      4  C6  DAO d          -3.285  13.196  17.869  0.00  0.00    -0.065 C 
ATOM      5  H9  DAO d          -4.025  13.538  18.607  0.00  0.00     0.033 H 
ATOM      6  H10 DAO d          -3.485  13.677  16.900  0.00  0.00     0.033 H 
BRANCH   4   7
ATOM      7  C5  DAO d          -3.378  11.686  17.717  0.00  0.00    -0.065 C 
ATOM      8  H7  DAO d          -4.137  11.460  16.953  0.00  0.00     0.033 H 
ATOM      9  H8  DAO d          -2.400  11.308  17.385  0.00  0.00     0.033 H 
BRANCH   7  10
ATOM     10  C4  DAO d          -3.763  10.968  19.007  0.00  0.00    -0.065 C 
ATOM     11  H5  DAO d          -4.103  11.714  19.741  0.00  0.00     0.033 H 
ATOM     12  H6  DAO d          -4.581  10.265  18.793  0.00  0.00     0.033 H 
BRANCH  10  13
ATOM     13  C3  DAO d          -2.583  10.187  19.605  0.00  0.00    -0.056 C 
ATOM     14  H3  DAO d          -1.679  10.405  19.017  0.00  0.00     0.033 H 
ATOM     15  H4  DAO d          -2.432  10.514  20.645  0.00  0.00     0.033 H 
BRANCH  13  16
ATOM     16  C2  DAO d          -2.825   8.674  19.595  0.00  0.00     0.016 C 
ATOM     17  H1  DAO d          -2.127   8.204  20.303  0.00  0.00     0.049 H 
ATOM     18  H2  DAO d          -3.859   8.484  19.920  0.00  0.00     0.049 H 
BRANCH  16  19
ATOM     19  C1  DAO d          -2.626   8.037  18.223  0.00  0.00     0.172 C 
ATOM     20  O1  DAO d          -1.704   8.451  17.476  0.00  0.00    -0.648 OA
ATOM     21  O2  DAO d          -3.368   7.100  17.853  0.00  0.00    -0.648 OA
ENDBRANCH  16  19
ENDBRANCH  13  16
ENDBRANCH  10  13
ENDBRANCH   7  10
ENDBRANCH   4   7
ENDBRANCH   1   4
BRANCH   1  22
ATOM     22  C8  DAO d          -1.598  15.066  18.228  0.00  0.00    -0.065 C 
ATOM     23  H13 DAO d          -0.538  15.210  17.974  0.00  0.00     0.033 H 
ATOM     24  H14 DAO d          -1.811  15.544  19.196  0.00  0.00     0.033 H 
BRANCH  22  25
ATOM     25  C9  DAO d          -2.450  15.723  17.161  0.00  0.00    -0.065 C 
ATOM     26  H15 DAO d          -3.250  15.024  16.874  0.00  0.00     0.033 H 
ATOM     27  H16 DAO d          -1.815  15.931  16.287  0.00  0.00     0.033 H 
BRANCH  25  28
ATOM     28  C10 DAO d          -3.091  17.033  17.619  0.00  0.00    -0.065 C 
ATOM     29  H17 DAO d          -2.323  17.820  17.641  0.00  0.00     0.033 H 
ATOM     30  H18 DAO d          -3.506  16.897  18.629  0.00  0.00     0.033 H 
BRANCH  28  31
ATOM     31  C11 DAO d          -4.204  17.454  16.682  0.00  0.00    -0.069 C 
ATOM     32  H19 DAO d          -5.081  17.759  17.272  0.00  0.00     0.032 H 
ATOM     33  H20 DAO d          -4.473  16.606  16.035  0.00  0.00     0.032 H 
BRANCH  31  34
ATOM     34  C12 DAO d          -3.751  18.610  15.825  0.00  0.00    -0.077 C 
ATOM     35  H21 DAO d          -3.267  19.368  16.458  0.00  0.00     0.027 H 
ATOM     36  H22 DAO d          -4.622  19.057  15.321  0.00  0.00     0.027 H 
ATOM     37  H23 DAO d          -3.035  18.251  15.071  0.00  0.00     0.027 H 
ENDBRANCH  31  34
ENDBRANCH  28  31
ENDBRANCH  25  28
ENDBRANCH  22  25
ENDBRANCH   1  22
TORSDOF 11
ENDMDL
MODEL 2
REMARK VINA RESULT:      -5.9      3.826      7.326
REMARK  11 active torsions:
REMARK  status: ('A' for Active; 'I' for Inactive)
REMARK    1  A    between atoms: C1_3  and  C2_4 
REMARK    2  A    between atoms: C2_4  and  C3_5 
REMARK    3  A    between atoms: C3_5  and  C4_6 
REMARK    4  A    between atoms: C4_6  and  C5_7 
REMARK    5  A    between atoms: C5_7  and  C6_8 
REMARK    6  A    between atoms: C6_8  and  C7_9 
REMARK    7  A    between atoms: C7_9  and  C8_10 
REMARK    8  A    between atoms: C8_10  and  C9_11 
REMARK    9  A    between atoms: C9_11  and  C10_12 
REMARK   10  A    between atoms: C10_12  and  C11_13 
REMARK   11  A    between atoms: C11_13  and  C12_14 
ROOT
ATOM      1  C7  DAO d          -4.035  11.462  18.747  0.00  0.00    -0.065 C 
ATOM      2  H11 DAO d          -4.251  10.593  18.109  0.00  0.00     0.033 H 
ATOM      3  H12 DAO d          -4.965  11.813  19.217  0.00  0.00     0.033 H 
ENDROOT
BRANCH   1   4
ATOM      4  C6  DAO d          -3.475  12.587  17.870  0.00  0.00    -0.065 C 
ATOM      5  H9  DAO d          -3.355  12.224  16.839  0.00  0.00     0.033 H 
ATOM      6  H10 DAO d          -4.169  13.440  17.880  0.00  0.00     0.033 H 
BRANCH   4   7
ATOM      7  C5  DAO d          -2.124  13.024  18.415  0.00  0.00    -0.065 C 
ATOM      8  H7  DAO d          -2.089  12.789  19.489  0.00  0.00     0.033 H 
ATOM      9  H8  DAO d          -1.338  12.461  17.891  0.00  0.00     0.033 H 
BRANCH   7  10
ATOM     10  C4  DAO d          -1.851  14.515  18.237  0.00  0.00    -0.065 C 
ATOM     11  H5  DAO d          -1.592  14.948  19.215  0.00  0.00     0.033 H 
ATOM     12  H6  DAO d          -1.005  14.642  17.546  0.00  0.00     0.033 H 
BRANCH  10  13
ATOM     13  C3  DAO d          -3.069  15.261  17.672  0.00  0.00    -0.056 C 
ATOM     14  H3  DAO d          -3.290  14.867  16.668  0.00  0.00     0.033 H 
ATOM     15  H4  DAO d          -3.930  15.085  18.333  0.00  0.00     0.033 H 
BRANCH  13  16
ATOM     16  C2  DAO d          -2.827  16.770  17.567  0.00  0.00     0.016 C 
ATOM     17  H1  DAO d          -2.823  17.193  18.582  0.00  0.00     0.049 H 
ATOM     18  H2  DAO d          -1.845  16.934  17.098  0.00  0.00     0.049 H 
BRANCH  16  19
ATOM     19  C1  DAO d          -3.884  17.498  16.744  0.00  0.00     0.172 C 
ATOM     20  O1  DAO d          -5.079  17.109  16.786  0.00  0.00    -0.648 OA
ATOM     21  O2  DAO d          -3.564  18.483  16.041  0.00  0.00    -0.648 OA
ENDBRANCH  16  19
ENDBRANCH  13  16
ENDBRANCH  10  13
ENDBRANCH   7  10
ENDBRANCH   4   7
ENDBRANCH   1   4
BRANCH   1  22
ATOM     22  C8  DAO d          -3.064  11.034  19.843  0.00  0.00    -0.065 C 
ATOM     23  H13 DAO d          -3.487  11.313  20.820  0.00  0.00     0.033 H 
ATOM     24  H14 DAO d          -2.108  11.557  19.695  0.00  0.00     0.033 H 
BRANCH  22  25
ATOM     25  C9  DAO d          -2.812   9.540  19.828  0.00  0.00    -0.065 C 
ATOM     26  H15 DAO d          -3.433   9.073  20.608  0.00  0.00     0.033 H 
ATOM     27  H16 DAO d          -1.750   9.363  20.050  0.00  0.00     0.033 H 
BRANCH  25  28
ATOM     28  C10 DAO d          -3.144   8.884  18.487  0.00  0.00    -0.065 C 
ATOM     29  H17 DAO d          -3.703   9.599  17.866  0.00  0.00     0.033 H 
ATOM     30  H18 DAO d          -3.763   7.992  18.666  0.00  0.00     0.033 H 
BRANCH  28  31
ATOM     31  C11 DAO d          -1.884   8.471  17.755  0.00  0.00    -0.069 C 
ATOM     32  H19 DAO d          -2.122   7.660  17.050  0.00  0.00     0.032 H 
ATOM     33  H20 DAO d          -1.140   8.118  18.483  0.00  0.00     0.032 H 
BRANCH  31  34
ATOM     34  C12 DAO d          -1.319   9.645  16.993  0.00  0.00    -0.077 C 
ATOM     35  H21 DAO d          -0.385   9.344  16.496  0.00  0.00     0.027 H 
ATOM     36  H22 DAO d          -1.113  10.471  17.691  0.00  0.00     0.027 H 
ATOM     37  H23 DAO d          -2.046   9.976  16.237  0.00  0.00     0.027 H 
ENDBRANCH  31  34
ENDBRANCH  28  31
ENDBRANCH  25  28
ENDBRANCH  22  25
ENDBRANCH   1  22
TORSDOF 11
ENDMDL
MODEL 3
REMARK VINA RESULT:      -5.8      1.256      1.997
REMARK  11 active torsions:
REMARK  status: ('A' for Active; 'I' for Inactive)
REMARK    1  A    between atoms: C1_3  and  C2_4 
REMARK    2  A    between atoms: C2_4  and  C3_5 
REMARK    3  A    between atoms: C3_5  and  C4_6 
REMARK    4  A    between atoms: C4_6  and  C5_7 
REMARK    5  A    between atoms: C5_7  and  C6_8 
REMARK    6  A    between atoms: C6_8  and  C7_9 
REMARK    7  A    between atoms: C7_9  and  C8_10 
REMARK    8  A    between atoms: C8_10  and  C9_11 
REMARK    9  A    between atoms: C9_11  and  C10_12 
REMARK   10  A    between atoms: C10_12  and  C11_13 
REMARK   11  A    between atoms: C11_13  and  C12_14 
ROOT
ATOM      1  C7  DAO d          -1.725  13.185  18.603  0.00  0.00    -0.065 C 
ATOM      2  H11 DAO d          -0.928  13.337  17.861  0.00  0.00     0.033 H 
ATOM      3  H12 DAO d          -1.678  13.981  19.360  0.00  0.00     0.033 H 
ENDROOT
BRANCH   1   4
ATOM      4  C6  DAO d          -1.502  11.836  19.293  0.00  0.00    -0.065 C 
ATOM      5  H9  DAO d          -0.606  11.353  18.876  0.00  0.00     0.033 H 
ATOM      6  H10 DAO d          -1.363  11.995  20.373  0.00  0.00     0.033 H 
BRANCH   4   7
ATOM      7  C5  DAO d          -2.714  10.946  19.062  0.00  0.00    -0.065 C 
ATOM      8  H7  DAO d          -3.477  11.195  19.814  0.00  0.00     0.033 H 
ATOM      9  H8  DAO d          -3.109  11.150  18.057  0.00  0.00     0.033 H 
BRANCH   7  10
ATOM     10  C4  DAO d          -2.401   9.456  19.166  0.00  0.00    -0.065 C 
ATOM     11  H5  DAO d          -1.554   9.318  19.854  0.00  0.00     0.033 H 
ATOM     12  H6  DAO d          -3.284   8.934  19.562  0.00  0.00     0.033 H 
BRANCH  10  13
ATOM     13  C3  DAO d          -2.036   8.847  17.803  0.00  0.00    -0.056 C 
ATOM     14  H3  DAO d          -2.907   8.927  17.135  0.00  0.00     0.033 H 
ATOM     15  H4  DAO d          -1.195   9.413  17.376  0.00  0.00     0.033 H 
BRANCH  13  16
ATOM     16  C2  DAO d          -1.634   7.373  17.916  0.00  0.00     0.016 C 
ATOM     17  H1  DAO d          -0.640   7.248  17.461  0.00  0.00     0.049 H 
ATOM     18  H2  DAO d          -1.585   7.105  18.982  0.00  0.00     0.049 H 
BRANCH  16  19
ATOM     19  C1  DAO d          -2.606   6.424  17.223  0.00  0.00     0.172 C 
ATOM     20  O1  DAO d          -2.163   5.546  16.440  0.00  0.00    -0.648 OA
ATOM     21  O2  DAO d          -3.835   6.514  17.444  0.00  0.00    -0.648 OA
ENDBRANCH  16  19
ENDBRANCH  13  16
ENDBRANCH  10  13
ENDBRANCH   7  10
ENDBRANCH   4   7
ENDBRANCH   1   4
BRANCH   1  22
ATOM     22  C8  DAO d          -3.074  13.266  17.894  0.00  0.00    -0.065 C 
ATOM     23  H13 DAO d          -3.869  13.040  18.619  0.00  0.00     0.033 H 
ATOM     24  H14 DAO d          -3.094  12.522  17.084  0.00  0.00     0.033 H 
BRANCH  22  25
ATOM     25  C9  DAO d          -3.325  14.638  17.304  0.00  0.00    -0.065 C 
ATOM     26  H15 DAO d          -4.375  14.911  17.488  0.00  0.00     0.033 H 
ATOM     27  H16 DAO d          -3.143  14.591  16.220  0.00  0.00     0.033 H 
BRANCH  25  28
ATOM     28  C10 DAO d          -2.429  15.727  17.899  0.00  0.00    -0.065 C 
ATOM     29  H17 DAO d          -1.419  15.631  17.477  0.00  0.00     0.033 H 
ATOM     30  H18 DAO d          -2.384  15.598  18.991  0.00  0.00     0.033 H 
BRANCH  28  31
ATOM     31  C11 DAO d          -2.968  17.107  17.587  0.00  0.00    -0.069 C 
ATOM     32  H19 DAO d          -2.262  17.632  16.925  0.00  0.00     0.032 H 
ATOM     33  H20 DAO d          -3.083  17.673  18.523  0.00  0.00     0.032 H 
BRANCH  31  34
ATOM     34  C12 DAO d          -4.307  16.999  16.901  0.00  0.00    -0.077 C 
ATOM     35  H21 DAO d          -4.421  15.991  16.475  0.00  0.00     0.027 H 
ATOM     36  H22 DAO d          -4.369  17.746  16.095  0.00  0.00     0.027 H 
ATOM     37  H23 DAO d          -5.109  17.181  17.632  0.00  0.00     0.027 H 
ENDBRANCH  31  34
ENDBRANCH  28  31
ENDBRANCH  25  28
ENDBRANCH  22  25
ENDBRANCH   1  22
TORSDOF 11
ENDMDL
MODEL 4
REMARK VINA RESULT:      -5.7      3.772      7.873
REMARK  11 active torsions:
REMARK  status: ('A' for Active; 'I' for Inactive)
REMARK    1  A    between atoms: C1_3  and  C2_4 
REMARK    2  A    between atoms: C2_4  and  C3_5 
REMARK    3  A    between atoms: C3_5  and  C4_6 
REMARK    4  A    between atoms: C4_6  and  C5_7 
REMARK    5  A    between atoms: C5_7  and  C6_8 
REMARK    6  A    between atoms: C6_8  and  C7_9 
REMARK    7  A    between atoms: C7_9  and  C8_10 
REMARK    8  A    between atoms: C8_10  and  C9_11 
REMARK    9  A    between atoms: C9_11  and  C10_12 
REMARK   10  A    between atoms: C10_12  and  C11_13 
REMARK   11  A    between atoms: C11_13  and  C12_14 
ROOT
ATOM      1  C7  DAO d          -1.866  10.795  18.096  0.00  0.00    -0.065 C 
ATOM      2  H11 DAO d          -1.533  10.600  19.126  0.00  0.00     0.033 H 
ATOM      3  H12 DAO d          -1.233  11.574  17.647  0.00  0.00     0.033 H 
ENDROOT
BRANCH   1   4
ATOM      4  C6  DAO d          -3.311  11.300  18.136  0.00  0.00    -0.065 C 
ATOM      5  H9  DAO d          -3.896  10.804  17.347  0.00  0.00     0.033 H 
ATOM      6  H10 DAO d          -3.753  11.072  19.117  0.00  0.00     0.033 H 
BRANCH   4   7
ATOM      7  C5  DAO d          -3.326  12.804  17.910  0.00  0.00    -0.065 C 
ATOM      8  H7  DAO d          -3.416  12.993  16.830  0.00  0.00     0.033 H 
ATOM      9  H8  DAO d          -4.198  13.226  18.430  0.00  0.00     0.033 H 
BRANCH   7  10
ATOM     10  C4  DAO d          -2.071  13.507  18.420  0.00  0.00    -0.065 C 
ATOM     11  H5  DAO d          -2.208  13.749  19.485  0.00  0.00     0.033 H 
ATOM     12  H6  DAO d          -1.213  12.828  18.307  0.00  0.00     0.033 H 
BRANCH  10  13
ATOM     13  C3  DAO d          -1.783  14.804  17.650  0.00  0.00    -0.056 C 
ATOM     14  H3  DAO d          -1.520  15.593  18.371  0.00  0.00     0.033 H 
ATOM     15  H4  DAO d          -0.934  14.631  16.971  0.00  0.00     0.033 H 
BRANCH  13  16
ATOM     16  C2  DAO d          -2.988  15.269  16.826  0.00  0.00     0.016 C 
ATOM     17  H1  DAO d          -2.691  15.313  15.768  0.00  0.00     0.049 H 
ATOM     18  H2  DAO d          -3.798  14.534  16.948  0.00  0.00     0.049 H 
BRANCH  16  19
ATOM     19  C1  DAO d          -3.512  16.640  17.240  0.00  0.00     0.172 C 
ATOM     20  O1  DAO d          -4.661  17.000  16.876  0.00  0.00    -0.648 OA
ATOM     21  O2  DAO d          -2.807  17.394  17.947  0.00  0.00    -0.648 OA
ENDBRANCH  16  19
ENDBRANCH  13  16
ENDBRANCH  10  13
ENDBRANCH   7  10
ENDBRANCH   4   7
ENDBRANCH   1   4
BRANCH   1  22
ATOM     22  C8  DAO d          -1.714   9.514  17.283  0.00  0.00    -0.065 C 
ATOM     23  H13 DAO d          -0.675   9.438  16.930  0.00  0.00     0.033 H 
ATOM     24  H14 DAO d          -2.392   9.560  16.418  0.00  0.00     0.033 H 
BRANCH  22  25
ATOM     25  C9  DAO d          -2.044   8.280  18.098  0.00  0.00    -0.065 C 
ATOM     26  H15 DAO d          -2.929   8.496  18.716  0.00  0.00     0.033 H 
ATOM     27  H16 DAO d          -1.188   8.053  18.750  0.00  0.00     0.033 H 
BRANCH  25  28
ATOM     28  C10 DAO d          -2.341   7.048  17.241  0.00  0.00    -0.065 C 
ATOM     29  H17 DAO d          -2.007   7.240  16.211  0.00  0.00     0.033 H 
ATOM     30  H18 DAO d          -3.424   6.859  17.247  0.00  0.00     0.033 H 
BRANCH  28  31
ATOM     31  C11 DAO d          -1.623   5.826  17.775  0.00  0.00    -0.069 C 
ATOM     32  H19 DAO d          -1.000   5.393  16.978  0.00  0.00     0.032 H 
ATOM     33  H20 DAO d          -2.365   5.085  18.105  0.00  0.00     0.032 H 
BRANCH  31  34
ATOM     34  C12 DAO d          -0.746   6.208  18.941  0.00  0.00    -0.077 C 
ATOM     35  H21 DAO d          -1.270   6.944  19.569  0.00  0.00     0.027 H 
ATOM     36  H22 DAO d           0.191   6.648  18.568  0.00  0.00     0.027 H 
ATOM     37  H23 DAO d          -0.519   5.313  19.538  0.00  0.00     0.027 H 
ENDBRANCH  31  34
ENDBRANCH  28  31
ENDBRANCH  25  28
ENDBRANCH  22  25
ENDBRANCH   1  22
TORSDOF 11
ENDMDL
MODEL 5
REMARK VINA RESULT:      -4.9      3.429      7.308
REMARK  11 active torsions:
REMARK  status: ('A' for Active; 'I' for Inactive)
REMARK    1  A    between atoms: C1_3  and  C2_4 
REMARK    2  A    between atoms: C2_4  and  C3_5 
REMARK    3  A    between atoms: C3_5  and  C4_6 
REMARK    4  A    between atoms: C4_6  and  C5_7 
REMARK    5  A    between atoms: C5_7  and  C6_8 
REMARK    6  A    between atoms: C6_8  and  C7_9 
REMARK    7  A    between atoms: C7_9  and  C8_10 
REMARK    8  A    between atoms: C8_10  and  C9_11 
REMARK    9  A    between atoms: C9_11  and  C10_12 
REMARK   10  A    between atoms: C10_12  and  C11_13 
REMARK   11  A    between atoms: C11_13  and  C12_14 
ROOT
ATOM      1  C7  DAO d          -1.439  11.174  19.639  0.00  0.00    -0.065 C 
ATOM      2  H11 DAO d          -1.376  11.649  20.629  0.00  0.00     0.033 H 
ATOM      3  H12 DAO d          -0.478  10.697  19.399  0.00  0.00     0.033 H 
ENDROOT
BRANCH   1   4
ATOM      4  C6  DAO d          -1.723  12.257  18.594  0.00  0.00    -0.065 C 
ATOM      5  H9  DAO d          -1.220  13.191  18.885  0.00  0.00     0.033 H 
ATOM      6  H10 DAO d          -1.347  11.929  17.614  0.00  0.00     0.033 H 
BRANCH   4   7
ATOM      7  C5  DAO d          -3.224  12.494  18.510  0.00  0.00    -0.065 C 
ATOM      8  H7  DAO d          -3.739  11.574  18.823  0.00  0.00     0.033 H 
ATOM      9  H8  DAO d          -3.486  13.313  19.195  0.00  0.00     0.033 H 
BRANCH   7  10
ATOM     10  C4  DAO d          -3.703  12.863  17.109  0.00  0.00    -0.065 C 
ATOM     11  H5  DAO d          -3.382  12.079  16.406  0.00  0.00     0.033 H 
ATOM     12  H6  DAO d          -4.801  12.924  17.113  0.00  0.00     0.033 H 
BRANCH  10  13
ATOM     13  C3  DAO d          -3.133  14.210  16.641  0.00  0.00    -0.056 C 
ATOM     14  H3  DAO d          -2.035  14.168  16.692  0.00  0.00     0.033 H 
ATOM     15  H4  DAO d          -3.445  14.385  15.600  0.00  0.00     0.033 H 
BRANCH  13  16
ATOM     16  C2  DAO d          -3.623  15.377  17.504  0.00  0.00     0.016 C 
ATOM     17  H1  DAO d          -4.346  15.964  16.919  0.00  0.00     0.049 H 
ATOM     18  H2  DAO d          -4.120  14.967  18.396  0.00  0.00     0.049 H 
BRANCH  16  19
ATOM     19  C1  DAO d          -2.502  16.306  17.960  0.00  0.00     0.172 C 
ATOM     20  O1  DAO d          -1.431  15.816  18.399  0.00  0.00    -0.648 OA
ATOM     21  O2  DAO d          -2.647  17.547  17.885  0.00  0.00    -0.648 OA
ENDBRANCH  16  19
ENDBRANCH  13  16
ENDBRANCH  10  13
ENDBRANCH   7  10
ENDBRANCH   4   7
ENDBRANCH   1   4
BRANCH   1  22
ATOM     22  C8  DAO d          -2.521  10.100  19.681  0.00  0.00    -0.065 C 
ATOM     23  H13 DAO d          -3.334  10.389  18.999  0.00  0.00     0.033 H 
ATOM     24  H14 DAO d          -2.911  10.029  20.707  0.00  0.00     0.033 H 
BRANCH  22  25
ATOM     25  C9  DAO d          -1.991   8.743  19.263  0.00  0.00    -0.065 C 
ATOM     26  H15 DAO d          -2.571   7.966  19.783  0.00  0.00     0.033 H 
ATOM     27  H16 DAO d          -0.935   8.674  19.563  0.00  0.00     0.033 H 
BRANCH  25  28
ATOM     28  C10 DAO d          -2.086   8.493  17.757  0.00  0.00    -0.065 C 
ATOM     29  H17 DAO d          -1.218   8.952  17.262  0.00  0.00     0.033 H 
ATOM     30  H18 DAO d          -3.011   8.950  17.375  0.00  0.00     0.033 H 
BRANCH  28  31
ATOM     31  C11 DAO d          -2.104   7.010  17.451  0.00  0.00    -0.069 C 
ATOM     32  H19 DAO d          -1.462   6.482  18.171  0.00  0.00     0.032 H 
ATOM     33  H20 DAO d          -1.726   6.845  16.431  0.00  0.00     0.032 H 
BRANCH  31  34
ATOM     34  C12 DAO d          -3.512   6.477  17.553  0.00  0.00    -0.077 C 
ATOM     35  H21 DAO d          -3.647   5.980  18.525  0.00  0.00     0.027 H 
ATOM     36  H22 DAO d          -3.690   5.752  16.744  0.00  0.00     0.027 H 
ATOM     37  H23 DAO d          -4.227   7.308  17.463  0.00  0.00     0.027 H 
ENDBRANCH  31  34
ENDBRANCH  28  31
ENDBRANCH  25  28
ENDBRANCH  22  25
ENDBRANCH   1  22
TORSDOF 11
ENDMDL
MODEL 6
REMARK VINA RESULT:      -4.5      1.473      1.864
REMARK  11 active torsions:
REMARK  status: ('A' for Active; 'I' for Inactive)
REMARK    1  A    between atoms: C1_3  and  C2_4 
REMARK    2  A    between atoms: C2_4  and  C3_5 
REMARK    3  A    between atoms: C3_5  and  C4_6 
REMARK    4  A    between atoms: C4_6  and  C5_7 
REMARK    5  A    between atoms: C5_7  and  C6_8 
REMARK    6  A    between atoms: C6_8  and  C7_9 
REMARK    7  A    between atoms: C7_9  and  C8_10 
REMARK    8  A    between atoms: C8_10  and  C9_11 
REMARK    9  A    between atoms: C9_11  and  C10_12 
REMARK   10  A    between atoms: C10_12  and  C11_13 
REMARK   11  A    between atoms: C11_13  and  C12_14 
ROOT
ATOM      1  C7  DAO d          -1.745  14.378  17.898  0.00  0.00    -0.065 C 
ATOM      2  H11 DAO d          -2.602  14.067  17.283  0.00  0.00     0.033 H 
ATOM      3  H12 DAO d          -0.843  14.430  17.271  0.00  0.00     0.033 H 
ENDROOT
BRANCH   1   4
ATOM      4  C6  DAO d          -1.521  13.331  18.994  0.00  0.00    -0.065 C 
ATOM      5  H9  DAO d          -0.461  13.041  19.014  0.00  0.00     0.033 H 
ATOM      6  H10 DAO d          -1.804  13.754  19.969  0.00  0.00     0.033 H 
BRANCH   4   7
ATOM      7  C5  DAO d          -2.378  12.108  18.703  0.00  0.00    -0.065 C 
ATOM      8  H7  DAO d          -2.952  11.862  19.608  0.00  0.00     0.033 H 
ATOM      9  H8  DAO d          -3.070  12.354  17.885  0.00  0.00     0.033 H 
BRANCH   7  10
ATOM     10  C4  DAO d          -1.566  10.881  18.297  0.00  0.00    -0.065 C 
ATOM     11  H5  DAO d          -0.789  11.190  17.582  0.00  0.00     0.033 H 
ATOM     12  H6  DAO d          -1.091  10.457  19.193  0.00  0.00     0.033 H 
BRANCH  10  13
ATOM     13  C3  DAO d          -2.441   9.802  17.642  0.00  0.00    -0.056 C 
ATOM     14  H3  DAO d          -3.476   9.924  17.994  0.00  0.00     0.033 H 
ATOM     15  H4  DAO d          -2.408   9.934  16.550  0.00  0.00     0.033 H 
BRANCH  13  16
ATOM     16  C2  DAO d          -1.967   8.386  17.983  0.00  0.00     0.016 C 
ATOM     17  H1  DAO d          -1.994   7.779  17.066  0.00  0.00     0.049 H 
ATOM     18  H2  DAO d          -0.932   8.444  18.353  0.00  0.00     0.049 H 
BRANCH  16  19
ATOM     19  C1  DAO d          -2.820   7.699  19.044  0.00  0.00     0.172 C 
ATOM     20  O1  DAO d          -3.053   6.467  18.950  0.00  0.00    -0.648 OA
ATOM     21  O2  DAO d          -3.274   8.358  20.007  0.00  0.00    -0.648 OA
ENDBRANCH  16  19
ENDBRANCH  13  16
ENDBRANCH  10  13
ENDBRANCH   7  10
ENDBRANCH   4   7
ENDBRANCH   1   4
BRANCH   1  22
ATOM     22  C8  DAO d          -2.027  15.767  18.462  0.00  0.00    -0.065 C 
ATOM     23  H13 DAO d          -1.141  16.113  19.014  0.00  0.00     0.033 H 
ATOM     24  H14 DAO d          -2.884  15.704  19.148  0.00  0.00     0.033 H 
BRANCH  22  25
ATOM     25  C9  DAO d          -2.347  16.770  17.372  0.00  0.00    -0.065 C 
ATOM     26  H15 DAO d          -2.103  16.317  16.399  0.00  0.00     0.033 H 
ATOM     27  H16 DAO d          -1.725  17.663  17.526  0.00  0.00     0.033 H 
BRANCH  25  28
ATOM     28  C10 DAO d          -3.815  17.198  17.354  0.00  0.00    -0.065 C 
ATOM     29  H17 DAO d          -3.873  18.288  17.480  0.00  0.00     0.033 H 
ATOM     30  H18 DAO d          -4.344  16.704  18.183  0.00  0.00     0.033 H 
BRANCH  28  31
ATOM     31  C11 DAO d          -4.479  16.814  16.048  0.00  0.00    -0.069 C 
ATOM     32  H19 DAO d          -4.225  17.558  15.278  0.00  0.00     0.032 H 
ATOM     33  H20 DAO d          -5.570  16.789  16.189  0.00  0.00     0.032 H 
BRANCH  31  34
ATOM     34  C12 DAO d          -4.002  15.453  15.603  0.00  0.00    -0.077 C 
ATOM     35  H21 DAO d          -4.141  14.730  16.421  0.00  0.00     0.027 H 
ATOM     36  H22 DAO d          -2.935  15.507  15.340  0.00  0.00     0.027 H 
ATOM     37  H23 DAO d          -4.581  15.130  14.726  0.00  0.00     0.027 H 
ENDBRANCH  31  34
ENDBRANCH  28  31
ENDBRANCH  25  28
ENDBRANCH  22  25
ENDBRANCH   1  22
TORSDOF 11
ENDMDL
MODEL 7
REMARK VINA RESULT:      -4.4      3.454      8.198
REMARK  11 active torsions:
REMARK  status: ('A' for Active; 'I' for Inactive)
REMARK    1  A    between atoms: C1_3  and  C2_4 
REMARK    2  A    between atoms: C2_4  and  C3_5 
REMARK    3  A    between atoms: C3_5  and  C4_6 
REMARK    4  A    between atoms: C4_6  and  C5_7 
REMARK    5  A    between atoms: C5_7  and  C6_8 
REMARK    6  A    between atoms: C6_8  and  C7_9 
REMARK    7  A    between atoms: C7_9  and  C8_10 
REMARK    8  A    between atoms: C8_10  and  C9_11 
REMARK    9  A    between atoms: C9_11  and  C10_12 
REMARK   10  A    between atoms: C10_12  and  C11_13 
REMARK   11  A    between atoms: C11_13  and  C12_14 
ROOT
ATOM      1  C7  DAO d          -2.916   9.070  18.825  0.00  0.00    -0.065 C 
ATOM      2  H11 DAO d          -3.859   9.630  18.897  0.00  0.00     0.033 H 
ATOM      3  H12 DAO d          -2.470   8.973  19.826  0.00  0.00     0.033 H 
ENDROOT
BRANCH   1   4
ATOM      4  C6  DAO d          -1.948   9.850  17.929  0.00  0.00    -0.065 C 
ATOM      5  H9  DAO d          -0.914   9.560  18.165  0.00  0.00     0.033 H 
ATOM      6  H10 DAO d          -2.161   9.624  16.875  0.00  0.00     0.033 H 
BRANCH   4   7
ATOM      7  C5  DAO d          -2.127  11.341  18.175  0.00  0.00    -0.065 C 
ATOM      8  H7  DAO d          -2.290  11.499  19.251  0.00  0.00     0.033 H 
ATOM      9  H8  DAO d          -1.207  11.858  17.864  0.00  0.00     0.033 H 
BRANCH   7  10
ATOM     10  C4  DAO d          -3.303  11.945  17.413  0.00  0.00    -0.065 C 
ATOM     11  H5  DAO d          -3.076  11.925  16.337  0.00  0.00     0.033 H 
ATOM     12  H6  DAO d          -4.201  11.343  17.610  0.00  0.00     0.033 H 
BRANCH  10  13
ATOM     13  C3  DAO d          -3.578  13.397  17.834  0.00  0.00    -0.056 C 
ATOM     14  H3  DAO d          -4.180  13.884  17.053  0.00  0.00     0.033 H 
ATOM     15  H4  DAO d          -4.139  13.391  18.780  0.00  0.00     0.033 H 
BRANCH  13  16
ATOM     16  C2  DAO d          -2.286  14.197  18.032  0.00  0.00     0.016 C 
ATOM     17  H1  DAO d          -2.101  14.298  19.112  0.00  0.00     0.049 H 
ATOM     18  H2  DAO d          -1.457  13.641  17.569  0.00  0.00     0.049 H 
BRANCH  16  19
ATOM     19  C1  DAO d          -2.337  15.592  17.418  0.00  0.00     0.172 C 
ATOM     20  O1  DAO d          -2.154  16.599  18.148  0.00  0.00    -0.648 OA
ATOM     21  O2  DAO d          -2.545  15.729  16.191  0.00  0.00    -0.648 OA
ENDBRANCH  16  19
ENDBRANCH  13  16
ENDBRANCH  10  13
ENDBRANCH   7  10
ENDBRANCH   4   7
ENDBRANCH   1   4
BRANCH   1  22
ATOM     22  C8  DAO d          -3.216   7.674  18.288  0.00  0.00    -0.065 C 
ATOM     23  H13 DAO d          -3.915   7.762  17.444  0.00  0.00     0.033 H 
ATOM     24  H14 DAO d          -3.680   7.078  19.087  0.00  0.00     0.033 H 
BRANCH  22  25
ATOM     25  C9  DAO d          -1.963   6.965  17.814  0.00  0.00    -0.065 C 
ATOM     26  H15 DAO d          -1.467   6.514  18.686  0.00  0.00     0.033 H 
ATOM     27  H16 DAO d          -1.295   7.708  17.355  0.00  0.00     0.033 H 
BRANCH  25  28
ATOM     28  C10 DAO d          -2.241   5.864  16.790  0.00  0.00    -0.065 C 
ATOM     29  H17 DAO d          -1.658   6.064  15.880  0.00  0.00     0.033 H 
ATOM     30  H18 DAO d          -3.313   5.862  16.545  0.00  0.00     0.033 H 
BRANCH  28  31
ATOM     31  C11 DAO d          -1.858   4.503  17.334  0.00  0.00    -0.069 C 
ATOM     32  H19 DAO d          -0.772   4.477  17.515  0.00  0.00     0.032 H 
ATOM     33  H20 DAO d          -2.127   3.729  16.601  0.00  0.00     0.032 H 
BRANCH  31  34
ATOM     34  C12 DAO d          -2.585   4.239  18.629  0.00  0.00    -0.077 C 
ATOM     35  H21 DAO d          -3.254   3.374  18.504  0.00  0.00     0.027 H 
ATOM     36  H22 DAO d          -3.179   5.124  18.904  0.00  0.00     0.027 H 
ATOM     37  H23 DAO d          -1.855   4.025  19.423  0.00  0.00     0.027 H 
ENDBRANCH  31  34
ENDBRANCH  28  31
ENDBRANCH  25  28
ENDBRANCH  22  25
ENDBRANCH   1  22
TORSDOF 11
ENDMDL
MODEL 8
REMARK VINA RESULT:      -4.3      3.534      8.186
REMARK  11 active torsions:
REMARK  status: ('A' for Active; 'I' for Inactive)
REMARK    1  A    between atoms: C1_3  and  C2_4 
REMARK    2  A    between atoms: C2_4  and  C3_5 
REMARK    3  A    between atoms: C3_5  and  C4_6 
REMARK    4  A    between atoms: C4_6  and  C5_7 
REMARK    5  A    between atoms: C5_7  and  C6_8 
REMARK    6  A    between atoms: C6_8  and  C7_9 
REMARK    7  A    between atoms: C7_9  and  C8_10 
REMARK    8  A    between atoms: C8_10  and  C9_11 
REMARK    9  A    between atoms: C9_11  and  C10_12 
REMARK   10  A    between atoms: C10_12  and  C11_13 
REMARK   11  A    between atoms: C11_13  and  C12_14 
ROOT
ATOM      1  C7  DAO d          -2.722  10.068  19.627  0.00  0.00    -0.065 C 
ATOM      2  H11 DAO d          -3.613  10.712  19.588  0.00  0.00     0.033 H 
ATOM      3  H12 DAO d          -2.457   9.872  20.676  0.00  0.00     0.033 H 
ENDROOT
BRANCH   1   4
ATOM      4  C6  DAO d          -1.557  10.802  18.956  0.00  0.00    -0.065 C 
ATOM      5  H9  DAO d          -0.857  11.162  19.725  0.00  0.00     0.033 H 
ATOM      6  H10 DAO d          -1.032  10.114  18.277  0.00  0.00     0.033 H 
BRANCH   4   7
ATOM      7  C5  DAO d          -2.096  11.985  18.165  0.00  0.00    -0.065 C 
ATOM      8  H7  DAO d          -1.824  11.849  17.108  0.00  0.00     0.033 H 
ATOM      9  H8  DAO d          -3.191  11.999  18.264  0.00  0.00     0.033 H 
BRANCH   7  10
ATOM     10  C4  DAO d          -1.549  13.330  18.636  0.00  0.00    -0.065 C 
ATOM     11  H5  DAO d          -1.379  13.283  19.722  0.00  0.00     0.033 H 
ATOM     12  H6  DAO d          -0.596  13.525  18.124  0.00  0.00     0.033 H 
BRANCH  10  13
ATOM     13  C3  DAO d          -2.518  14.483  18.336  0.00  0.00    -0.056 C 
ATOM     14  H3  DAO d          -3.475  14.061  17.992  0.00  0.00     0.033 H 
ATOM     15  H4  DAO d          -2.682  15.058  19.259  0.00  0.00     0.033 H 
BRANCH  13  16
ATOM     16  C2  DAO d          -1.979  15.426  17.256  0.00  0.00     0.016 C 
ATOM     17  H1  DAO d          -1.424  16.238  17.748  0.00  0.00     0.049 H 
ATOM     18  H2  DAO d          -1.297  14.859  16.605  0.00  0.00     0.049 H 
BRANCH  16  19
ATOM     19  C1  DAO d          -3.072  16.044  16.389  0.00  0.00     0.172 C 
ATOM     20  O1  DAO d          -3.742  15.310  15.620  0.00  0.00    -0.648 OA
ATOM     21  O2  DAO d          -3.305  17.272  16.456  0.00  0.00    -0.648 OA
ENDBRANCH  16  19
ENDBRANCH  13  16
ENDBRANCH  10  13
ENDBRANCH   7  10
ENDBRANCH   4   7
ENDBRANCH   1   4
BRANCH   1  22
ATOM     22  C8  DAO d          -3.048   8.741  18.949  0.00  0.00    -0.065 C 
ATOM     23  H13 DAO d          -2.710   8.784  17.904  0.00  0.00     0.033 H 
ATOM     24  H14 DAO d          -4.136   8.587  18.976  0.00  0.00     0.033 H 
BRANCH  22  25
ATOM     25  C9  DAO d          -2.371   7.571  19.634  0.00  0.00    -0.065 C 
ATOM     26  H15 DAO d          -3.148   6.893  20.017  0.00  0.00     0.033 H 
ATOM     27  H16 DAO d          -1.774   7.956  20.474  0.00  0.00     0.033 H 
BRANCH  25  28
ATOM     28  C10 DAO d          -1.448   6.778  18.707  0.00  0.00    -0.065 C 
ATOM     29  H17 DAO d          -0.771   7.474  18.192  0.00  0.00     0.033 H 
ATOM     30  H18 DAO d          -2.058   6.243  17.965  0.00  0.00     0.033 H 
BRANCH  28  31
ATOM     31  C11 DAO d          -0.625   5.773  19.486  0.00  0.00    -0.069 C 
ATOM     32  H19 DAO d          -0.451   6.156  20.503  0.00  0.00     0.032 H 
ATOM     33  H20 DAO d           0.340   5.623  18.980  0.00  0.00     0.032 H 
BRANCH  31  34
ATOM     34  C12 DAO d          -1.356   4.455  19.567  0.00  0.00    -0.077 C 
ATOM     35  H21 DAO d          -1.642   4.258  20.611  0.00  0.00     0.027 H 
ATOM     36  H22 DAO d          -0.699   3.648  19.209  0.00  0.00     0.027 H 
ATOM     37  H23 DAO d          -2.259   4.498  18.941  0.00  0.00     0.027 H 
ENDBRANCH  31  34
ENDBRANCH  28  31
ENDBRANCH  25  28
ENDBRANCH  22  25
ENDBRANCH   1  22
TORSDOF 11
ENDMDL
MODEL 9
REMARK VINA RESULT:      -3.1      3.491      8.530
REMARK  11 active torsions:
REMARK  status: ('A' for Active; 'I' for Inactive)
REMARK    1  A    between atoms: C1_3  and  C2_4 
REMARK    2  A    between atoms: C2_4  and  C3_5 
REMARK    3  A    between atoms: C3_5  and  C4_6 
REMARK    4  A    between atoms: C4_6  and  C5_7 
REMARK    5  A    between atoms: C5_7  and  C6_8 
REMARK    6  A    between atoms: C6_8  and  C7_9 
REMARK    7  A    between atoms: C7_9  and  C8_10 
REMARK    8  A    between atoms: C8_10  and  C9_11 
REMARK    9  A    between atoms: C9_11  and  C10_12 
REMARK   10  A    between atoms: C10_12  and  C11_13 
REMARK   11  A    between atoms: C11_13  and  C12_14 
ROOT
ATOM      1  C7  DAO d          -3.599   6.511  18.095  0.00  0.00    -0.065 C 
ATOM      2  H11 DAO d          -4.495   7.141  17.991  0.00  0.00     0.033 H 
ATOM      3  H12 DAO d          -3.276   6.502  19.146  0.00  0.00     0.033 H 
ENDROOT
BRANCH   1   4
ATOM      4  C6  DAO d          -2.477   7.109  17.240  0.00  0.00    -0.065 C 
ATOM      5  H9  DAO d          -1.687   6.358  17.093  0.00  0.00     0.033 H 
ATOM      6  H10 DAO d          -2.882   7.413  16.264  0.00  0.00     0.033 H 
BRANCH   4   7
ATOM      7  C5  DAO d          -1.897   8.323  17.950  0.00  0.00    -0.065 C 
ATOM      8  H7  DAO d          -1.053   7.992  18.572  0.00  0.00     0.033 H 
ATOM      9  H8  DAO d          -1.537   9.032  17.190  0.00  0.00     0.033 H 
BRANCH   7  10
ATOM     10  C4  DAO d          -2.904   9.042  18.844  0.00  0.00    -0.065 C 
ATOM     11  H5  DAO d          -3.805   9.267  18.254  0.00  0.00     0.033 H 
ATOM     12  H6  DAO d          -3.170   8.382  19.682  0.00  0.00     0.033 H 
BRANCH  10  13
ATOM     13  C3  DAO d          -2.339  10.355  19.408  0.00  0.00    -0.056 C 
ATOM     14  H3  DAO d          -3.139  10.879  19.953  0.00  0.00     0.033 H 
ATOM     15  H4  DAO d          -1.518  10.119  20.100  0.00  0.00     0.033 H 
BRANCH  13  16
ATOM     16  C2  DAO d          -1.807  11.277  18.306  0.00  0.00     0.016 C 
ATOM     17  H1  DAO d          -0.744  11.480  18.505  0.00  0.00     0.049 H 
ATOM     18  H2  DAO d          -1.906  10.760  17.340  0.00  0.00     0.049 H 
BRANCH  16  19
ATOM     19  C1  DAO d          -2.545  12.608  18.220  0.00  0.00     0.172 C 
ATOM     20  O1  DAO d          -3.690  12.650  17.701  0.00  0.00    -0.648 OA
ATOM     21  O2  DAO d          -2.018  13.649  18.674  0.00  0.00    -0.648 OA
ENDBRANCH  16  19
ENDBRANCH  13  16
ENDBRANCH  10  13
ENDBRANCH   7  10
ENDBRANCH   4   7
ENDBRANCH   1   4
BRANCH   1  22
ATOM     22  C8  DAO d          -3.955   5.086  17.682  0.00  0.00    -0.065 C 
ATOM     23  H13 DAO d          -3.025   4.524  17.512  0.00  0.00     0.033 H 
ATOM     24  H14 DAO d          -4.538   5.121  16.750  0.00  0.00     0.033 H 
BRANCH  22  25
ATOM     25  C9  DAO d          -4.770   4.374  18.742  0.00  0.00    -0.065 C 
ATOM     26  H15 DAO d          -4.943   3.338  18.413  0.00  0.00     0.033 H 
ATOM     27  H16 DAO d          -5.735   4.891  18.846  0.00  0.00     0.033 H 
BRANCH  25  28
ATOM     28  C10 DAO d          -4.088   4.340  20.111  0.00  0.00    -0.065 C 
ATOM     29  H17 DAO d          -3.910   3.294  20.398  0.00  0.00     0.033 H 
ATOM     30  H18 DAO d          -4.745   4.817  20.852  0.00  0.00     0.033 H 
BRANCH  28  31
ATOM     31  C11 DAO d          -2.765   5.076  20.078  0.00  0.00    -0.069 C 
ATOM     32  H19 DAO d          -2.865   6.029  20.620  0.00  0.00     0.032 H 
ATOM     33  H20 DAO d          -2.485   5.276  19.034  0.00  0.00     0.032 H 
BRANCH  31  34
ATOM     34  C12 DAO d          -1.691   4.241  20.731  0.00  0.00    -0.077 C 
ATOM     35  H21 DAO d          -0.868   4.893  21.061  0.00  0.00     0.027 H 
ATOM     36  H22 DAO d          -1.307   3.506  20.008  0.00  0.00     0.027 H 
ATOM     37  H23 DAO d          -2.112   3.715  21.600  0.00  0.00     0.027 H 
ENDBRANCH  31  34
ENDBRANCH  28  31
ENDBRANCH  25  28
ENDBRANCH  22  25
ENDBRANCH   1  22
TORSDOF 11
ENDMDL
