MODEL 1
REMARK VINA RESULT:      -4.8      0.000      0.000
REMARK  5 active torsions:
REMARK  status: ('A' for Active; 'I' for Inactive)
REMARK    1  A    between atoms: C11_2  and  O1_3 
REMARK    2  A    between atoms: C11_2  and  C13_14 
REMARK    3  A    between atoms: O1_3  and  C2_4 
REMARK    4  A    between atoms: C7_5  and  C1_6 
REMARK    5  A    between atoms: C3_10  and  C8_11 
ROOT
ATOM      1  C2  M3S d          35.725  40.249  -2.864  0.00  0.00     0.102 A 
ATOM      2  C7  M3S d          35.915  40.633  -1.524  0.00  0.00    -0.027 A 
ATOM      3  C6  M3S d          36.373  39.684  -0.607  0.00  0.00    -0.074 A 
ATOM      4  C5  M3S d          36.645  38.375  -1.018  0.00  0.00    -0.081 A 
ATOM      5  C4  M3S d          36.456  37.994  -2.359  0.00  0.00    -0.064 A 
ATOM      6  C3  M3S d          35.992  38.947  -3.272  0.00  0.00     0.075 A 
ATOM      7  H4  M3S d          36.520  39.964   0.430  0.00  0.00     0.084 H 
ATOM      8  H5  M3S d          37.005  37.648  -0.299  0.00  0.00     0.083 H 
ATOM      9  H6  M3S d          36.665  36.980  -2.679  0.00  0.00     0.085 H 
ENDROOT
BRANCH   1  10
ATOM     10  O1  M3S d          35.268  41.232  -3.717  0.00  0.00    -0.278 OA
BRANCH  10  11
ATOM     11  C11 M3S d          36.121  41.740  -4.626  0.00  0.00     0.260 C 
ATOM     12  O12 M3S d          35.672  41.949  -5.750  0.00  0.00    -0.265 OA
BRANCH  11  13
ATOM     13  C13 M3S d          37.508  42.054  -4.153  0.00  0.00     0.004 C 
ATOM     14  H7  M3S d          37.565  43.112  -3.860  0.00  0.00     0.041 H 
ATOM     15  H8  M3S d          38.225  41.859  -4.963  0.00  0.00     0.041 H 
ATOM     16  H9  M3S d          37.752  41.420  -3.287  0.00  0.00     0.041 H 
ENDBRANCH  11  13
ENDBRANCH  10  11
ENDBRANCH   1  10
BRANCH   2  17
ATOM     17  C1  M3S d          35.612  42.074  -1.115  0.00  0.00    -0.049 C 
ATOM     18  H1  M3S d          34.561  42.152  -0.798  0.00  0.00     0.033 H 
ATOM     19  H2  M3S d          35.786  42.743  -1.972  0.00  0.00     0.033 H 
ATOM     20  H3  M3S d          36.269  42.366  -0.283  0.00  0.00     0.033 H 
ENDBRANCH   2  17
BRANCH   6  21
ATOM     21  C8  M3S d          35.793  38.484  -4.771  0.00  0.00     0.212 C 
ATOM     22  O10 M3S d          36.890  38.186  -5.422  0.00  0.00    -0.644 OA
ATOM     23  O9  M3S d          34.557  38.414  -5.145  0.00  0.00    -0.644 OA
ENDBRANCH   6  21
TORSDOF 5
ENDMDL
MODEL 2
REMARK VINA RESULT:      -4.7      2.009      4.706
REMARK  5 active torsions:
REMARK  status: ('A' for Active; 'I' for Inactive)
REMARK    1  A    between atoms: C11_2  and  O1_3 
REMARK    2  A    between atoms: C11_2  and  C13_14 
REMARK    3  A    between atoms: O1_3  and  C2_4 
REMARK    4  A    between atoms: C7_5  and  C1_6 
REMARK    5  A    between atoms: C3_10  and  C8_11 
ROOT
ATOM      1  C2  M3S d          36.409  40.093  -4.032  0.00  0.00     0.102 A 
ATOM      2  C7  M3S d          36.025  39.262  -5.101  0.00  0.00    -0.027 A 
ATOM      3  C6  M3S d          35.280  39.808  -6.149  0.00  0.00    -0.074 A 
ATOM      4  C5  M3S d          34.927  41.162  -6.137  0.00  0.00    -0.081 A 
ATOM      5  C4  M3S d          35.313  41.991  -5.068  0.00  0.00    -0.064 A 
ATOM      6  C3  M3S d          36.055  41.438  -4.019  0.00  0.00     0.075 A 
ATOM      7  H4  M3S d          34.973  39.179  -6.976  0.00  0.00     0.084 H 
ATOM      8  H5  M3S d          34.352  41.575  -6.957  0.00  0.00     0.083 H 
ATOM      9  H6  M3S d          35.040  43.040  -5.057  0.00  0.00     0.085 H 
ENDROOT
BRANCH   1  10
ATOM     10  O1  M3S d          37.140  39.492  -3.029  0.00  0.00    -0.278 OA
BRANCH  10  11
ATOM     11  C11 M3S d          36.477  38.835  -2.059  0.00  0.00     0.260 C 
ATOM     12  O12 M3S d          35.327  39.199  -1.830  0.00  0.00    -0.265 OA
BRANCH  11  13
ATOM     13  C13 M3S d          37.192  37.690  -1.406  0.00  0.00     0.004 C 
ATOM     14  H7  M3S d          36.556  37.264  -0.615  0.00  0.00     0.041 H 
ATOM     15  H8  M3S d          38.133  38.048  -0.965  0.00  0.00     0.041 H 
ATOM     16  H9  M3S d          37.409  36.916  -2.157  0.00  0.00     0.041 H 
ENDBRANCH  11  13
ENDBRANCH  10  11
ENDBRANCH   1  10
BRANCH   2  17
ATOM     17  C1  M3S d          36.435  37.790  -5.079  0.00  0.00    -0.049 C 
ATOM     18  H1  M3S d          36.975  37.573  -4.145  0.00  0.00     0.033 H 
ATOM     19  H2  M3S d          37.090  37.579  -5.938  0.00  0.00     0.033 H 
ATOM     20  H3  M3S d          35.537  37.158  -5.140  0.00  0.00     0.033 H 
ENDBRANCH   2  17
BRANCH   6  21
ATOM     21  C8  M3S d          36.474  42.400  -2.836  0.00  0.00     0.212 C 
ATOM     22  O10 M3S d          35.707  42.359  -1.775  0.00  0.00    -0.644 OA
ATOM     23  O9  M3S d          37.557  43.071  -3.056  0.00  0.00    -0.644 OA
ENDBRANCH   6  21
TORSDOF 5
ENDMDL
MODEL 3
REMARK VINA RESULT:      -4.6      1.839      3.362
REMARK  5 active torsions:
REMARK  status: ('A' for Active; 'I' for Inactive)
REMARK    1  A    between atoms: C11_2  and  O1_3 
REMARK    2  A    between atoms: C11_2  and  C13_14 
REMARK    3  A    between atoms: O1_3  and  C2_4 
REMARK    4  A    between atoms: C7_5  and  C1_6 
REMARK    5  A    between atoms: C3_10  and  C8_11 
ROOT
ATOM      1  C2  M3S d          36.596  40.006  -2.910  0.00  0.00     0.102 A 
ATOM      2  C7  M3S d          36.557  38.651  -2.532  0.00  0.00    -0.027 A 
ATOM      3  C6  M3S d          36.289  37.684  -3.505  0.00  0.00    -0.074 A 
ATOM      4  C5  M3S d          36.071  38.060  -4.834  0.00  0.00    -0.081 A 
ATOM      5  C4  M3S d          36.112  39.415  -5.210  0.00  0.00    -0.064 A 
ATOM      6  C3  M3S d          36.376  40.378  -4.231  0.00  0.00     0.075 A 
ATOM      7  H4  M3S d          36.251  36.638  -3.227  0.00  0.00     0.084 H 
ATOM      8  H5  M3S d          35.868  37.302  -5.582  0.00  0.00     0.083 H 
ATOM      9  H6  M3S d          35.942  39.707  -6.240  0.00  0.00     0.085 H 
ENDROOT
BRANCH   1  10
ATOM     10  O1  M3S d          36.862  40.908  -1.901  0.00  0.00    -0.278 OA
BRANCH  10  11
ATOM     11  C11 M3S d          35.877  41.737  -1.506  0.00  0.00     0.260 C 
ATOM     12  O12 M3S d          34.763  41.242  -1.362  0.00  0.00    -0.265 OA
BRANCH  11  13
ATOM     13  C13 M3S d          36.260  43.158  -1.223  0.00  0.00     0.004 C 
ATOM     14  H7  M3S d          37.285  43.190  -0.826  0.00  0.00     0.041 H 
ATOM     15  H8  M3S d          35.567  43.584  -0.484  0.00  0.00     0.041 H 
ATOM     16  H9  M3S d          36.209  43.744  -2.153  0.00  0.00     0.041 H 
ENDBRANCH  11  13
ENDBRANCH  10  11
ENDBRANCH   1  10
BRANCH   2  17
ATOM     17  C1  M3S d          36.807  38.281  -1.070  0.00  0.00    -0.049 C 
ATOM     18  H1  M3S d          37.814  38.612  -0.775  0.00  0.00     0.033 H 
ATOM     19  H2  M3S d          36.729  37.190  -0.949  0.00  0.00     0.033 H 
ATOM     20  H3  M3S d          36.057  38.774  -0.434  0.00  0.00     0.033 H 
ENDBRANCH   2  17
BRANCH   6  21
ATOM     21  C8  M3S d          36.417  41.891  -4.689  0.00  0.00     0.212 C 
ATOM     22  O10 M3S d          37.557  42.509  -4.501  0.00  0.00    -0.644 OA
ATOM     23  O9  M3S d          35.324  42.309  -5.239  0.00  0.00    -0.644 OA
ENDBRANCH   6  21
TORSDOF 5
ENDMDL
MODEL 4
REMARK VINA RESULT:      -4.5      1.228      3.516
REMARK  5 active torsions:
REMARK  status: ('A' for Active; 'I' for Inactive)
REMARK    1  A    between atoms: C11_2  and  O1_3 
REMARK    2  A    between atoms: C11_2  and  C13_14 
REMARK    3  A    between atoms: O1_3  and  C2_4 
REMARK    4  A    between atoms: C7_5  and  C1_6 
REMARK    5  A    between atoms: C3_10  and  C8_11 
ROOT
ATOM      1  C2  M3S d          36.897  39.561  -2.990  0.00  0.00     0.102 A 
ATOM      2  C7  M3S d          36.802  38.767  -1.833  0.00  0.00    -0.027 A 
ATOM      3  C6  M3S d          36.157  39.285  -0.707  0.00  0.00    -0.074 A 
ATOM      4  C5  M3S d          35.609  40.573  -0.735  0.00  0.00    -0.081 A 
ATOM      5  C4  M3S d          35.705  41.364  -1.894  0.00  0.00    -0.064 A 
ATOM      6  C3  M3S d          36.356  40.841  -3.016  0.00  0.00     0.075 A 
ATOM      7  H4  M3S d          36.080  38.687   0.193  0.00  0.00     0.084 H 
ATOM      8  H5  M3S d          35.107  40.963   0.142  0.00  0.00     0.083 H 
ATOM      9  H6  M3S d          35.282  42.362  -1.916  0.00  0.00     0.085 H 
ENDROOT
BRANCH   1  10
ATOM     10  O1  M3S d          37.549  38.991  -4.064  0.00  0.00    -0.278 OA
BRANCH  10  11
ATOM     11  C11 M3S d          36.845  38.197  -4.892  0.00  0.00     0.260 C 
ATOM     12  O12 M3S d          37.485  37.394  -5.565  0.00  0.00    -0.265 OA
BRANCH  11  13
ATOM     13  C13 M3S d          35.352  38.334  -4.858  0.00  0.00     0.004 C 
ATOM     14  H7  M3S d          34.942  37.680  -4.073  0.00  0.00     0.041 H 
ATOM     15  H8  M3S d          34.935  38.043  -5.832  0.00  0.00     0.041 H 
ATOM     16  H9  M3S d          35.085  39.379  -4.641  0.00  0.00     0.041 H 
ENDBRANCH  11  13
ENDBRANCH  10  11
ENDBRANCH   1  10
BRANCH   2  17
ATOM     17  C1  M3S d          37.408  37.364  -1.844  0.00  0.00    -0.049 C 
ATOM     18  H1  M3S d          36.949  36.773  -2.651  0.00  0.00     0.033 H 
ATOM     19  H2  M3S d          37.219  36.875  -0.877  0.00  0.00     0.033 H 
ATOM     20  H3  M3S d          38.493  37.434  -2.013  0.00  0.00     0.033 H 
ENDBRANCH   2  17
BRANCH   6  21
ATOM     21  C8  M3S d          36.442  41.758  -4.301  0.00  0.00     0.212 C 
ATOM     22  O10 M3S d          35.368  41.786  -5.051  0.00  0.00    -0.644 OA
ATOM     23  O9  M3S d          37.556  42.404  -4.418  0.00  0.00    -0.644 OA
ENDBRANCH   6  21
TORSDOF 5
ENDMDL
MODEL 5
REMARK VINA RESULT:      -4.5      1.422      2.064
REMARK  5 active torsions:
REMARK  status: ('A' for Active; 'I' for Inactive)
REMARK    1  A    between atoms: C11_2  and  O1_3 
REMARK    2  A    between atoms: C11_2  and  C13_14 
REMARK    3  A    between atoms: O1_3  and  C2_4 
REMARK    4  A    between atoms: C7_5  and  C1_6 
REMARK    5  A    between atoms: C3_10  and  C8_11 
ROOT
ATOM      1  C2  M3S d          35.875  40.829  -2.427  0.00  0.00     0.102 A 
ATOM      2  C7  M3S d          36.132  40.343  -1.132  0.00  0.00    -0.027 A 
ATOM      3  C6  M3S d          36.435  38.990  -0.963  0.00  0.00    -0.074 A 
ATOM      4  C5  M3S d          36.489  38.134  -2.068  0.00  0.00    -0.081 A 
ATOM      5  C4  M3S d          36.233  38.622  -3.363  0.00  0.00    -0.064 A 
ATOM      6  C3  M3S d          35.926  39.976  -3.524  0.00  0.00     0.075 A 
ATOM      7  H4  M3S d          36.630  38.602   0.029  0.00  0.00     0.084 H 
ATOM      8  H5  M3S d          36.730  37.087  -1.927  0.00  0.00     0.083 H 
ATOM      9  H6  M3S d          36.274  37.959  -4.219  0.00  0.00     0.085 H 
ENDROOT
BRANCH   1  10
ATOM     10  O1  M3S d          35.579  42.172  -2.523  0.00  0.00    -0.278 OA
BRANCH  10  11
ATOM     11  C11 M3S d          36.586  43.060  -2.417  0.00  0.00     0.260 C 
ATOM     12  O12 M3S d          37.557  42.884  -3.147  0.00  0.00    -0.265 OA
BRANCH  11  13
ATOM     13  C13 M3S d          36.386  44.201  -1.466  0.00  0.00     0.004 C 
ATOM     14  H7  M3S d          37.034  45.040  -1.758  0.00  0.00     0.041 H 
ATOM     15  H8  M3S d          36.642  43.878  -0.446  0.00  0.00     0.041 H 
ATOM     16  H9  M3S d          35.334  44.523  -1.495  0.00  0.00     0.041 H 
ENDBRANCH  11  13
ENDBRANCH  10  11
ENDBRANCH   1  10
BRANCH   2  17
ATOM     17  C1  M3S d          36.068  41.312   0.049  0.00  0.00    -0.049 C 
ATOM     18  H1  M3S d          36.826  42.099  -0.081  0.00  0.00     0.033 H 
ATOM     19  H2  M3S d          36.265  40.765   0.983  0.00  0.00     0.033 H 
ATOM     20  H3  M3S d          35.068  41.769   0.096  0.00  0.00     0.033 H 
ENDBRANCH   2  17
BRANCH   6  21
ATOM     21  C8  M3S d          35.647  40.490  -4.994  0.00  0.00     0.212 C 
ATOM     22  O10 M3S d          36.163  41.656  -5.294  0.00  0.00    -0.644 OA
ATOM     23  O9  M3S d          34.980  39.661  -5.728  0.00  0.00    -0.644 OA
ENDBRANCH   6  21
TORSDOF 5
ENDMDL
MODEL 6
REMARK VINA RESULT:      -4.5      1.350      3.428
REMARK  5 active torsions:
REMARK  status: ('A' for Active; 'I' for Inactive)
REMARK    1  A    between atoms: C11_2  and  O1_3 
REMARK    2  A    between atoms: C11_2  and  C13_14 
REMARK    3  A    between atoms: O1_3  and  C2_4 
REMARK    4  A    between atoms: C7_5  and  C1_6 
REMARK    5  A    between atoms: C3_10  and  C8_11 
ROOT
ATOM      1  C2  M3S d          35.848  40.545  -2.724  0.00  0.00     0.102 A 
ATOM      2  C7  M3S d          36.007  40.361  -1.338  0.00  0.00    -0.027 A 
ATOM      3  C6  M3S d          36.360  41.456  -0.546  0.00  0.00    -0.074 A 
ATOM      4  C5  M3S d          36.545  42.717  -1.123  0.00  0.00    -0.081 A 
ATOM      5  C4  M3S d          36.384  42.899  -2.509  0.00  0.00    -0.064 A 
ATOM      6  C3  M3S d          36.035  41.798  -3.297  0.00  0.00     0.075 A 
ATOM      7  H4  M3S d          36.491  41.328   0.522  0.00  0.00     0.084 H 
ATOM      8  H5  M3S d          36.814  43.561  -0.498  0.00  0.00     0.083 H 
ATOM      9  H6  M3S d          36.527  43.875  -2.957  0.00  0.00     0.085 H 
ENDROOT
BRANCH   1  10
ATOM     10  O1  M3S d          35.502  39.423  -3.448  0.00  0.00    -0.278 OA
BRANCH  10  11
ATOM     11  C11 M3S d          36.419  38.887  -4.275  0.00  0.00     0.260 C 
ATOM     12  O12 M3S d          37.556  38.758  -3.830  0.00  0.00    -0.265 OA
BRANCH  11  13
ATOM     13  C13 M3S d          35.939  38.446  -5.625  0.00  0.00     0.004 C 
ATOM     14  H7  M3S d          35.647  39.327  -6.216  0.00  0.00     0.041 H 
ATOM     15  H8  M3S d          35.073  37.780  -5.507  0.00  0.00     0.041 H 
ATOM     16  H9  M3S d          36.747  37.909  -6.144  0.00  0.00     0.041 H 
ENDBRANCH  11  13
ENDBRANCH  10  11
ENDBRANCH   1  10
BRANCH   2  17
ATOM     17  C1  M3S d          35.791  38.969  -0.745  0.00  0.00    -0.049 C 
ATOM     18  H1  M3S d          36.763  38.467  -0.624  0.00  0.00     0.033 H 
ATOM     19  H2  M3S d          35.154  38.378  -1.420  0.00  0.00     0.033 H 
ATOM     20  H3  M3S d          35.300  39.060   0.235  0.00  0.00     0.033 H 
ENDBRANCH   2  17
BRANCH   6  21
ATOM     21  C8  M3S d          35.859  42.040  -4.850  0.00  0.00     0.212 C 
ATOM     22  O10 M3S d          34.623  42.148  -5.270  0.00  0.00    -0.644 OA
ATOM     23  O9  M3S d          36.972  42.149  -5.499  0.00  0.00    -0.644 OA
ENDBRANCH   6  21
TORSDOF 5
ENDMDL
MODEL 7
REMARK VINA RESULT:      -4.3      1.369      3.231
REMARK  5 active torsions:
REMARK  status: ('A' for Active; 'I' for Inactive)
REMARK    1  A    between atoms: C11_2  and  O1_3 
REMARK    2  A    between atoms: C11_2  and  C13_14 
REMARK    3  A    between atoms: O1_3  and  C2_4 
REMARK    4  A    between atoms: C7_5  and  C1_6 
REMARK    5  A    between atoms: C3_10  and  C8_11 
ROOT
ATOM      1  C2  M3S d          35.980  39.852  -3.153  0.00  0.00     0.102 A 
ATOM      2  C7  M3S d          36.345  38.670  -3.824  0.00  0.00    -0.027 A 
ATOM      3  C6  M3S d          36.954  37.641  -3.102  0.00  0.00    -0.074 A 
ATOM      4  C5  M3S d          37.190  37.784  -1.730  0.00  0.00    -0.081 A 
ATOM      5  C4  M3S d          36.823  38.965  -1.061  0.00  0.00    -0.064 A 
ATOM      6  C3  M3S d          36.218  39.993  -1.791  0.00  0.00     0.075 A 
ATOM      7  H4  M3S d          37.245  36.728  -3.607  0.00  0.00     0.084 H 
ATOM      8  H5  M3S d          37.659  36.978  -1.178  0.00  0.00     0.083 H 
ATOM      9  H6  M3S d          37.006  39.077   0.002  0.00  0.00     0.085 H 
ENDROOT
BRANCH   1  10
ATOM     10  O1  M3S d          35.386  40.828  -3.925  0.00  0.00    -0.278 OA
BRANCH  10  11
ATOM     11  C11 M3S d          36.178  41.650  -4.640  0.00  0.00     0.260 C 
ATOM     12  O12 M3S d          35.740  42.040  -5.719  0.00  0.00    -0.265 OA
BRANCH  11  13
ATOM     13  C13 M3S d          37.480  42.050  -4.015  0.00  0.00     0.004 C 
ATOM     14  H7  M3S d          37.448  41.842  -2.935  0.00  0.00     0.041 H 
ATOM     15  H8  M3S d          37.649  43.124  -4.176  0.00  0.00     0.041 H 
ATOM     16  H9  M3S d          38.299  41.477  -4.474  0.00  0.00     0.041 H 
ENDBRANCH  11  13
ENDBRANCH  10  11
ENDBRANCH   1  10
BRANCH   2  17
ATOM     17  C1  M3S d          36.065  38.552  -5.322  0.00  0.00    -0.049 C 
ATOM     18  H1  M3S d          35.956  37.491  -5.593  0.00  0.00     0.033 H 
ATOM     19  H2  M3S d          36.901  38.990  -5.888  0.00  0.00     0.033 H 
ATOM     20  H3  M3S d          35.136  39.089  -5.566  0.00  0.00     0.033 H 
ENDBRANCH   2  17
BRANCH   6  21
ATOM     21  C8  M3S d          35.816  41.306  -1.005  0.00  0.00     0.212 C 
ATOM     22  O10 M3S d          36.806  41.955  -0.443  0.00  0.00    -0.644 OA
ATOM     23  O9  M3S d          34.557  41.595  -1.064  0.00  0.00    -0.644 OA
ENDBRANCH   6  21
TORSDOF 5
ENDMDL
MODEL 8
REMARK VINA RESULT:      -4.1      1.197      1.469
REMARK  5 active torsions:
REMARK  status: ('A' for Active; 'I' for Inactive)
REMARK    1  A    between atoms: C11_2  and  O1_3 
REMARK    2  A    between atoms: C11_2  and  C13_14 
REMARK    3  A    between atoms: O1_3  and  C2_4 
REMARK    4  A    between atoms: C7_5  and  C1_6 
REMARK    5  A    between atoms: C3_10  and  C8_11 
ROOT
ATOM      1  C2  M3S d          36.487  40.678  -3.311  0.00  0.00     0.102 A 
ATOM      2  C7  M3S d          36.455  41.538  -2.198  0.00  0.00    -0.027 A 
ATOM      3  C6  M3S d          36.248  40.995  -0.928  0.00  0.00    -0.074 A 
ATOM      4  C5  M3S d          36.082  39.615  -0.767  0.00  0.00    -0.081 A 
ATOM      5  C4  M3S d          36.115  38.756  -1.881  0.00  0.00    -0.064 A 
ATOM      6  C3  M3S d          36.319  39.307  -3.150  0.00  0.00     0.075 A 
ATOM      7  H4  M3S d          36.216  41.646  -0.063  0.00  0.00     0.084 H 
ATOM      8  H5  M3S d          35.926  39.203   0.224  0.00  0.00     0.083 H 
ATOM      9  H6  M3S d          35.986  37.687  -1.757  0.00  0.00     0.085 H 
ENDROOT
BRANCH   1  10
ATOM     10  O1  M3S d          36.692  41.278  -4.536  0.00  0.00    -0.278 OA
BRANCH  10  11
ATOM     11  C11 M3S d          35.619  41.565  -5.297  0.00  0.00     0.260 C 
ATOM     12  O12 M3S d          35.091  42.659  -5.119  0.00  0.00    -0.265 OA
BRANCH  11  13
ATOM     13  C13 M3S d          35.222  40.544  -6.321  0.00  0.00     0.004 C 
ATOM     14  H7  M3S d          34.688  41.040  -7.145  0.00  0.00     0.041 H 
ATOM     15  H8  M3S d          34.565  39.795  -5.857  0.00  0.00     0.041 H 
ATOM     16  H9  M3S d          36.123  40.049  -6.713  0.00  0.00     0.041 H 
ENDBRANCH  11  13
ENDBRANCH  10  11
ENDBRANCH   1  10
BRANCH   2  17
ATOM     17  C1  M3S d          36.646  43.039  -2.416  0.00  0.00    -0.049 C 
ATOM     18  H1  M3S d          36.454  43.573  -1.473  0.00  0.00     0.033 H 
ATOM     19  H2  M3S d          35.942  43.390  -3.186  0.00  0.00     0.033 H 
ATOM     20  H3  M3S d          37.677  43.233  -2.746  0.00  0.00     0.033 H 
ENDBRANCH   2  17
BRANCH   6  21
ATOM     21  C8  M3S d          36.353  38.312  -4.379  0.00  0.00     0.212 C 
ATOM     22  O10 M3S d          37.541  38.059  -4.869  0.00  0.00    -0.644 OA
ATOM     23  O9  M3S d          35.197  37.837  -4.710  0.00  0.00    -0.644 OA
ENDBRANCH   6  21
TORSDOF 5
ENDMDL
MODEL 9
REMARK VINA RESULT:      -3.8      1.807      3.922
REMARK  5 active torsions:
REMARK  status: ('A' for Active; 'I' for Inactive)
REMARK    1  A    between atoms: C11_2  and  O1_3 
REMARK    2  A    between atoms: C11_2  and  C13_14 
REMARK    3  A    between atoms: O1_3  and  C2_4 
REMARK    4  A    between atoms: C7_5  and  C1_6 
REMARK    5  A    between atoms: C3_10  and  C8_11 
ROOT
ATOM      1  C2  M3S d          35.817  39.728  -4.098  0.00  0.00     0.102 A 
ATOM      2  C7  M3S d          35.746  40.830  -4.969  0.00  0.00    -0.027 A 
ATOM      3  C6  M3S d          36.448  41.994  -4.647  0.00  0.00    -0.074 A 
ATOM      4  C5  M3S d          37.217  42.057  -3.480  0.00  0.00    -0.081 A 
ATOM      5  C4  M3S d          37.288  40.953  -2.611  0.00  0.00    -0.064 A 
ATOM      6  C3  M3S d          36.578  39.792  -2.936  0.00  0.00     0.075 A 
ATOM      7  H4  M3S d          36.399  42.853  -5.306  0.00  0.00     0.084 H 
ATOM      8  H5  M3S d          37.761  42.963  -3.242  0.00  0.00     0.083 H 
ATOM      9  H6  M3S d          37.882  41.001  -1.706  0.00  0.00     0.085 H 
ENDROOT
BRANCH   1  10
ATOM     10  O1  M3S d          35.098  38.612  -4.472  0.00  0.00    -0.278 OA
BRANCH  10  11
ATOM     11  C11 M3S d          35.603  37.817  -5.435  0.00  0.00     0.260 C 
ATOM     12  O12 M3S d          36.824  37.696  -5.468  0.00  0.00    -0.265 OA
BRANCH  11  13
ATOM     13  C13 M3S d          34.617  37.117  -6.321  0.00  0.00     0.004 C 
ATOM     14  H7  M3S d          34.079  36.354  -5.740  0.00  0.00     0.041 H 
ATOM     15  H8  M3S d          35.150  36.635  -7.153  0.00  0.00     0.041 H 
ATOM     16  H9  M3S d          33.899  37.848  -6.721  0.00  0.00     0.041 H 
ENDBRANCH  11  13
ENDBRANCH  10  11
ENDBRANCH   1  10
BRANCH   2  17
ATOM     17  C1  M3S d          34.900  40.719  -6.237  0.00  0.00    -0.049 C 
ATOM     18  H1  M3S d          35.375  40.013  -6.935  0.00  0.00     0.033 H 
ATOM     19  H2  M3S d          34.822  41.708  -6.714  0.00  0.00     0.033 H 
ATOM     20  H3  M3S d          33.894  40.358  -5.977  0.00  0.00     0.033 H 
ENDBRANCH   2  17
BRANCH   6  21
ATOM     21  C8  M3S d          36.683  38.570  -1.938  0.00  0.00     0.212 C 
ATOM     22  O10 M3S d          37.428  37.571  -2.343  0.00  0.00    -0.644 OA
ATOM     23  O9  M3S d          36.053  38.741  -0.822  0.00  0.00    -0.644 OA
ENDBRANCH   6  21
TORSDOF 5
ENDMDL
MODEL 10
REMARK VINA RESULT:      -2.8      2.028      3.556
REMARK  5 active torsions:
REMARK  status: ('A' for Active; 'I' for Inactive)
REMARK    1  A    between atoms: C11_2  and  O1_3 
REMARK    2  A    between atoms: C11_2  and  C13_14 
REMARK    3  A    between atoms: O1_3  and  C2_4 
REMARK    4  A    between atoms: C7_5  and  C1_6 
REMARK    5  A    between atoms: C3_10  and  C8_11 
ROOT
ATOM      1  C2  M3S d          36.059  40.808  -2.767  0.00  0.00     0.102 A 
ATOM      2  C7  M3S d          36.146  42.107  -3.301  0.00  0.00    -0.027 A 
ATOM      3  C6  M3S d          36.689  43.128  -2.517  0.00  0.00    -0.074 A 
ATOM      4  C5  M3S d          37.145  42.858  -1.222  0.00  0.00    -0.081 A 
ATOM      5  C4  M3S d          37.058  41.559  -0.690  0.00  0.00    -0.064 A 
ATOM      6  C3  M3S d          36.510  40.542  -1.479  0.00  0.00     0.075 A 
ATOM      7  H4  M3S d          36.757  44.133  -2.914  0.00  0.00     0.084 H 
ATOM      8  H5  M3S d          37.568  43.656  -0.623  0.00  0.00     0.083 H 
ATOM      9  H6  M3S d          37.411  41.349   0.313  0.00  0.00     0.085 H 
ENDROOT
BRANCH   1  10
ATOM     10  O1  M3S d          35.511  39.849  -3.592  0.00  0.00    -0.278 OA
BRANCH  10  11
ATOM     11  C11 M3S d          36.309  39.248  -4.495  0.00  0.00     0.260 C 
ATOM     12  O12 M3S d          37.508  39.210  -4.235  0.00  0.00    -0.265 OA
BRANCH  11  13
ATOM     13  C13 M3S d          35.640  38.634  -5.688  0.00  0.00     0.004 C 
ATOM     14  H7  M3S d          36.277  38.769  -6.575  0.00  0.00     0.041 H 
ATOM     15  H8  M3S d          34.669  39.122  -5.856  0.00  0.00     0.041 H 
ATOM     16  H9  M3S d          35.485  37.560  -5.509  0.00  0.00     0.041 H 
ENDBRANCH  11  13
ENDBRANCH  10  11
ENDBRANCH   1  10
BRANCH   2  17
ATOM     17  C1  M3S d          35.641  42.359  -4.722  0.00  0.00    -0.049 C 
ATOM     18  H1  M3S d          34.575  42.095  -4.785  0.00  0.00     0.033 H 
ATOM     19  H2  M3S d          36.215  41.741  -5.430  0.00  0.00     0.033 H 
ATOM     20  H3  M3S d          35.772  43.422  -4.975  0.00  0.00     0.033 H 
ENDBRANCH   2  17
BRANCH   6  21
ATOM     21  C8  M3S d          36.431  39.094  -0.850  0.00  0.00     0.212 C 
ATOM     22  O10 M3S d          37.455  38.314  -1.093  0.00  0.00    -0.644 OA
ATOM     23  O9  M3S d          35.377  38.885  -0.130  0.00  0.00    -0.644 OA
ENDBRANCH   6  21
TORSDOF 5
ENDMDL
