MODEL 1
REMARK VINA RESULT:     -10.5      0.000      0.000
REMARK  13 active torsions:
REMARK  status: ('A' for Active; 'I' for Inactive)
REMARK    1  A    between atoms: C_1  and  CA_4 
REMARK       I    between atoms: NAV_21  and  C_1 
REMARK    2  A    between atoms: CAH_9  and  CAL_13 
REMARK    3  A    between atoms: CAL_13  and  CAT_20 
REMARK    4  A    between atoms: CAL_13  and  CBZ_50 
REMARK    5  A    between atoms: CAL_13  and  CCA_51 
REMARK    6  A    between atoms: CAR_18  and  CAS_19 
REMARK    7  A    between atoms: CAZ_24  and  CAR_18 
REMARK    8  A    between atoms: CAX_22  and  NAV_21 
REMARK    9  A    between atoms: CAX_22  and  CAY_23 
REMARK       I    between atoms: CAY_23  and  NBK_35 
REMARK   10  A    between atoms: NBK_35  and  SBM_37 
REMARK   11  A    between atoms: SBM_37  and  CBN_38 
REMARK   12  A    between atoms: CBV_46  and  CBX_48 
REMARK   13  A    between atoms: CBV_46  and  CBY_49 
ROOT
ATOM      1  N   SU3 d         -14.874  -9.721  13.316  0.00  0.00    -0.334 N 
ATOM      2  CA  SU3 d         -13.430  -9.765  13.664  0.00  0.00     0.094 C 
ATOM      3  CB  SU3 d         -12.787 -10.504  12.525  0.00  0.00    -0.011 C 
ATOM      4  CG  SU3 d         -13.871 -11.501  12.140  0.00  0.00     0.067 C 
ATOM      5  CAF SU3 d         -15.787  -9.022  13.972  0.00  0.00     0.244 C 
ATOM      6  OAG SU3 d         -15.414  -8.337  14.935  0.00  0.00    -0.271 OA
ATOM      7  CAH SU3 d         -17.245  -8.980  13.510  0.00  0.00     0.098 C 
ATOM      8  NAI SU3 d         -18.099  -9.324  14.658  0.00  0.00    -0.323 N 
ATOM      9  CAJ SU3 d         -18.602 -10.533  14.799  0.00  0.00     0.361 C 
ATOM     10  OAK SU3 d         -19.326 -10.701  15.931  0.00  0.00    -0.303 OA
ATOM     11  OAM SU3 d         -18.508 -11.424  13.957  0.00  0.00    -0.238 OA
ATOM     12  CAO SU3 d         -13.260 -13.595  13.114  0.00  0.00     0.371 C 
ATOM     13  OAP SU3 d         -12.385 -13.722  12.244  0.00  0.00    -0.238 OA
ATOM     14  NAQ SU3 d         -13.376 -14.481  14.068  0.00  0.00    -0.278 N 
ATOM     15  CBB SU3 d         -12.537 -15.663  14.312  0.00  0.00     0.000 A 
ATOM     16  CBC SU3 d         -13.067 -16.270  15.589  0.00  0.00    -0.008 A 
ATOM     17  CBD SU3 d         -14.171 -15.554  16.044  0.00  0.00    -0.002 A 
ATOM     18  CBE SU3 d         -14.426 -14.376  15.103  0.00  0.00     0.001 A 
ATOM     19  CBF SU3 d         -12.638 -17.387  16.288  0.00  0.00    -0.071 A 
ATOM     20  CBG SU3 d         -13.290 -17.781  17.440  0.00  0.00    -0.082 A 
ATOM     21  CBH SU3 d         -14.384 -17.065  17.891  0.00  0.00    -0.076 A 
ATOM     22  CBI SU3 d         -14.836 -15.937  17.214  0.00  0.00    -0.046 A 
ATOM     23  CBJ SU3 d         -16.090 -15.327  17.847  0.00  0.00    -0.040 C 
ATOM     24  CBS SU3 d         -16.051 -13.901  18.293  0.00  0.00    -0.061 C 
ATOM     25  CBT SU3 d         -17.514 -13.519  18.567  0.00  0.00    -0.064 C 
ATOM     26  CBU SU3 d         -18.201 -13.115  17.261  0.00  0.00    -0.057 C 
ATOM     27  CBV SU3 d         -19.619 -12.589  17.451  0.00  0.00    -0.025 C 
ATOM     28  CBW SU3 d         -19.982 -11.961  16.125  0.00  0.00     0.037 C 
ATOM     29  CD1 SU3 d         -15.134 -10.634  12.186  0.00  0.00     0.023 C 
ATOM     30  OD2 SU3 d         -14.100 -12.537  13.129  0.00  0.00    -0.296 OA
ATOM     31  H1  SU3 d         -13.249 -10.281  14.618  0.00  0.00     0.088 H 
ATOM     32  H2  SU3 d         -11.869 -11.017  12.849  0.00  0.00     0.040 H 
ATOM     33  H3  SU3 d         -12.553  -9.826  11.690  0.00  0.00     0.040 H 
ATOM     34  H4  SU3 d         -13.679 -11.940  11.150  0.00  0.00     0.086 H 
ATOM     35  H5  SU3 d         -17.386  -9.739  12.727  0.00  0.00     0.088 H 
ATOM     36  H6  SU3 d         -18.301  -8.625  15.345  0.00  0.00     0.165 HD
ATOM     37  H19 SU3 d         -11.710 -16.023  13.701  0.00  0.00     0.113 H 
ATOM     38  H20 SU3 d         -15.210 -13.623  15.179  0.00  0.00     0.113 H 
ATOM     39  H21 SU3 d         -11.787 -17.955  15.930  0.00  0.00     0.084 H 
ATOM     40  H22 SU3 d         -12.945 -18.649  17.990  0.00  0.00     0.083 H 
ATOM     41  H23 SU3 d         -14.897 -17.388  18.789  0.00  0.00     0.084 H 
ATOM     42  H24 SU3 d         -16.335 -15.936  18.730  0.00  0.00     0.040 H 
ATOM     43  H25 SU3 d         -16.899 -15.413  17.107  0.00  0.00     0.040 H 
ATOM     44  H32 SU3 d         -15.628 -13.262  17.503  0.00  0.00     0.033 H 
ATOM     45  H33 SU3 d         -15.449 -13.799  19.208  0.00  0.00     0.033 H 
ATOM     46  H34 SU3 d         -17.545 -12.674  19.271  0.00  0.00     0.033 H 
ATOM     47  H35 SU3 d         -18.040 -14.380  19.005  0.00  0.00     0.033 H 
ATOM     48  H36 SU3 d         -18.244 -13.996  16.603  0.00  0.00     0.034 H 
ATOM     49  H37 SU3 d         -17.601 -12.328  16.781  0.00  0.00     0.034 H 
ATOM     50  H38 SU3 d         -19.685 -12.644  15.316  0.00  0.00     0.076 H 
ATOM     51  H39 SU3 d         -21.070 -11.804  16.093  0.00  0.00     0.076 H 
ATOM     52  H52 SU3 d         -15.262 -10.074  11.247  0.00  0.00     0.068 H 
ATOM     53  H53 SU3 d         -16.027 -11.248  12.371  0.00  0.00     0.068 H 
ENDROOT
BRANCH   2  54
ATOM     54  C   SU3 d         -12.964  -8.313  13.740  0.00  0.00     0.241 C 
ATOM     55  O   SU3 d         -12.945  -7.585  12.746  0.00  0.00    -0.271 OA
ATOM     56  NAV SU3 d         -12.535  -7.931  14.943  0.00  0.00    -0.341 N 
ATOM     57  H15 SU3 d         -12.394  -8.633  15.641  0.00  0.00     0.163 HD
BRANCH  56  58
ATOM     58  CAX SU3 d         -12.262  -6.549  15.289  0.00  0.00     0.119 A 
ATOM     59  CAZ SU3 d         -13.565  -5.716  15.403  0.00  0.00    -0.018 A 
ATOM     60  CBA SU3 d         -12.758  -6.075  16.649  0.00  0.00    -0.027 A 
ATOM     61  H16 SU3 d         -14.542  -6.177  15.196  0.00  0.00     0.044 H 
ATOM     62  H17 SU3 d         -12.208  -5.291  17.189  0.00  0.00     0.038 H 
ATOM     63  H18 SU3 d         -13.159  -6.803  17.370  0.00  0.00     0.038 H 
BRANCH  58  64
ATOM     64  CAY SU3 d         -10.961  -5.909  14.835  0.00  0.00     0.259 C 
ATOM     65  NBK SU3 d         -10.293  -6.568  13.915  0.00  0.00    -0.252 N 
ATOM     66  H26 SU3 d         -10.610  -7.444  13.551  0.00  0.00     0.181 HD
ATOM     67  OBL SU3 d         -10.577  -4.890  15.400  0.00  0.00    -0.270 OA
BRANCH  65  68
ATOM     68  SBM SU3 d          -8.944  -5.880  13.417  0.00  0.00     0.237 S 
ATOM     69  OBO SU3 d          -9.236  -4.742  12.499  0.00  0.00    -0.205 OA
ATOM     70  OBP SU3 d          -8.042  -5.514  14.530  0.00  0.00    -0.205 OA
BRANCH  68  71
ATOM     71  CBN SU3 d          -8.119  -7.138  12.444  0.00  0.00     0.063 A 
ATOM     72  CBQ SU3 d          -6.686  -6.784  12.079  0.00  0.00    -0.046 A 
ATOM     73  CBR SU3 d          -6.976  -7.832  13.167  0.00  0.00    -0.046 A 
ATOM     74  H28 SU3 d          -6.273  -5.802  12.356  0.00  0.00     0.035 H 
ATOM     75  H29 SU3 d          -6.271  -7.096  11.110  0.00  0.00     0.035 H 
ATOM     76  H30 SU3 d          -6.768  -8.895  12.977  0.00  0.00     0.035 H 
ATOM     77  H31 SU3 d          -6.771  -7.602  14.223  0.00  0.00     0.035 H 
ATOM     78  H27 SU3 d          -8.798  -7.666  11.758  0.00  0.00     0.066 H 
ENDBRANCH  68  71
ENDBRANCH  65  68
ENDBRANCH  58  64
BRANCH  59  79
ATOM     79  CAR SU3 d         -13.567  -4.241  14.991  0.00  0.00    -0.062 C 
ATOM     80  H7  SU3 d         -14.066  -3.651  15.773  0.00  0.00     0.033 H 
ATOM     81  H8  SU3 d         -12.527  -3.899  14.880  0.00  0.00     0.033 H 
BRANCH  79  82
ATOM     82  CAS SU3 d         -14.304  -4.033  13.661  0.00  0.00    -0.076 C 
ATOM     83  H9  SU3 d         -14.287  -2.965  13.396  0.00  0.00     0.027 H 
ATOM     84  H10 SU3 d         -15.346  -4.368  13.764  0.00  0.00     0.027 H 
ATOM     85  H11 SU3 d         -13.807  -4.616  12.871  0.00  0.00     0.027 H 
ENDBRANCH  79  82
ENDBRANCH  59  79
ENDBRANCH  56  58
ENDBRANCH   2  54
BRANCH   7  86
ATOM     86  CAL SU3 d         -17.623  -7.611  12.914  0.00  0.00    -0.022 C 
BRANCH  86  87
ATOM     87  CAT SU3 d         -17.750  -6.501  13.974  0.00  0.00    -0.067 C 
ATOM     88  H12 SU3 d         -18.019  -5.555  13.483  0.00  0.00     0.028 H 
ATOM     89  H13 SU3 d         -16.790  -6.382  14.497  0.00  0.00     0.028 H 
ATOM     90  H14 SU3 d         -18.531  -6.773  14.699  0.00  0.00     0.028 H 
ENDBRANCH  86  87
BRANCH  86  91
ATOM     91  CBZ SU3 d         -16.581  -7.215  11.879  0.00  0.00    -0.067 C 
ATOM     92  H46 SU3 d         -16.493  -8.010  11.124  0.00  0.00     0.028 H 
ATOM     93  H47 SU3 d         -15.609  -7.070  12.374  0.00  0.00     0.028 H 
ATOM     94  H48 SU3 d         -16.887  -6.278  11.390  0.00  0.00     0.028 H 
ENDBRANCH  86  91
BRANCH  86  95
ATOM     95  CCA SU3 d         -18.977  -7.740  12.210  0.00  0.00    -0.067 C 
ATOM     96  H49 SU3 d         -19.745  -8.027  12.943  0.00  0.00     0.028 H 
ATOM     97  H50 SU3 d         -18.912  -8.510  11.427  0.00  0.00     0.028 H 
ATOM     98  H51 SU3 d         -19.247  -6.777  11.754  0.00  0.00     0.028 H 
ENDBRANCH  86  95
ENDBRANCH   7  86
BRANCH  27  99
ATOM     99  CBX SU3 d         -20.620 -13.719  17.716  0.00  0.00    -0.067 C 
ATOM    100  H40 SU3 d         -20.384 -14.200  18.677  0.00  0.00     0.028 H 
ATOM    101  H41 SU3 d         -20.555 -14.463  16.908  0.00  0.00     0.028 H 
ATOM    102  H42 SU3 d         -21.638 -13.306  17.752  0.00  0.00     0.028 H 
ENDBRANCH  27  99
BRANCH  27 103
ATOM    103  CBY SU3 d         -19.670 -11.559  18.594  0.00  0.00    -0.067 C 
ATOM    104  H43 SU3 d         -18.947 -10.753  18.393  0.00  0.00     0.028 H 
ATOM    105  H44 SU3 d         -19.414 -12.052  19.543  0.00  0.00     0.028 H 
ATOM    106  H45 SU3 d         -20.683 -11.136  18.661  0.00  0.00     0.028 H 
ENDBRANCH  27 103
TORSDOF 13
ENDMDL
