MODEL 1
REMARK VINA RESULT:     -10.4      0.000      0.000
REMARK  13 active torsions:
REMARK  status: ('A' for Active; 'I' for Inactive)
REMARK    1  A    between atoms: C_1  and  CA_4 
REMARK       I    between atoms: NAV_21  and  C_1 
REMARK    2  A    between atoms: CAH_9  and  CAL_13 
REMARK    3  A    between atoms: CAL_13  and  CAT_20 
REMARK    4  A    between atoms: CAL_13  and  CBZ_50 
REMARK    5  A    between atoms: CAL_13  and  CCA_51 
REMARK    6  A    between atoms: CAR_18  and  CAS_19 
REMARK    7  A    between atoms: CAZ_24  and  CAR_18 
REMARK    8  A    between atoms: CAX_22  and  NAV_21 
REMARK    9  A    between atoms: CAX_22  and  CAY_23 
REMARK       I    between atoms: CAY_23  and  NBK_35 
REMARK   10  A    between atoms: NBK_35  and  SBM_37 
REMARK   11  A    between atoms: SBM_37  and  CBN_38 
REMARK   12  A    between atoms: CBV_46  and  CBX_48 
REMARK   13  A    between atoms: CBV_46  and  CBY_49 
ROOT
ATOM      1  N   SU3 d         -15.067  -9.791  13.459  0.00  0.00    -0.334 N 
ATOM      2  CA  SU3 d         -13.648  -9.803  13.901  0.00  0.00     0.094 C 
ATOM      3  CB  SU3 d         -12.932 -10.615  12.860  0.00  0.00    -0.011 C 
ATOM      4  CG  SU3 d         -13.988 -11.641  12.476  0.00  0.00     0.067 C 
ATOM      5  CAF SU3 d         -16.021  -9.052  14.006  0.00  0.00     0.244 C 
ATOM      6  OAG SU3 d         -15.712  -8.301  14.941  0.00  0.00    -0.271 OA
ATOM      7  CAH SU3 d         -17.446  -9.050  13.449  0.00  0.00     0.098 C 
ATOM      8  NAI SU3 d         -18.372  -9.319  14.559  0.00  0.00    -0.323 N 
ATOM      9  CAJ SU3 d         -18.882 -10.518  14.751  0.00  0.00     0.361 C 
ATOM     10  OAK SU3 d         -19.679 -10.612  15.842  0.00  0.00    -0.303 OA
ATOM     11  OAM SU3 d         -18.733 -11.464  13.979  0.00  0.00    -0.238 OA
ATOM     12  CAO SU3 d         -13.441 -13.661  13.628  0.00  0.00     0.371 C 
ATOM     13  OAP SU3 d         -12.511 -13.842  12.827  0.00  0.00    -0.238 OA
ATOM     14  NAQ SU3 d         -13.617 -14.480  14.631  0.00  0.00    -0.278 N 
ATOM     15  CBB SU3 d         -12.796 -15.638  15.009  0.00  0.00     0.000 A 
ATOM     16  CBC SU3 d         -13.406 -16.159  16.288  0.00  0.00    -0.008 A 
ATOM     17  CBD SU3 d         -14.538 -15.419  16.621  0.00  0.00    -0.002 A 
ATOM     18  CBE SU3 d         -14.733 -14.309  15.586  0.00  0.00     0.001 A 
ATOM     19  CBF SU3 d         -13.023 -17.224  17.089  0.00  0.00    -0.071 A 
ATOM     20  CBG SU3 d         -13.748 -17.541  18.220  0.00  0.00    -0.082 A 
ATOM     21  CBH SU3 d         -14.869 -16.801  18.549  0.00  0.00    -0.076 A 
ATOM     22  CBI SU3 d         -15.277 -15.725  17.769  0.00  0.00    -0.046 A 
ATOM     23  CBJ SU3 d         -16.570 -15.079  18.276  0.00  0.00    -0.040 C 
ATOM     24  CBS SU3 d         -16.561 -13.625  18.625  0.00  0.00    -0.061 C 
ATOM     25  CBT SU3 d         -18.039 -13.233  18.777  0.00  0.00    -0.064 C 
ATOM     26  CBU SU3 d         -18.640 -12.923  17.404  0.00  0.00    -0.057 C 
ATOM     27  CBV SU3 d         -20.068 -12.393  17.467  0.00  0.00    -0.025 C 
ATOM     28  CBW SU3 d         -20.344 -11.859  16.080  0.00  0.00     0.037 C 
ATOM     29  CD1 SU3 d         -15.252 -10.780  12.380  0.00  0.00     0.023 C 
ATOM     30  OD2 SU3 d         -14.280 -12.609  13.517  0.00  0.00    -0.296 OA
ATOM     31  H1  SU3 d         -13.530 -10.251  14.898  0.00  0.00     0.088 H 
ATOM     32  H2  SU3 d         -12.037 -11.100  13.277  0.00  0.00     0.040 H 
ATOM     33  H3  SU3 d         -12.645  -9.995  11.998  0.00  0.00     0.040 H 
ATOM     34  H4  SU3 d         -13.732 -12.147  11.532  0.00  0.00     0.086 H 
ATOM     35  H5  SU3 d         -17.535  -9.862  12.712  0.00  0.00     0.088 H 
ATOM     36  H6  SU3 d         -18.618  -8.576  15.182  0.00  0.00     0.165 HD
ATOM     37  H19 SU3 d         -11.931 -16.035  14.480  0.00  0.00     0.113 H 
ATOM     38  H20 SU3 d         -15.520 -13.557  15.560  0.00  0.00     0.113 H 
ATOM     39  H21 SU3 d         -12.150 -17.810  16.826  0.00  0.00     0.084 H 
ATOM     40  H22 SU3 d         -13.438 -18.368  18.849  0.00  0.00     0.083 H 
ATOM     41  H23 SU3 d         -15.439 -17.064  19.432  0.00  0.00     0.084 H 
ATOM     42  H24 SU3 d         -16.871 -15.627  19.182  0.00  0.00     0.040 H 
ATOM     43  H25 SU3 d         -17.329 -15.220  17.493  0.00  0.00     0.040 H 
ATOM     44  H32 SU3 d         -16.088 -13.040  17.822  0.00  0.00     0.033 H 
ATOM     45  H33 SU3 d         -16.019 -13.458  19.568  0.00  0.00     0.033 H 
ATOM     46  H34 SU3 d         -18.115 -12.342  19.418  0.00  0.00     0.033 H 
ATOM     47  H35 SU3 d         -18.591 -14.065  19.238  0.00  0.00     0.033 H 
ATOM     48  H36 SU3 d         -18.639 -13.848  16.808  0.00  0.00     0.034 H 
ATOM     49  H37 SU3 d         -18.011 -12.168  16.911  0.00  0.00     0.034 H 
ATOM     50  H38 SU3 d         -19.996 -12.594  15.340  0.00  0.00     0.076 H 
ATOM     51  H39 SU3 d         -21.428 -11.710  15.967  0.00  0.00     0.076 H 
ATOM     52  H52 SU3 d         -15.320 -10.286  11.399  0.00  0.00     0.068 H 
ATOM     53  H53 SU3 d         -16.155 -11.385  12.549  0.00  0.00     0.068 H 
ENDROOT
BRANCH   2  54
ATOM     54  C   SU3 d         -13.190  -8.347  13.908  0.00  0.00     0.241 C 
ATOM     55  O   SU3 d         -13.187  -7.663  12.882  0.00  0.00    -0.271 OA
ATOM     56  NAV SU3 d         -12.748  -7.911  15.087  0.00  0.00    -0.341 N 
ATOM     57  H15 SU3 d         -12.594  -8.580  15.814  0.00  0.00     0.163 HD
BRANCH  56  58
ATOM     58  CAX SU3 d         -12.478  -6.513  15.368  0.00  0.00     0.119 A 
ATOM     59  CAZ SU3 d         -13.775  -5.664  15.364  0.00  0.00    -0.018 A 
ATOM     60  CBA SU3 d         -13.040  -5.957  16.671  0.00  0.00    -0.027 A 
ATOM     61  H16 SU3 d         -14.745  -6.127  15.131  0.00  0.00     0.044 H 
ATOM     62  H17 SU3 d         -12.510  -5.148  17.194  0.00  0.00     0.038 H 
ATOM     63  H18 SU3 d         -13.487  -6.640  17.409  0.00  0.00     0.038 H 
BRANCH  58  64
ATOM     64  CAY SU3 d         -11.147  -5.911  14.949  0.00  0.00     0.259 C 
ATOM     65  NBK SU3 d         -10.526  -6.528  13.970  0.00  0.00    -0.252 N 
ATOM     66  H26 SU3 d         -10.895  -7.352  13.541  0.00  0.00     0.181 HD
ATOM     67  OBL SU3 d         -10.701  -4.963  15.590  0.00  0.00    -0.270 OA
BRANCH  65  68
ATOM     68  SBM SU3 d          -9.145  -5.877  13.511  0.00  0.00     0.237 S 
ATOM     69  OBO SU3 d          -9.381  -4.697  12.630  0.00  0.00    -0.205 OA
ATOM     70  OBP SU3 d          -8.243  -5.586  14.645  0.00  0.00    -0.205 OA
BRANCH  68  71
ATOM     71  CBN SU3 d          -8.359  -7.132  12.503  0.00  0.00     0.063 A 
ATOM     72  CBQ SU3 d          -7.041  -6.685  11.891  0.00  0.00    -0.046 A 
ATOM     73  CBR SU3 d          -7.054  -7.663  13.078  0.00  0.00    -0.046 A 
ATOM     74  H28 SU3 d          -6.689  -5.652  12.033  0.00  0.00     0.035 H 
ATOM     75  H29 SU3 d          -6.750  -7.036  10.890  0.00  0.00     0.035 H 
ATOM     76  H30 SU3 d          -6.774  -8.716  12.927  0.00  0.00     0.035 H 
ATOM     77  H31 SU3 d          -6.714  -7.331  14.069  0.00  0.00     0.035 H 
ATOM     78  H27 SU3 d          -9.078  -7.772  11.971  0.00  0.00     0.066 H 
ENDBRANCH  68  71
ENDBRANCH  65  68
ENDBRANCH  58  64
BRANCH  59  79
ATOM     79  CAR SU3 d         -13.738  -4.215  14.870  0.00  0.00    -0.062 C 
ATOM     80  H7  SU3 d         -13.863  -3.540  15.729  0.00  0.00     0.033 H 
ATOM     81  H8  SU3 d         -12.766  -4.024  14.391  0.00  0.00     0.033 H 
BRANCH  79  82
ATOM     82  CAS SU3 d         -14.856  -3.942  13.854  0.00  0.00    -0.076 C 
ATOM     83  H9  SU3 d         -14.850  -4.728  13.084  0.00  0.00     0.027 H 
ATOM     84  H10 SU3 d         -14.690  -2.964  13.380  0.00  0.00     0.027 H 
ATOM     85  H11 SU3 d         -15.827  -3.941  14.370  0.00  0.00     0.027 H 
ENDBRANCH  79  82
ENDBRANCH  59  79
ENDBRANCH  56  58
ENDBRANCH   2  54
BRANCH   7  86
ATOM     86  CAL SU3 d         -17.785  -7.727  12.736  0.00  0.00    -0.022 C 
BRANCH  86  87
ATOM     87  CAT SU3 d         -18.133  -6.585  13.709  0.00  0.00    -0.067 C 
ATOM     88  H12 SU3 d         -18.350  -5.671  13.139  0.00  0.00     0.028 H 
ATOM     89  H13 SU3 d         -17.282  -6.404  14.381  0.00  0.00     0.028 H 
ATOM     90  H14 SU3 d         -19.016  -6.865  14.303  0.00  0.00     0.028 H 
ENDBRANCH  86  87
BRANCH  86  91
ATOM     91  CBZ SU3 d         -16.609  -7.316  11.863  0.00  0.00    -0.067 C 
ATOM     92  H46 SU3 d         -16.231  -6.338  12.193  0.00  0.00     0.028 H 
ATOM     93  H47 SU3 d         -16.937  -7.248  10.815  0.00  0.00     0.028 H 
ATOM     94  H48 SU3 d         -15.809  -8.067  11.949  0.00  0.00     0.028 H 
ENDBRANCH  86  91
BRANCH  86  95
ATOM     95  CCA SU3 d         -19.001  -7.955  11.833  0.00  0.00    -0.067 C 
ATOM     96  H49 SU3 d         -19.076  -9.024  11.582  0.00  0.00     0.028 H 
ATOM     97  H50 SU3 d         -18.887  -7.369  10.909  0.00  0.00     0.028 H 
ATOM     98  H51 SU3 d         -19.913  -7.637  12.358  0.00  0.00     0.028 H 
ENDBRANCH  86  95
ENDBRANCH   7  86
BRANCH  27  99
ATOM     99  CBX SU3 d         -21.083 -13.507  17.743  0.00  0.00    -0.067 C 
ATOM    100  H40 SU3 d         -22.061 -13.223  17.327  0.00  0.00     0.028 H 
ATOM    101  H41 SU3 d         -21.176 -13.658  18.829  0.00  0.00     0.028 H 
ATOM    102  H42 SU3 d         -20.740 -14.440  17.271  0.00  0.00     0.028 H 
ENDBRANCH  27  99
BRANCH  27 103
ATOM    103  CBY SU3 d         -20.193 -11.287  18.530  0.00  0.00    -0.067 C 
ATOM    104  H43 SU3 d         -19.645 -11.586  19.437  0.00  0.00     0.028 H 
ATOM    105  H44 SU3 d         -21.254 -11.135  18.777  0.00  0.00     0.028 H 
ATOM    106  H45 SU3 d         -19.769 -10.351  18.137  0.00  0.00     0.028 H 
ENDBRANCH  27 103
TORSDOF 13
ENDMDL
