MODEL 1
REMARK VINA RESULT:     -11.5      0.000      0.000
REMARK  11 active torsions:
REMARK  status: ('A' for Active; 'I' for Inactive)
REMARK       I    between atoms: N1_3  and  C20_36 
REMARK    1  A    between atoms: C28_44  and  N1_3 
REMARK    2  A    between atoms: O1_4  and  C9_24 
REMARK    3  A    between atoms: C20_36  and  O1_4 
REMARK    4  A    between atoms: N3_10  and  S1_5 
REMARK    5  A    between atoms: S1_5  and  C23_39 
REMARK    6  A    between atoms: C2_6  and  C4_12 
REMARK       I    between atoms: C4_12  and  N3_10 
REMARK       I    between atoms: C35_51  and  N4_13 
REMARK    7  A    between atoms: C9_24  and  C6_18 
REMARK    8  A    between atoms: C9_24  and  C7_20 
REMARK    9  A    between atoms: C9_24  and  C8_22 
REMARK   10  A    between atoms: C30_46  and  O8_23 
REMARK   11  A    between atoms: O8_23  and  C35_51 
ROOT
ATOM      1  C1  TSV d         -12.664  -6.232  17.127  0.00  0.00    -0.023 A 
ATOM      2  C2  TSV d         -12.245  -6.600  15.705  0.00  0.00     0.122 A 
ATOM      3  N2  TSV d         -12.544  -7.950  15.295  0.00  0.00    -0.341 N 
ATOM      4  C3  TSV d         -13.519  -5.768  15.964  0.00  0.00    -0.002 A 
ATOM      5  O3  TSV d         -15.665  -8.228  15.029  0.00  0.00    -0.271 OA
ATOM      6  C5  TSV d         -13.536  -4.296  15.668  0.00  0.00    -0.100 C 
ATOM      7  N5  TSV d         -14.987  -9.546  13.374  0.00  0.00    -0.334 N 
ATOM      8  O7  TSV d         -13.182  -7.330  13.223  0.00  0.00    -0.271 OA
ATOM      9  C10 TSV d         -14.419  -3.732  14.826  0.00  0.00    -0.106 C 
ATOM     10  C11 TSV d         -13.063  -8.195  14.099  0.00  0.00     0.241 C 
ATOM     11  C13 TSV d         -15.501  -4.493  14.084  0.00  0.00    -0.050 C 
ATOM     12  C15 TSV d         -13.604  -9.577  13.883  0.00  0.00     0.094 C 
ATOM     13  C18 TSV d         -15.330  -4.411  12.577  0.00  0.00    -0.062 C 
ATOM     14  C19 TSV d         -16.462  -5.137  11.827  0.00  0.00    -0.065 C 
ATOM     15  C22 TSV d         -16.414  -6.661  11.978  0.00  0.00    -0.063 C 
ATOM     16  C25 TSV d         -17.468  -7.167  12.966  0.00  0.00    -0.038 C 
ATOM     17  C27 TSV d         -12.864 -10.305  12.779  0.00  0.00    -0.011 C 
ATOM     18  C28 TSV d         -17.260  -8.629  13.333  0.00  0.00     0.091 C 
ATOM     19  C30 TSV d         -13.890 -11.222  12.179  0.00  0.00     0.067 C 
ATOM     20  C33 TSV d         -15.903  -8.796  13.980  0.00  0.00     0.243 C 
ATOM     21  C34 TSV d         -15.158 -10.412  12.187  0.00  0.00     0.023 C 
ATOM     22  H1  TSV d         -12.075  -5.501  17.699  0.00  0.00     0.038 H 
ATOM     23  H2  TSV d         -13.039  -7.012  17.806  0.00  0.00     0.038 H 
ATOM     24  H4  TSV d         -12.359  -8.709  15.918  0.00  0.00     0.163 HD
ATOM     25  H5  TSV d         -14.511  -6.205  15.779  0.00  0.00     0.050 H 
ATOM     26  H7  TSV d         -12.800  -3.657  16.155  0.00  0.00     0.077 H 
ATOM     27  H17 TSV d         -14.354  -2.657  14.666  0.00  0.00     0.076 H 
ATOM     28  H19 TSV d         -16.479  -4.069  14.353  0.00  0.00     0.038 H 
ATOM     29  H20 TSV d         -15.463  -5.549  14.388  0.00  0.00     0.038 H 
ATOM     30  H22 TSV d         -13.546 -10.137  14.828  0.00  0.00     0.088 H 
ATOM     31  H25 TSV d         -14.369  -4.872  12.303  0.00  0.00     0.033 H 
ATOM     32  H26 TSV d         -15.327  -3.353  12.277  0.00  0.00     0.033 H 
ATOM     33  H27 TSV d         -16.386  -4.890  10.758  0.00  0.00     0.033 H 
ATOM     34  H28 TSV d         -17.425  -4.779  12.219  0.00  0.00     0.033 H 
ATOM     35  H29 TSV d         -15.417  -6.952  12.341  0.00  0.00     0.033 H 
ATOM     36  H30 TSV d         -16.596  -7.122  10.996  0.00  0.00     0.033 H 
ATOM     37  H32 TSV d         -18.463  -7.055  12.510  0.00  0.00     0.036 H 
ATOM     38  H33 TSV d         -17.414  -6.560  13.882  0.00  0.00     0.036 H 
ATOM     39  H34 TSV d         -12.022 -10.880  13.189  0.00  0.00     0.040 H 
ATOM     40  H35 TSV d         -12.492  -9.595  12.026  0.00  0.00     0.040 H 
ATOM     41  H36 TSV d         -17.312  -9.247  12.424  0.00  0.00     0.087 H 
ATOM     42  H39 TSV d         -13.605 -11.555  11.170  0.00  0.00     0.086 H 
ATOM     43  H43 TSV d         -15.250  -9.812  11.270  0.00  0.00     0.068 H 
ATOM     44  H44 TSV d         -16.041 -11.059  12.291  0.00  0.00     0.068 H 
ENDROOT
BRANCH  18  45
ATOM     45  N1  TSV d         -18.285  -9.042  14.253  0.00  0.00    -0.324 N 
ATOM     46  C20 TSV d         -19.141 -10.014  13.969  0.00  0.00     0.362 C 
ATOM     47  O2  TSV d         -19.193 -10.634  12.905  0.00  0.00    -0.238 OA
ATOM     48  H3  TSV d         -18.354  -8.581  15.137  0.00  0.00     0.165 HD
BRANCH  46  49
ATOM     49  O1  TSV d         -20.043 -10.320  15.050  0.00  0.00    -0.294 OA
BRANCH  49  50
ATOM     50  C9  TSV d         -19.893 -11.424  15.947  0.00  0.00     0.061 C 
BRANCH  50  51
ATOM     51  C6  TSV d         -18.571 -12.136  15.691  0.00  0.00    -0.048 C 
ATOM     52  H8  TSV d         -18.416 -12.909  16.459  0.00  0.00     0.031 H 
ATOM     53  H9  TSV d         -17.748 -11.408  15.733  0.00  0.00     0.031 H 
ATOM     54  H10 TSV d         -18.595 -12.607  14.697  0.00  0.00     0.031 H 
ENDBRANCH  50  51
BRANCH  50  55
ATOM     55  C7  TSV d         -19.930 -10.833  17.354  0.00  0.00    -0.048 C 
ATOM     56  H11 TSV d         -19.436 -11.523  18.054  0.00  0.00     0.031 H 
ATOM     57  H12 TSV d         -20.975 -10.684  17.662  0.00  0.00     0.031 H 
ATOM     58  H13 TSV d         -19.405  -9.866  17.360  0.00  0.00     0.031 H 
ENDBRANCH  50  55
BRANCH  50  59
ATOM     59  C8  TSV d         -21.057 -12.388  15.740  0.00  0.00    -0.048 C 
ATOM     60  H14 TSV d         -21.991 -11.817  15.637  0.00  0.00     0.031 H 
ATOM     61  H15 TSV d         -21.134 -13.062  16.606  0.00  0.00     0.031 H 
ATOM     62  H16 TSV d         -20.886 -12.980  14.829  0.00  0.00     0.031 H 
ENDBRANCH  50  59
ENDBRANCH  49  50
ENDBRANCH  46  49
ENDBRANCH  18  45
BRANCH  19  63
ATOM     63  O8  TSV d         -14.114 -12.321  13.048  0.00  0.00    -0.296 OA
BRANCH  63  64
ATOM     64  C35 TSV d         -13.240 -13.441  12.874  0.00  0.00     0.371 C 
ATOM     65  N4  TSV d         -13.211 -14.241  13.891  0.00  0.00    -0.278 N 
ATOM     66  C12 TSV d         -12.517 -15.538  13.858  0.00  0.00     0.000 A 
ATOM     67  C31 TSV d         -13.890 -13.972  15.158  0.00  0.00     0.003 A 
ATOM     68  C24 TSV d         -12.855 -16.090  15.191  0.00  0.00    -0.005 A 
ATOM     69  H18 TSV d         -11.913 -15.976  13.065  0.00  0.00     0.113 H 
ATOM     70  C16 TSV d         -12.479 -17.333  15.693  0.00  0.00    -0.071 A 
ATOM     71  C26 TSV d         -13.619 -15.238  15.919  0.00  0.00     0.030 A 
ATOM     72  C14 TSV d         -12.904 -17.667  16.963  0.00  0.00    -0.079 A 
ATOM     73  H23 TSV d         -11.873 -18.015  15.108  0.00  0.00     0.084 H 
ATOM     74  C17 TSV d         -13.692 -16.791  17.713  0.00  0.00    -0.045 A 
ATOM     75  H21 TSV d         -12.622 -18.625  17.384  0.00  0.00     0.083 H 
ATOM     76  C21 TSV d         -14.051 -15.546  17.179  0.00  0.00     0.128 A 
ATOM     77  H24 TSV d         -14.024 -17.073  18.706  0.00  0.00     0.088 H 
ATOM     78  F1  TSV d         -14.800 -14.670  17.881  0.00  0.00    -0.205 F 
ATOM     79  H40 TSV d         -14.445 -13.087  15.468  0.00  0.00     0.114 H 
ATOM     80  O5  TSV d         -12.591 -13.597  11.844  0.00  0.00    -0.238 OA
ENDBRANCH  63  64
ENDBRANCH  19  63
BRANCH   2  81
ATOM     81  C4  TSV d         -10.986  -5.952  15.222  0.00  0.00     0.260 C 
ATOM     82  N3  TSV d         -10.316  -6.589  14.266  0.00  0.00    -0.252 N 
ATOM     83  H6  TSV d         -10.624  -7.478  13.928  0.00  0.00     0.181 HD
ATOM     84  O9  TSV d         -10.624  -4.897  15.687  0.00  0.00    -0.270 OA
BRANCH  82  85
ATOM     85  S1  TSV d          -9.019  -5.905  13.678  0.00  0.00     0.237 S 
ATOM     86  O4  TSV d          -8.140  -5.460  14.720  0.00  0.00    -0.205 OA
ATOM     87  O6  TSV d          -9.398  -4.840  12.769  0.00  0.00    -0.205 OA
BRANCH  85  88
ATOM     88  C23 TSV d          -8.294  -7.087  12.751  0.00  0.00     0.063 A 
ATOM     89  C29 TSV d          -6.909  -6.759  12.203  0.00  0.00    -0.046 A 
ATOM     90  C32 TSV d          -7.048  -7.770  13.320  0.00  0.00    -0.046 A 
ATOM     91  H37 TSV d          -6.457  -5.777  12.405  0.00  0.00     0.035 H 
ATOM     92  H38 TSV d          -6.625  -7.092  11.194  0.00  0.00     0.035 H 
ATOM     93  H41 TSV d          -6.866  -8.836  13.123  0.00  0.00     0.035 H 
ATOM     94  H42 TSV d          -6.698  -7.520  14.334  0.00  0.00     0.035 H 
ATOM     95  H31 TSV d          -9.036  -7.645  12.161  0.00  0.00     0.066 H 
ENDBRANCH  85  88
ENDBRANCH  82  85
ENDBRANCH   2  81
TORSDOF 11
ENDMDL
MODEL 2
REMARK VINA RESULT:     -10.2      1.431      1.835
REMARK  11 active torsions:
REMARK  status: ('A' for Active; 'I' for Inactive)
REMARK       I    between atoms: N1_3  and  C20_36 
REMARK    1  A    between atoms: C28_44  and  N1_3 
REMARK    2  A    between atoms: O1_4  and  C9_24 
REMARK    3  A    between atoms: C20_36  and  O1_4 
REMARK    4  A    between atoms: N3_10  and  S1_5 
REMARK    5  A    between atoms: S1_5  and  C23_39 
REMARK    6  A    between atoms: C2_6  and  C4_12 
REMARK       I    between atoms: C4_12  and  N3_10 
REMARK       I    between atoms: C35_51  and  N4_13 
REMARK    7  A    between atoms: C9_24  and  C6_18 
REMARK    8  A    between atoms: C9_24  and  C7_20 
REMARK    9  A    between atoms: C9_24  and  C8_22 
REMARK   10  A    between atoms: C30_46  and  O8_23 
REMARK   11  A    between atoms: O8_23  and  C35_51 
ROOT
ATOM      1  C1  TSV d         -12.660  -6.313  17.131  0.00  0.00    -0.023 A 
ATOM      2  C2  TSV d         -12.251  -6.619  15.692  0.00  0.00     0.122 A 
ATOM      3  N2  TSV d         -12.562  -7.946  15.222  0.00  0.00    -0.341 N 
ATOM      4  C3  TSV d         -13.519  -5.791  15.995  0.00  0.00    -0.002 A 
ATOM      5  O3  TSV d         -15.686  -8.191  14.961  0.00  0.00    -0.271 OA
ATOM      6  C5  TSV d         -13.526  -4.306  15.766  0.00  0.00    -0.100 C 
ATOM      7  N5  TSV d         -15.026  -9.437  13.244  0.00  0.00    -0.334 N 
ATOM      8  O7  TSV d         -13.206  -7.228  13.184  0.00  0.00    -0.271 OA
ATOM      9  C10 TSV d         -14.410  -3.699  14.955  0.00  0.00    -0.106 C 
ATOM     10  C11 TSV d         -13.088  -8.133  14.019  0.00  0.00     0.241 C 
ATOM     11  C13 TSV d         -15.500  -4.418  14.186  0.00  0.00    -0.050 C 
ATOM     12  C15 TSV d         -13.640  -9.500  13.743  0.00  0.00     0.094 C 
ATOM     13  C18 TSV d         -15.337  -4.268  12.682  0.00  0.00    -0.062 C 
ATOM     14  C19 TSV d         -16.478  -4.952  11.907  0.00  0.00    -0.065 C 
ATOM     15  C22 TSV d         -16.439  -6.482  11.988  0.00  0.00    -0.063 C 
ATOM     16  C25 TSV d         -17.492  -7.025  12.957  0.00  0.00    -0.038 C 
ATOM     17  C27 TSV d         -12.911 -10.182  12.603  0.00  0.00    -0.011 C 
ATOM     18  C28 TSV d         -17.292  -8.503  13.256  0.00  0.00     0.091 C 
ATOM     19  C30 TSV d         -13.946 -11.064  11.968  0.00  0.00     0.067 C 
ATOM     20  C33 TSV d         -15.934  -8.709  13.888  0.00  0.00     0.243 C 
ATOM     21  C34 TSV d         -15.208 -10.247  12.019  0.00  0.00     0.023 C 
ATOM     22  H1  TSV d         -12.063  -5.612  17.732  0.00  0.00     0.038 H 
ATOM     23  H2  TSV d         -13.037  -7.120  17.776  0.00  0.00     0.038 H 
ATOM     24  H4  TSV d         -12.379  -8.734  15.809  0.00  0.00     0.163 HD
ATOM     25  H5  TSV d         -14.515  -6.212  15.795  0.00  0.00     0.050 H 
ATOM     26  H7  TSV d         -12.784  -3.696  16.278  0.00  0.00     0.077 H 
ATOM     27  H17 TSV d         -14.338  -2.618  14.844  0.00  0.00     0.076 H 
ATOM     28  H19 TSV d         -16.475  -4.000  14.479  0.00  0.00     0.038 H 
ATOM     29  H20 TSV d         -15.468  -5.487  14.440  0.00  0.00     0.038 H 
ATOM     30  H22 TSV d         -13.581 -10.103  14.661  0.00  0.00     0.088 H 
ATOM     31  H25 TSV d         -14.381  -4.723  12.383  0.00  0.00     0.033 H 
ATOM     32  H26 TSV d         -15.328  -3.198  12.431  0.00  0.00     0.033 H 
ATOM     33  H27 TSV d         -16.406  -4.657  10.850  0.00  0.00     0.033 H 
ATOM     34  H28 TSV d         -17.436  -4.606  12.320  0.00  0.00     0.033 H 
ATOM     35  H29 TSV d         -15.443  -6.795  12.332  0.00  0.00     0.033 H 
ATOM     36  H30 TSV d         -16.630  -6.896  10.987  0.00  0.00     0.033 H 
ATOM     37  H32 TSV d         -18.488  -6.886  12.512  0.00  0.00     0.036 H 
ATOM     38  H33 TSV d         -17.429  -6.461  13.900  0.00  0.00     0.036 H 
ATOM     39  H34 TSV d         -12.070 -10.781  12.982  0.00  0.00     0.040 H 
ATOM     40  H35 TSV d         -12.537  -9.441  11.881  0.00  0.00     0.040 H 
ATOM     41  H36 TSV d         -17.353  -9.079  12.320  0.00  0.00     0.087 H 
ATOM     42  H39 TSV d         -13.669 -11.352  10.943  0.00  0.00     0.086 H 
ATOM     43  H43 TSV d         -15.300  -9.605  11.130  0.00  0.00     0.068 H 
ATOM     44  H44 TSV d         -16.095 -10.892  12.098  0.00  0.00     0.068 H 
ENDROOT
BRANCH  18  45
ATOM     45  N1  TSV d         -18.315  -8.951  14.162  0.00  0.00    -0.324 N 
ATOM     46  C20 TSV d         -19.204  -9.876  13.825  0.00  0.00     0.362 C 
ATOM     47  O2  TSV d         -19.290 -10.417  12.720  0.00  0.00    -0.238 OA
ATOM     48  H3  TSV d         -18.358  -8.552  15.077  0.00  0.00     0.165 HD
BRANCH  46  49
ATOM     49  O1  TSV d         -20.099 -10.232  14.896  0.00  0.00    -0.294 OA
BRANCH  49  50
ATOM     50  C9  TSV d         -19.910 -11.341  15.779  0.00  0.00     0.061 C 
BRANCH  50  51
ATOM     51  C6  TSV d         -20.014 -10.885  17.229  0.00  0.00    -0.048 C 
ATOM     52  H8  TSV d         -19.023 -10.568  17.585  0.00  0.00     0.031 H 
ATOM     53  H9  TSV d         -20.378 -11.717  17.850  0.00  0.00     0.031 H 
ATOM     54  H10 TSV d         -20.716 -10.041  17.298  0.00  0.00     0.031 H 
ENDBRANCH  50  51
BRANCH  50  55
ATOM     55  C7  TSV d         -21.012 -12.342  15.442  0.00  0.00    -0.048 C 
ATOM     56  H11 TSV d         -21.114 -12.422  14.350  0.00  0.00     0.031 H 
ATOM     57  H12 TSV d         -21.963 -11.999  15.875  0.00  0.00     0.031 H 
ATOM     58  H13 TSV d         -20.753 -13.327  15.859  0.00  0.00     0.031 H 
ENDBRANCH  50  55
BRANCH  50  59
ATOM     59  C8  TSV d         -18.536 -11.950  15.518  0.00  0.00    -0.048 C 
ATOM     60  H14 TSV d         -17.810 -11.148  15.324  0.00  0.00     0.031 H 
ATOM     61  H15 TSV d         -18.590 -12.615  14.644  0.00  0.00     0.031 H 
ATOM     62  H16 TSV d         -18.217 -12.528  16.398  0.00  0.00     0.031 H 
ENDBRANCH  50  59
ENDBRANCH  49  50
ENDBRANCH  46  49
ENDBRANCH  18  45
BRANCH  19  63
ATOM     63  O8  TSV d         -14.173 -12.199  12.786  0.00  0.00    -0.296 OA
BRANCH  63  64
ATOM     64  C35 TSV d         -15.169 -13.115  12.319  0.00  0.00     0.371 C 
ATOM     65  N4  TSV d         -15.680 -13.850  13.254  0.00  0.00    -0.278 N 
ATOM     66  C12 TSV d         -16.835 -14.732  13.027  0.00  0.00     0.000 A 
ATOM     67  C31 TSV d         -15.201 -13.858  14.637  0.00  0.00     0.003 A 
ATOM     68  C24 TSV d         -17.081 -15.260  14.389  0.00  0.00    -0.005 A 
ATOM     69  H18 TSV d         -17.369 -14.943  12.101  0.00  0.00     0.113 H 
ATOM     70  C16 TSV d         -18.095 -16.134  14.770  0.00  0.00    -0.071 A 
ATOM     71  C26 TSV d         -16.188 -14.781  15.292  0.00  0.00     0.030 A 
ATOM     72  C14 TSV d         -18.159 -16.504  16.098  0.00  0.00    -0.079 A 
ATOM     73  H23 TSV d         -18.810 -16.512  14.048  0.00  0.00     0.084 H 
ATOM     74  C17 TSV d         -17.242 -16.010  17.028  0.00  0.00    -0.045 A 
ATOM     75  H21 TSV d         -18.933 -17.188  16.424  0.00  0.00     0.083 H 
ATOM     76  C21 TSV d         -16.230 -15.133  16.612  0.00  0.00     0.128 A 
ATOM     77  H24 TSV d         -17.311 -16.304  18.070  0.00  0.00     0.088 H 
ATOM     78  F1  TSV d         -15.320 -14.647  17.481  0.00  0.00    -0.205 F 
ATOM     79  H40 TSV d         -14.353 -13.333  15.074  0.00  0.00     0.114 H 
ATOM     80  O5  TSV d         -15.485 -13.174  11.135  0.00  0.00    -0.238 OA
ENDBRANCH  63  64
ENDBRANCH  19  63
BRANCH   2  81
ATOM     81  C4  TSV d         -10.991  -5.957  15.231  0.00  0.00     0.260 C 
ATOM     82  N3  TSV d         -10.281  -6.601  14.310  0.00  0.00    -0.252 N 
ATOM     83  H6  TSV d         -10.563  -7.503  13.982  0.00  0.00     0.181 HD
ATOM     84  O9  TSV d         -10.661  -4.886  15.684  0.00  0.00    -0.270 OA
BRANCH  82  85
ATOM     85  S1  TSV d          -8.980  -5.906  13.746  0.00  0.00     0.237 S 
ATOM     86  O4  TSV d          -8.102  -5.494  14.803  0.00  0.00    -0.205 OA
ATOM     87  O6  TSV d          -9.351  -4.815  12.865  0.00  0.00    -0.205 OA
BRANCH  85  88
ATOM     88  C23 TSV d          -8.256  -7.064  12.788  0.00  0.00     0.063 A 
ATOM     89  C29 TSV d          -6.841  -6.755  12.309  0.00  0.00    -0.046 A 
ATOM     90  C32 TSV d          -7.054  -7.814  13.368  0.00  0.00    -0.046 A 
ATOM     91  H37 TSV d          -6.368  -5.799  12.576  0.00  0.00     0.035 H 
ATOM     92  H38 TSV d          -6.529  -7.048  11.295  0.00  0.00     0.035 H 
ATOM     93  H41 TSV d          -6.897  -8.875  13.124  0.00  0.00     0.035 H 
ATOM     94  H42 TSV d          -6.736  -7.625  14.405  0.00  0.00     0.035 H 
ATOM     95  H31 TSV d          -8.990  -7.568  12.143  0.00  0.00     0.066 H 
ENDBRANCH  85  88
ENDBRANCH  82  85
ENDBRANCH   2  81
TORSDOF 11
ENDMDL
MODEL 3
REMARK VINA RESULT:      -8.8      2.285      2.707
REMARK  11 active torsions:
REMARK  status: ('A' for Active; 'I' for Inactive)
REMARK       I    between atoms: N1_3  and  C20_36 
REMARK    1  A    between atoms: C28_44  and  N1_3 
REMARK    2  A    between atoms: O1_4  and  C9_24 
REMARK    3  A    between atoms: C20_36  and  O1_4 
REMARK    4  A    between atoms: N3_10  and  S1_5 
REMARK    5  A    between atoms: S1_5  and  C23_39 
REMARK    6  A    between atoms: C2_6  and  C4_12 
REMARK       I    between atoms: C4_12  and  N3_10 
REMARK       I    between atoms: C35_51  and  N4_13 
REMARK    7  A    between atoms: C9_24  and  C6_18 
REMARK    8  A    between atoms: C9_24  and  C7_20 
REMARK    9  A    between atoms: C9_24  and  C8_22 
REMARK   10  A    between atoms: C30_46  and  O8_23 
REMARK   11  A    between atoms: O8_23  and  C35_51 
ROOT
ATOM      1  C1  TSV d         -12.731  -6.184  16.898  0.00  0.00    -0.023 A 
ATOM      2  C2  TSV d         -12.357  -6.652  15.493  0.00  0.00     0.122 A 
ATOM      3  N2  TSV d         -12.700  -8.016  15.177  0.00  0.00    -0.341 N 
ATOM      4  C3  TSV d         -13.604  -5.772  15.729  0.00  0.00    -0.002 A 
ATOM      5  O3  TSV d         -15.833  -8.227  15.004  0.00  0.00    -0.271 OA
ATOM      6  C5  TSV d         -13.591  -4.321  15.339  0.00  0.00    -0.100 C 
ATOM      7  N5  TSV d         -15.231  -9.666  13.421  0.00  0.00    -0.334 N 
ATOM      8  O7  TSV d         -13.376  -7.512  13.086  0.00  0.00    -0.271 OA
ATOM      9  C10 TSV d         -14.482  -3.789  14.484  0.00  0.00    -0.106 C 
ATOM     10  C11 TSV d         -13.255  -8.323  14.012  0.00  0.00     0.241 C 
ATOM     11  C13 TSV d         -15.600  -4.565  13.818  0.00  0.00    -0.050 C 
ATOM     12  C15 TSV d         -13.836  -9.700  13.897  0.00  0.00     0.094 C 
ATOM     13  C18 TSV d         -15.465  -4.584  12.305  0.00  0.00    -0.062 C 
ATOM     14  C19 TSV d         -16.634  -5.326  11.631  0.00  0.00    -0.065 C 
ATOM     15  C22 TSV d         -16.620  -6.837  11.877  0.00  0.00    -0.063 C 
ATOM     16  C25 TSV d         -17.661  -7.252  12.920  0.00  0.00    -0.038 C 
ATOM     17  C27 TSV d         -13.143 -10.516  12.825  0.00  0.00    -0.011 C 
ATOM     18  C28 TSV d         -17.480  -8.693  13.374  0.00  0.00     0.091 C 
ATOM     19  C30 TSV d         -14.206 -11.442  12.309  0.00  0.00     0.067 C 
ATOM     20  C33 TSV d         -16.112  -8.855  13.999  0.00  0.00     0.243 C 
ATOM     21  C34 TSV d         -15.452 -10.600  12.295  0.00  0.00     0.023 C 
ATOM     22  H1  TSV d         -12.110  -5.433  17.408  0.00  0.00     0.038 H 
ATOM     23  H2  TSV d         -13.108  -6.909  17.634  0.00  0.00     0.038 H 
ATOM     24  H4  TSV d         -12.519  -8.739  15.843  0.00  0.00     0.163 HD
ATOM     25  H5  TSV d         -14.611  -6.193  15.595  0.00  0.00     0.050 H 
ATOM     26  H7  TSV d         -12.828  -3.673  15.768  0.00  0.00     0.077 H 
ATOM     27  H17 TSV d         -14.393  -2.728  14.254  0.00  0.00     0.076 H 
ATOM     28  H19 TSV d         -16.560  -4.100  14.083  0.00  0.00     0.038 H 
ATOM     29  H20 TSV d         -15.581  -5.601  14.188  0.00  0.00     0.038 H 
ATOM     30  H22 TSV d         -13.768 -10.201  14.875  0.00  0.00     0.088 H 
ATOM     31  H25 TSV d         -14.524  -5.086  12.039  0.00  0.00     0.033 H 
ATOM     32  H26 TSV d         -15.444  -3.547  11.939  0.00  0.00     0.033 H 
ATOM     33  H27 TSV d         -16.579  -5.149  10.546  0.00  0.00     0.033 H 
ATOM     34  H28 TSV d         -17.577  -4.918  12.022  0.00  0.00     0.033 H 
ATOM     35  H29 TSV d         -15.622  -7.131  12.234  0.00  0.00     0.033 H 
ATOM     36  H30 TSV d         -16.838  -7.354  10.931  0.00  0.00     0.033 H 
ATOM     37  H32 TSV d         -18.664  -7.143  12.481  0.00  0.00     0.036 H 
ATOM     38  H33 TSV d         -17.568  -6.590  13.794  0.00  0.00     0.036 H 
ATOM     39  H34 TSV d         -12.305 -11.087  13.251  0.00  0.00     0.040 H 
ATOM     40  H35 TSV d         -12.772  -9.865  12.019  0.00  0.00     0.040 H 
ATOM     41  H36 TSV d         -17.571  -9.365  12.508  0.00  0.00     0.087 H 
ATOM     42  H39 TSV d         -13.955 -11.845  11.318  0.00  0.00     0.086 H 
ATOM     43  H43 TSV d         -15.553 -10.056  11.344  0.00  0.00     0.068 H 
ATOM     44  H44 TSV d         -16.349 -11.216  12.462  0.00  0.00     0.068 H 
ENDROOT
BRANCH  18  45
ATOM     45  N1  TSV d         -18.491  -9.020  14.343  0.00  0.00    -0.324 N 
ATOM     46  C20 TSV d         -19.219 -10.125  14.261  0.00  0.00     0.362 C 
ATOM     47  O2  TSV d         -19.153 -10.960  13.357  0.00  0.00    -0.238 OA
ATOM     48  H3  TSV d         -18.652  -8.392  15.105  0.00  0.00     0.165 HD
BRANCH  46  49
ATOM     49  O1  TSV d         -20.127 -10.299  15.366  0.00  0.00    -0.294 OA
BRANCH  49  50
ATOM     50  C9  TSV d         -20.278 -11.510  16.113  0.00  0.00     0.061 C 
BRANCH  50  51
ATOM     51  C6  TSV d         -21.167 -12.489  15.358  0.00  0.00    -0.048 C 
ATOM     52  H8  TSV d         -21.302 -12.139  14.324  0.00  0.00     0.031 H 
ATOM     53  H9  TSV d         -22.147 -12.553  15.854  0.00  0.00     0.031 H 
ATOM     54  H10 TSV d         -20.694 -13.482  15.350  0.00  0.00     0.031 H 
ENDBRANCH  50  51
BRANCH  50  55
ATOM     55  C7  TSV d         -18.871 -12.076  16.290  0.00  0.00    -0.048 C 
ATOM     56  H11 TSV d         -18.583 -12.017  17.350  0.00  0.00     0.031 H 
ATOM     57  H12 TSV d         -18.163 -11.492  15.684  0.00  0.00     0.031 H 
ATOM     58  H13 TSV d         -18.855 -13.126  15.964  0.00  0.00     0.031 H 
ENDBRANCH  50  55
BRANCH  50  59
ATOM     59  C8  TSV d         -20.895 -11.178  17.468  0.00  0.00    -0.048 C 
ATOM     60  H14 TSV d         -21.745 -10.495  17.326  0.00  0.00     0.031 H 
ATOM     61  H15 TSV d         -20.141 -10.696  18.106  0.00  0.00     0.031 H 
ATOM     62  H16 TSV d         -21.245 -12.104  17.948  0.00  0.00     0.031 H 
ENDBRANCH  50  59
ENDBRANCH  49  50
ENDBRANCH  46  49
ENDBRANCH  18  45
BRANCH  19  63
ATOM     63  O8  TSV d         -14.435 -12.477  13.251  0.00  0.00    -0.296 OA
BRANCH  63  64
ATOM     64  C35 TSV d         -13.967 -13.776  12.875  0.00  0.00     0.371 C 
ATOM     65  N4  TSV d         -14.916 -14.608  12.586  0.00  0.00    -0.278 N 
ATOM     66  C12 TSV d         -14.657 -15.937  12.012  0.00  0.00     0.000 A 
ATOM     67  C31 TSV d         -16.339 -14.311  12.755  0.00  0.00     0.003 A 
ATOM     68  C24 TSV d         -16.032 -16.438  11.783  0.00  0.00    -0.005 A 
ATOM     69  H18 TSV d         -13.705 -16.426  11.808  0.00  0.00     0.113 H 
ATOM     70  C16 TSV d         -16.388 -17.659  11.217  0.00  0.00    -0.071 A 
ATOM     71  C26 TSV d         -16.974 -15.546  12.184  0.00  0.00     0.030 A 
ATOM     72  C14 TSV d         -17.733 -17.937  11.084  0.00  0.00    -0.079 A 
ATOM     73  H23 TSV d         -15.635 -18.367  10.893  0.00  0.00     0.084 H 
ATOM     74  C17 TSV d         -18.703 -17.020  11.495  0.00  0.00    -0.045 A 
ATOM     75  H21 TSV d         -18.042 -18.882  10.653  0.00  0.00     0.083 H 
ATOM     76  C21 TSV d         -18.312 -15.799  12.064  0.00  0.00     0.128 A 
ATOM     77  H24 TSV d         -19.756 -17.251  11.375  0.00  0.00     0.088 H 
ATOM     78  F1  TSV d         -19.222 -14.896  12.483  0.00  0.00    -0.205 F 
ATOM     79  H40 TSV d         -16.811 -13.428  13.183  0.00  0.00     0.114 H 
ATOM     80  O5  TSV d         -12.770 -14.044  12.842  0.00  0.00    -0.238 OA
ENDBRANCH  63  64
ENDBRANCH  19  63
BRANCH   2  81
ATOM     81  C4  TSV d         -11.096  -6.069  14.940  0.00  0.00     0.260 C 
ATOM     82  N3  TSV d         -10.611  -6.633  13.838  0.00  0.00    -0.252 N 
ATOM     83  H6  TSV d         -11.052  -7.436  13.435  0.00  0.00     0.181 HD
ATOM     84  O9  TSV d         -10.569  -5.125  15.480  0.00  0.00    -0.270 OA
BRANCH  82  85
ATOM     85  S1  TSV d          -9.319  -6.005  13.181  0.00  0.00     0.237 S 
ATOM     86  O4  TSV d          -8.206  -6.023  14.086  0.00  0.00    -0.205 OA
ATOM     87  O6  TSV d          -9.620  -4.676  12.686  0.00  0.00    -0.205 OA
BRANCH  85  88
ATOM     88  C23 TSV d          -9.014  -6.953  11.843  0.00  0.00     0.063 A 
ATOM     89  C29 TSV d         -10.218  -7.660  11.228  0.00  0.00    -0.046 A 
ATOM     90  C32 TSV d          -9.589  -6.491  10.501  0.00  0.00    -0.046 A 
ATOM     91  H37 TSV d         -11.211  -7.551  11.686  0.00  0.00     0.035 H 
ATOM     92  H38 TSV d         -10.109  -8.679  10.827  0.00  0.00     0.035 H 
ATOM     93  H41 TSV d          -9.024  -6.661   9.573  0.00  0.00     0.035 H 
ATOM     94  H42 TSV d         -10.127  -5.533  10.434  0.00  0.00     0.035 H 
ATOM     95  H31 TSV d          -8.028  -7.436  11.909  0.00  0.00     0.066 H 
ENDBRANCH  85  88
ENDBRANCH  82  85
ENDBRANCH   2  81
TORSDOF 11
ENDMDL
