MODEL 1
REMARK VINA RESULT:      -5.0      0.000      0.000
REMARK WARNING: 32 MAX_TORS EXCEEDED!!!
REMARK  34 active torsions:
REMARK  status: ('A' for Active; 'I' for Inactive)
REMARK    1  A    between atoms: N_1  and  CA_2 
REMARK    2  A    between atoms: CA_2  and  CB_3 
REMARK    3  A    between atoms: CA_2  and  C_6 
REMARK    4  A    between atoms: CB_3  and  CG1_4 
REMARK    5  A    between atoms: CB_3  and  CG2_5 
REMARK       I    between atoms: C_6  and  N_8 
REMARK    6  A    between atoms: CA_9  and  C_13 
REMARK       I    between atoms: C_13  and  N_15 
REMARK    7  A    between atoms: N_15  and  CA_16 
REMARK    8  A    between atoms: CA_16  and  C_17 
REMARK       I    between atoms: C_17  and  N_19 
REMARK    9  A    between atoms: N_19  and  CA_20 
REMARK   10  A    between atoms: CA_20  and  C_21 
REMARK   11  A    between atoms: CA_20  and  CB_23 
REMARK       I    between atoms: C_21  and  N_25 
REMARK   12  A    between atoms: CB_23  and  OG_24 
REMARK   13  A    between atoms: N_25  and  CA_26 
REMARK   14  A    between atoms: CA_26  and  C_27 
REMARK   15  A    between atoms: CA_26  and  CB_29 
REMARK       I    between atoms: C_27  and  N_34 
REMARK   16  A    between atoms: CB_29  and  CG_30 
REMARK   17  A    between atoms: CG_30  and  CD_31 
REMARK       I    between atoms: CD_31  and  NE2_33 
REMARK   18  A    between atoms: N_34  and  CA_35 
REMARK   19  A    between atoms: CA_35  and  C_36 
REMARK   20  A    between atoms: CA_35  and  CB_38 
REMARK       I    between atoms: C_36  and  N_44 
REMARK   21  A    between atoms: CB_38  and  CG_39 
REMARK   22  A    between atoms: N_44  and  CA_45 
REMARK   23  A    between atoms: CA_45  and  C_46 
REMARK   24  A    between atoms: CA_45  and  CB_48 
REMARK       I    between atoms: C_46  and  N_56 
REMARK   25  A    between atoms: CB_48  and  CG_49 
REMARK   26  A    between atoms: CZ_54  and  OH_55 
REMARK   27  A    between atoms: N_56  and  CA_57 
REMARK   28  A    between atoms: CA_57  and  C_58 
REMARK   29  A    between atoms: CA_57  and  CB_60 
REMARK       I    between atoms: C_58  and  N_64 
REMARK   30  A    between atoms: CB_60  and  CG_61 
REMARK   31  A    between atoms: N_64  and  CA_65 
REMARK   32  A    between atoms: CA_65  and  C_66 
REMARK   33  A    between atoms: CA_65  and  CB_69 
REMARK   34  A    between atoms: CB_69  and  OG_70 
ROOT
ATOM      1  CA  DVA d          43.248  56.362  88.848  0.00  0.00     0.090 C 
ATOM      2  H28 DVA d          44.041  56.603  89.572  0.00  0.00     0.087 H 
ENDROOT
BRANCH   1   3
ATOM      3  N   DVA d          42.373  55.357  89.427  0.00  0.00    -0.346 N 
ATOM      4  C   DVA d          42.876  54.475  90.272  0.00  0.00     0.243 C 
ATOM      5  O   DVA d          44.052  54.481  90.600  0.00  0.00    -0.271 OA
ATOM      6  H27 DVA d          41.402  55.333  89.189  0.00  0.00     0.163 HD
BRANCH   4   7
ATOM      7  CA  DVA d          41.932  53.419  90.814  0.00  0.00     0.109 C 
ATOM      8  H23 DVA d          40.896  53.788  90.829  0.00  0.00     0.090 H 
BRANCH   7   9
ATOM      9  N   DVA d          42.367  53.085  92.151  0.00  0.00    -0.344 N 
ATOM     10  C   DVA d          41.518  52.688  93.085  0.00  0.00     0.236 C 
ATOM     11  O   DVA d          40.308  52.569  92.889  0.00  0.00    -0.272 OA
ATOM     12  H22 DVA d          43.339  53.157  92.377  0.00  0.00     0.163 HD
BRANCH  10  13
ATOM     13  CA  DVA d          42.111  52.376  94.434  0.00  0.00     0.069 C 
ATOM     14  H20 DVA d          41.515  51.600  94.937  0.00  0.00     0.078 H 
ATOM     15  H21 DVA d          43.147  52.026  94.318  0.00  0.00     0.078 H 
BRANCH  13  16
ATOM     16  N   DVA d          42.086  53.595  95.205  0.00  0.00    -0.351 N 
ATOM     17  C   DVA d          41.094  53.855  96.045  0.00  0.00     0.241 C 
ATOM     18  O   DVA d          40.148  53.084  96.236  0.00  0.00    -0.271 OA
ATOM     19  H19 DVA d          42.831  54.256  95.104  0.00  0.00     0.163 HD
BRANCH  17  20
ATOM     20  CA  DVA d          41.206  55.185  96.785  0.00  0.00     0.091 C 
ATOM     21  N   DVA d          42.541  55.771  96.591  0.00  0.00    -0.337 N 
ATOM     22  C   DVA d          43.147  56.429  95.569  0.00  0.00     0.251 C 
ATOM     23  CD  DVA d          43.353  55.577  97.809  0.00  0.00    -0.001 C 
ATOM     24  O   DVA d          44.326  56.794  95.650  0.00  0.00    -0.271 OA
ATOM     25  CG  DVA d          42.528  54.585  98.608  0.00  0.00    -0.048 C 
ATOM     26  H17 DVA d          43.476  56.522  98.358  0.00  0.00     0.064 H 
ATOM     27  H18 DVA d          44.342  55.163  97.564  0.00  0.00     0.064 H 
ATOM     28  CB  DVA d          41.134  54.999  98.294  0.00  0.00    -0.036 C 
ATOM     29  H15 DVA d          42.720  53.553  98.280  0.00  0.00     0.035 H 
ATOM     30  H16 DVA d          42.736  54.673  99.685  0.00  0.00     0.035 H 
ATOM     31  H13 DVA d          40.411  54.216  98.568  0.00  0.00     0.036 H 
ATOM     32  H14 DVA d          40.868  55.938  98.803  0.00  0.00     0.036 H 
ATOM     33  H12 DVA d          40.417  55.867  96.434  0.00  0.00     0.087 H 
BRANCH  22  34
ATOM     34  CA  DVA d          42.366  56.691  94.260  0.00  0.00     0.178 C 
ATOM     35  H4  DVA d          41.448  56.087  94.299  0.00  0.00     0.099 H 
BRANCH  34  36
ATOM     36  N   DVA d          43.182  56.226  93.104  0.00  0.00    -0.066 N 
ATOM     37  H1  DVA d          43.998  56.811  93.012  0.00  0.00     0.275 HD
ATOM     38  H2  DVA d          42.632  56.281  92.261  0.00  0.00     0.275 HD
ATOM     39  H3  DVA d          43.469  55.272  93.257  0.00  0.00     0.275 HD
ENDBRANCH  34  36
BRANCH  34  40
ATOM     40  CB  DVA d          41.937  58.157  94.048  0.00  0.00    -0.025 C 
ATOM     41  H5  DVA d          42.137  58.729  94.966  0.00  0.00     0.042 H 
BRANCH  40  42
ATOM     42  CG1 DVA d          42.719  58.774  92.900  0.00  0.00    -0.071 C 
ATOM     43  H6  DVA d          42.454  58.267  91.961  0.00  0.00     0.028 H 
ATOM     44  H7  DVA d          43.798  58.659  93.086  0.00  0.00     0.028 H 
ATOM     45  H8  DVA d          42.473  59.844  92.822  0.00  0.00     0.028 H 
ENDBRANCH  40  42
BRANCH  40  46
ATOM     46  CG2 DVA d          40.437  58.195  93.745  0.00  0.00    -0.071 C 
ATOM     47  H9  DVA d          40.194  59.126  93.212  0.00  0.00     0.028 H 
ATOM     48  H10 DVA d          39.872  58.153  94.687  0.00  0.00     0.028 H 
ATOM     49  H11 DVA d          40.168  57.333  93.118  0.00  0.00     0.028 H 
ENDBRANCH  40  46
ENDBRANCH  34  40
ENDBRANCH  22  34
ENDBRANCH  17  20
ENDBRANCH  13  16
ENDBRANCH  10  13
ENDBRANCH   7   9
BRANCH   7  50
ATOM     50  CB  DVA d          42.051  52.200  89.904  0.00  0.00     0.044 C 
ATOM     51  H24 DVA d          41.249  52.228  89.151  0.00  0.00     0.077 H 
ATOM     52  H25 DVA d          41.956  51.285  90.508  0.00  0.00     0.077 H 
BRANCH  50  53
ATOM     53  OG  DVA d          43.309  52.202  89.249  0.00  0.00    -0.398 OA
ATOM     54  H26 DVA d          43.255  52.737  88.467  0.00  0.00     0.209 HD
ENDBRANCH  50  53
ENDBRANCH   7  50
ENDBRANCH   4   7
ENDBRANCH   1   3
BRANCH   1  55
ATOM     55  C   DVA d          43.898  55.836  87.571  0.00  0.00     0.241 C 
ATOM     56  O   DVA d          43.889  56.511  86.537  0.00  0.00    -0.271 OA
ATOM     57  N   DVA d          44.461  54.629  87.646  0.00  0.00    -0.346 N 
ATOM     58  H35 DVA d          44.460  54.144  88.521  0.00  0.00     0.163 HD
BRANCH  57  59
ATOM     59  CA  DVA d          45.086  53.989  86.468  0.00  0.00     0.094 C 
ATOM     60  H36 DVA d          45.063  54.713  85.641  0.00  0.00     0.088 H 
BRANCH  59  61
ATOM     61  C   DVA d          46.501  53.542  86.697  0.00  0.00     0.241 C 
ATOM     62  O   DVA d          47.424  54.369  86.676  0.00  0.00    -0.271 OA
ATOM     63  N   DVA d          46.673  52.238  86.878  0.00  0.00    -0.346 N 
ATOM     64  H42 DVA d          45.876  51.638  86.958  0.00  0.00     0.163 HD
BRANCH  63  65
ATOM     65  CA  DVA d          48.018  51.672  86.962  0.00  0.00     0.093 C 
ATOM     66  H43 DVA d          48.626  52.150  86.180  0.00  0.00     0.088 H 
BRANCH  65  67
ATOM     67  C   DVA d          48.745  51.887  88.284  0.00  0.00     0.241 C 
ATOM     68  O   DVA d          49.928  52.237  88.287  0.00  0.00    -0.271 OA
ATOM     69  N   DVA d          48.037  51.666  89.390  0.00  0.00    -0.345 N 
ATOM     70  H51 DVA d          47.086  51.369  89.306  0.00  0.00     0.163 HD
BRANCH  69  71
ATOM     71  CA  DVA d          48.610  51.845  90.732  0.00  0.00     0.098 C 
ATOM     72  H52 DVA d          49.648  52.190  90.607  0.00  0.00     0.088 H 
BRANCH  71  73
ATOM     73  C   DVA d          47.869  52.862  91.598  0.00  0.00     0.241 C 
ATOM     74  O   DVA d          47.188  53.765  91.094  0.00  0.00    -0.271 OA
ATOM     75  N   DVA d          48.016  52.661  92.909  0.00  0.00    -0.343 N 
ATOM     76  H55 DVA d          48.606  51.903  93.185  0.00  0.00     0.163 HD
BRANCH  75  77
ATOM     77  CA  DVA d          47.398  53.442  93.982  0.00  0.00     0.116 C 
ATOM     78  H56 DVA d          47.462  54.498  93.680  0.00  0.00     0.093 H 
BRANCH  77  79
ATOM     79  C   DVA d          45.924  53.131  94.199  0.00  0.00     0.198 C 
ATOM     80  O   DVA d          45.076  53.809  93.584  0.00  0.00    -0.646 OA
ATOM     81  OXT DVA d          45.646  52.198  94.987  0.00  0.00    -0.646 OA
ENDBRANCH  77  79
BRANCH  77  82
ATOM     82  CB  DVA d          48.169  53.296  95.300  0.00  0.00     0.045 C 
ATOM     83  H57 DVA d          48.036  52.273  95.683  0.00  0.00     0.077 H 
ATOM     84  H58 DVA d          47.772  54.016  96.031  0.00  0.00     0.077 H 
BRANCH  82  85
ATOM     85  OG  DVA d          49.557  53.543  95.109  0.00  0.00    -0.398 OA
ATOM     86  H59 DVA d          49.689  53.973  94.272  0.00  0.00     0.209 HD
ENDBRANCH  82  85
ENDBRANCH  77  82
ENDBRANCH  75  77
ENDBRANCH  71  73
BRANCH  71  87
ATOM     87  CB  DVA d          48.617  50.517  91.492  0.00  0.00     0.043 C 
ATOM     88  H53 DVA d          48.598  50.730  92.571  0.00  0.00     0.052 H 
ATOM     89  H54 DVA d          49.539  49.972  91.241  0.00  0.00     0.052 H 
BRANCH  87  90
ATOM     90  CG  DVA d          47.435  49.648  91.151  0.00  0.00     0.175 C 
ATOM     91  OD1 DVA d          46.439  49.672  91.906  0.00  0.00    -0.648 OA
ATOM     92  OD2 DVA d          47.492  48.953  90.123  0.00  0.00    -0.648 OA
ENDBRANCH  87  90
ENDBRANCH  71  87
ENDBRANCH  69  71
ENDBRANCH  65  67
BRANCH  65  93
ATOM     93  CB  DVA d          47.922  50.173  86.658  0.00  0.00    -0.014 C 
ATOM     94  H44 DVA d          47.718  49.637  87.596  0.00  0.00     0.043 H 
ATOM     95  H45 DVA d          48.884  49.836  86.244  0.00  0.00     0.043 H 
BRANCH  93  96
ATOM     96  CG  DVA d          46.822  49.845  85.660  0.00  0.00    -0.056 A 
ATOM     97  CD1 DVA d          45.570  49.399  86.095  0.00  0.00    -0.074 A 
ATOM     98  CE1 DVA d          44.550  49.058  85.190  0.00  0.00    -0.051 A 
ATOM     99  H46 DVA d          45.380  49.316  87.159  0.00  0.00     0.084 H 
ATOM    100  CZ  DVA d          44.803  49.176  83.810  0.00  0.00     0.065 A 
ATOM    101  H48 DVA d          43.588  48.710  85.548  0.00  0.00     0.087 H 
ATOM    102  CE2 DVA d          46.039  49.614  83.359  0.00  0.00    -0.051 A 
ATOM    103  CD2 DVA d          47.048  49.948  84.281  0.00  0.00    -0.074 A 
ATOM    104  H49 DVA d          46.228  49.701  82.295  0.00  0.00     0.087 H 
ATOM    105  H47 DVA d          48.012  50.289  83.919  0.00  0.00     0.084 H 
BRANCH 100 106
ATOM    106  OH  DVA d          43.825  48.874  82.888  0.00  0.00    -0.361 OA
ATOM    107  H50 DVA d          43.122  49.509  82.955  0.00  0.00     0.217 HD
ENDBRANCH 100 106
ENDBRANCH  93  96
ENDBRANCH  65  93
ENDBRANCH  63  65
ENDBRANCH  59  61
BRANCH  59 108
ATOM    108  CB  DVA d          44.352  52.712  86.054  0.00  0.00     0.004 C 
ATOM    109  H37 DVA d          43.433  52.634  86.653  0.00  0.00     0.046 H 
ATOM    110  H38 DVA d          45.005  51.854  86.270  0.00  0.00     0.046 H 
BRANCH 108 111
ATOM    111  CG  DVA d          43.972  52.658  84.605  0.00  0.00     0.053 A 
ATOM    112  ND1 DVA d          42.791  52.097  84.159  0.00  0.00    -0.247 NA
ATOM    113  CE1 DVA d          42.719  52.219  82.841  0.00  0.00     0.064 A 
ATOM    114  NE2 DVA d          43.816  52.835  82.418  0.00  0.00    -0.359 N 
ATOM    115  H40 DVA d          41.899  51.873  82.213  0.00  0.00     0.143 H 
ATOM    116  CD2 DVA d          44.614  53.117  83.504  0.00  0.00     0.002 A 
ATOM    117  H41 DVA d          44.034  53.065  81.438  0.00  0.00     0.166 HD
ATOM    118  H39 DVA d          45.582  53.616  83.482  0.00  0.00     0.114 H 
ENDBRANCH 108 111
ENDBRANCH  59 108
ENDBRANCH  57  59
ENDBRANCH   1  55
BRANCH   1 119
ATOM    119  CB  DVA d          42.444  57.635  88.552  0.00  0.00    -0.030 C 
ATOM    120  H29 DVA d          42.796  58.070  87.605  0.00  0.00     0.037 H 
ATOM    121  H30 DVA d          42.599  58.356  89.369  0.00  0.00     0.037 H 
BRANCH 119 122
ATOM    122  CG  DVA d          40.932  57.322  88.433  0.00  0.00     0.011 C 
ATOM    123  H31 DVA d          40.708  56.454  89.070  0.00  0.00     0.047 H 
ATOM    124  H32 DVA d          40.712  57.073  87.384  0.00  0.00     0.047 H 
BRANCH 122 125
ATOM    125  CD  DVA d          40.012  58.481  88.857  0.00  0.00     0.215 C 
ATOM    126  OE1 DVA d          39.197  58.975  88.056  0.00  0.00    -0.274 OA
ATOM    127  NE2 DVA d          40.133  58.905  90.098  0.00  0.00    -0.370 N 
ATOM    128  H33 DVA d          39.560  59.656  90.427  0.00  0.00     0.159 HD
ATOM    129  H34 DVA d          40.796  58.476  90.710  0.00  0.00     0.159 HD
ENDBRANCH 122 125
ENDBRANCH 119 122
ENDBRANCH   1 119
TORSDOF 34
ENDMDL
MODEL 2
REMARK VINA RESULT:      -4.2      2.549      7.821
REMARK WARNING: 32 MAX_TORS EXCEEDED!!!
REMARK  34 active torsions:
REMARK  status: ('A' for Active; 'I' for Inactive)
REMARK    1  A    between atoms: N_1  and  CA_2 
REMARK    2  A    between atoms: CA_2  and  CB_3 
REMARK    3  A    between atoms: CA_2  and  C_6 
REMARK    4  A    between atoms: CB_3  and  CG1_4 
REMARK    5  A    between atoms: CB_3  and  CG2_5 
REMARK       I    between atoms: C_6  and  N_8 
REMARK    6  A    between atoms: CA_9  and  C_13 
REMARK       I    between atoms: C_13  and  N_15 
REMARK    7  A    between atoms: N_15  and  CA_16 
REMARK    8  A    between atoms: CA_16  and  C_17 
REMARK       I    between atoms: C_17  and  N_19 
REMARK    9  A    between atoms: N_19  and  CA_20 
REMARK   10  A    between atoms: CA_20  and  C_21 
REMARK   11  A    between atoms: CA_20  and  CB_23 
REMARK       I    between atoms: C_21  and  N_25 
REMARK   12  A    between atoms: CB_23  and  OG_24 
REMARK   13  A    between atoms: N_25  and  CA_26 
REMARK   14  A    between atoms: CA_26  and  C_27 
REMARK   15  A    between atoms: CA_26  and  CB_29 
REMARK       I    between atoms: C_27  and  N_34 
REMARK   16  A    between atoms: CB_29  and  CG_30 
REMARK   17  A    between atoms: CG_30  and  CD_31 
REMARK       I    between atoms: CD_31  and  NE2_33 
REMARK   18  A    between atoms: N_34  and  CA_35 
REMARK   19  A    between atoms: CA_35  and  C_36 
REMARK   20  A    between atoms: CA_35  and  CB_38 
REMARK       I    between atoms: C_36  and  N_44 
REMARK   21  A    between atoms: CB_38  and  CG_39 
REMARK   22  A    between atoms: N_44  and  CA_45 
REMARK   23  A    between atoms: CA_45  and  C_46 
REMARK   24  A    between atoms: CA_45  and  CB_48 
REMARK       I    between atoms: C_46  and  N_56 
REMARK   25  A    between atoms: CB_48  and  CG_49 
REMARK   26  A    between atoms: CZ_54  and  OH_55 
REMARK   27  A    between atoms: N_56  and  CA_57 
REMARK   28  A    between atoms: CA_57  and  C_58 
REMARK   29  A    between atoms: CA_57  and  CB_60 
REMARK       I    between atoms: C_58  and  N_64 
REMARK   30  A    between atoms: CB_60  and  CG_61 
REMARK   31  A    between atoms: N_64  and  CA_65 
REMARK   32  A    between atoms: CA_65  and  C_66 
REMARK   33  A    between atoms: CA_65  and  CB_69 
REMARK   34  A    between atoms: CB_69  and  OG_70 
ROOT
ATOM      1  CA  DVA d          43.000  55.190  91.935  0.00  0.00     0.090 C 
ATOM      2  H28 DVA d          43.199  54.174  91.562  0.00  0.00     0.087 H 
ENDROOT
BRANCH   1   3
ATOM      3  N   DVA d          42.882  56.091  90.800  0.00  0.00    -0.346 N 
ATOM      4  C   DVA d          42.478  55.613  89.637  0.00  0.00     0.243 C 
ATOM      5  O   DVA d          42.184  54.438  89.480  0.00  0.00    -0.271 OA
ATOM      6  H27 DVA d          43.104  57.061  90.899  0.00  0.00     0.163 HD
BRANCH   4   7
ATOM      7  CA  DVA d          42.416  56.584  88.474  0.00  0.00     0.109 C 
ATOM      8  H23 DVA d          41.574  56.346  87.807  0.00  0.00     0.090 H 
BRANCH   7   9
ATOM      9  N   DVA d          43.667  56.490  87.756  0.00  0.00    -0.344 N 
ATOM     10  C   DVA d          43.786  55.777  86.647  0.00  0.00     0.236 C 
ATOM     11  O   DVA d          42.853  55.151  86.144  0.00  0.00    -0.272 OA
ATOM     12  H22 DVA d          44.466  56.977  88.108  0.00  0.00     0.163 HD
BRANCH  10  13
ATOM     13  CA  DVA d          45.150  55.767  86.007  0.00  0.00     0.069 C 
ATOM     14  H20 DVA d          45.435  56.788  85.711  0.00  0.00     0.078 H 
ATOM     15  H21 DVA d          45.894  55.370  86.713  0.00  0.00     0.078 H 
BRANCH  13  16
ATOM     16  N   DVA d          45.071  54.919  84.843  0.00  0.00    -0.351 N 
ATOM     17  C   DVA d          45.736  53.774  84.784  0.00  0.00     0.241 C 
ATOM     18  O   DVA d          46.443  53.351  85.704  0.00  0.00    -0.271 OA
ATOM     19  H19 DVA d          44.505  55.200  84.068  0.00  0.00     0.163 HD
BRANCH  17  20
ATOM     20  CA  DVA d          45.556  52.989  83.487  0.00  0.00     0.091 C 
ATOM     21  N   DVA d          44.754  51.780  83.724  0.00  0.00    -0.337 N 
ATOM     22  C   DVA d          43.428  51.543  83.906  0.00  0.00     0.251 C 
ATOM     23  CD  DVA d          45.633  50.594  83.753  0.00  0.00    -0.001 C 
ATOM     24  O   DVA d          43.005  50.403  84.132  0.00  0.00    -0.271 OA
ATOM     25  CG  DVA d          47.019  51.206  83.823  0.00  0.00    -0.048 C 
ATOM     26  H17 DVA d          45.513  49.989  82.843  0.00  0.00     0.064 H 
ATOM     27  H18 DVA d          45.430  49.972  84.637  0.00  0.00     0.064 H 
ATOM     28  CB  DVA d          46.877  52.425  82.981  0.00  0.00    -0.036 C 
ATOM     29  H15 DVA d          47.287  51.467  84.857  0.00  0.00     0.035 H 
ATOM     30  H16 DVA d          47.776  50.524  83.409  0.00  0.00     0.035 H 
ATOM     31  H13 DVA d          47.705  53.129  83.149  0.00  0.00     0.036 H 
ATOM     32  H14 DVA d          46.822  52.171  81.912  0.00  0.00     0.036 H 
ATOM     33  H12 DVA d          45.088  53.636  82.729  0.00  0.00     0.087 H 
BRANCH  22  34
ATOM     34  CA  DVA d          42.431  52.725  83.876  0.00  0.00     0.178 C 
ATOM     35  H4  DVA d          42.997  53.639  84.108  0.00  0.00     0.099 H 
BRANCH  34  36
ATOM     36  N   DVA d          41.408  52.527  84.940  0.00  0.00    -0.066 N 
ATOM     37  H1  DVA d          40.829  53.350  85.008  0.00  0.00     0.275 HD
ATOM     38  H2  DVA d          41.868  52.367  85.823  0.00  0.00     0.275 HD
ATOM     39  H3  DVA d          40.834  51.731  84.711  0.00  0.00     0.275 HD
ENDBRANCH  34  36
BRANCH  34  40
ATOM     40  CB  DVA d          41.741  52.950  82.516  0.00  0.00    -0.025 C 
ATOM     41  H5  DVA d          41.561  51.977  82.035  0.00  0.00     0.042 H 
BRANCH  40  42
ATOM     42  CG1 DVA d          40.410  53.659  82.711  0.00  0.00    -0.071 C 
ATOM     43  H6  DVA d          40.307  53.964  83.762  0.00  0.00     0.028 H 
ATOM     44  H7  DVA d          39.588  52.977  82.445  0.00  0.00     0.028 H 
ATOM     45  H8  DVA d          40.370  54.549  82.065  0.00  0.00     0.028 H 
ENDBRANCH  40  42
BRANCH  40  46
ATOM     46  CG2 DVA d          42.661  53.791  81.627  0.00  0.00    -0.071 C 
ATOM     47  H9  DVA d          42.738  53.324  80.634  0.00  0.00     0.028 H 
ATOM     48  H10 DVA d          43.659  53.850  82.084  0.00  0.00     0.028 H 
ATOM     49  H11 DVA d          42.245  54.804  81.524  0.00  0.00     0.028 H 
ENDBRANCH  40  46
ENDBRANCH  34  40
ENDBRANCH  22  34
ENDBRANCH  17  20
ENDBRANCH  13  16
ENDBRANCH  10  13
ENDBRANCH   7   9
BRANCH   7  50
ATOM     50  CB  DVA d          42.252  57.981  89.062  0.00  0.00     0.044 C 
ATOM     51  H24 DVA d          42.127  57.905  90.152  0.00  0.00     0.077 H 
ATOM     52  H25 DVA d          41.364  58.459  88.623  0.00  0.00     0.077 H 
BRANCH  50  53
ATOM     53  OG  DVA d          43.398  58.767  88.776  0.00  0.00    -0.398 OA
ATOM     54  H26 DVA d          43.785  58.474  87.960  0.00  0.00     0.209 HD
ENDBRANCH  50  53
ENDBRANCH   7  50
ENDBRANCH   4   7
ENDBRANCH   1   3
BRANCH   1  55
ATOM     55  C   DVA d          44.156  55.613  92.837  0.00  0.00     0.241 C 
ATOM     56  O   DVA d          43.940  56.220  93.891  0.00  0.00    -0.271 OA
ATOM     57  N   DVA d          45.382  55.292  92.421  0.00  0.00    -0.346 N 
ATOM     58  H35 DVA d          45.488  54.774  91.571  0.00  0.00     0.163 HD
BRANCH  57  59
ATOM     59  CA  DVA d          46.588  55.681  93.183  0.00  0.00     0.094 C 
ATOM     60  H36 DVA d          46.307  55.751  94.244  0.00  0.00     0.088 H 
BRANCH  59  61
ATOM     61  C   DVA d          47.736  54.724  93.038  0.00  0.00     0.241 C 
ATOM     62  O   DVA d          48.613  54.668  93.912  0.00  0.00    -0.271 OA
ATOM     63  N   DVA d          47.748  54.002  91.922  0.00  0.00    -0.346 N 
ATOM     64  H42 DVA d          46.970  54.043  91.296  0.00  0.00     0.163 HD
BRANCH  63  65
ATOM     65  CA  DVA d          48.892  53.148  91.605  0.00  0.00     0.093 C 
ATOM     66  H43 DVA d          49.799  53.674  91.939  0.00  0.00     0.088 H 
BRANCH  65  67
ATOM     67  C   DVA d          48.899  51.779  92.273  0.00  0.00     0.241 C 
ATOM     68  O   DVA d          49.966  51.278  92.639  0.00  0.00    -0.271 OA
ATOM     69  N   DVA d          47.716  51.183  92.412  0.00  0.00    -0.345 N 
ATOM     70  H51 DVA d          46.897  51.646  92.075  0.00  0.00     0.163 HD
BRANCH  69  71
ATOM     71  CA  DVA d          47.577  49.865  93.047  0.00  0.00     0.098 C 
ATOM     72  H52 DVA d          48.586  49.514  93.311  0.00  0.00     0.088 H 
BRANCH  71  73
ATOM     73  C   DVA d          46.726  49.869  94.315  0.00  0.00     0.241 C 
ATOM     74  O   DVA d          46.896  49.031  95.211  0.00  0.00    -0.271 OA
ATOM     75  N   DVA d          45.825  50.852  94.356  0.00  0.00    -0.343 N 
ATOM     76  H55 DVA d          45.780  51.455  93.559  0.00  0.00     0.163 HD
BRANCH  75  77
ATOM     77  CA  DVA d          44.898  51.137  95.452  0.00  0.00     0.116 C 
ATOM     78  H56 DVA d          45.509  51.246  96.361  0.00  0.00     0.093 H 
BRANCH  77  79
ATOM     79  C   DVA d          44.124  52.437  95.281  0.00  0.00     0.198 C 
ATOM     80  O   DVA d          43.083  52.424  94.593  0.00  0.00    -0.646 OA
ATOM     81  OXT DVA d          44.580  53.454  95.853  0.00  0.00    -0.646 OA
ENDBRANCH  77  79
BRANCH  77  82
ATOM     82  CB  DVA d          43.929  49.972  95.687  0.00  0.00     0.045 C 
ATOM     83  H57 DVA d          44.484  49.123  96.115  0.00  0.00     0.077 H 
ATOM     84  H58 DVA d          43.485  49.674  94.726  0.00  0.00     0.077 H 
BRANCH  82  85
ATOM     85  OG  DVA d          42.890  50.346  96.584  0.00  0.00    -0.398 OA
ATOM     86  H59 DVA d          42.052  50.281  96.140  0.00  0.00     0.209 HD
ENDBRANCH  82  85
ENDBRANCH  77  82
ENDBRANCH  75  77
ENDBRANCH  71  73
BRANCH  71  87
ATOM     87  CB  DVA d          46.944  48.867  92.075  0.00  0.00     0.043 C 
ATOM     88  H53 DVA d          46.093  49.354  91.576  0.00  0.00     0.052 H 
ATOM     89  H54 DVA d          46.586  47.998  92.647  0.00  0.00     0.052 H 
BRANCH  87  90
ATOM     90  CG  DVA d          47.910  48.387  91.024  0.00  0.00     0.175 C 
ATOM     91  OD1 DVA d          47.452  47.982  89.933  0.00  0.00    -0.648 OA
ATOM     92  OD2 DVA d          49.125  48.429  91.278  0.00  0.00    -0.648 OA
ENDBRANCH  87  90
ENDBRANCH  71  87
ENDBRANCH  69  71
ENDBRANCH  65  67
BRANCH  65  93
ATOM     93  CB  DVA d          48.955  52.987  90.083  0.00  0.00    -0.014 C 
ATOM     94  H44 DVA d          49.751  52.268  89.838  0.00  0.00     0.043 H 
ATOM     95  H45 DVA d          49.192  53.964  89.636  0.00  0.00     0.043 H 
BRANCH  93  96
ATOM     96  CG  DVA d          47.647  52.486  89.489  0.00  0.00    -0.056 A 
ATOM     97  CD1 DVA d          46.456  53.193  89.680  0.00  0.00    -0.074 A 
ATOM     98  CE1 DVA d          45.231  52.731  89.170  0.00  0.00    -0.051 A 
ATOM     99  H46 DVA d          46.478  54.123  90.236  0.00  0.00     0.084 H 
ATOM    100  CZ  DVA d          45.212  51.525  88.442  0.00  0.00     0.065 A 
ATOM    101  H48 DVA d          44.317  53.292  89.333  0.00  0.00     0.087 H 
ATOM    102  CE2 DVA d          46.384  50.809  88.243  0.00  0.00    -0.051 A 
ATOM    103  CD2 DVA d          47.599  51.286  88.765  0.00  0.00    -0.074 A 
ATOM    104  H49 DVA d          46.362  49.881  87.684  0.00  0.00     0.087 H 
ATOM    105  H47 DVA d          48.510  50.719  88.606  0.00  0.00     0.084 H 
BRANCH 100 106
ATOM    106  OH  DVA d          44.038  51.047  87.904  0.00  0.00    -0.361 OA
ATOM    107  H50 DVA d          43.885  50.164  88.218  0.00  0.00     0.217 HD
ENDBRANCH 100 106
ENDBRANCH  93  96
ENDBRANCH  65  93
ENDBRANCH  63  65
ENDBRANCH  59  61
BRANCH  59 108
ATOM    108  CB  DVA d          47.155  57.022  92.712  0.00  0.00     0.004 C 
ATOM    109  H37 DVA d          48.246  57.003  92.852  0.00  0.00     0.046 H 
ATOM    110  H38 DVA d          46.719  57.817  93.334  0.00  0.00     0.046 H 
BRANCH 108 111
ATOM    111  CG  DVA d          46.873  57.343  91.275  0.00  0.00     0.053 A 
ATOM    112  ND1 DVA d          47.387  56.605  90.227  0.00  0.00    -0.247 NA
ATOM    113  CE1 DVA d          46.946  57.106  89.082  0.00  0.00     0.064 A 
ATOM    114  NE2 DVA d          46.167  58.146  89.353  0.00  0.00    -0.359 N 
ATOM    115  H40 DVA d          47.182  56.729  88.087  0.00  0.00     0.143 H 
ATOM    116  CD2 DVA d          46.109  58.313  90.719  0.00  0.00     0.002 A 
ATOM    117  H41 DVA d          45.685  58.732  88.657  0.00  0.00     0.166 HD
ATOM    118  H39 DVA d          45.553  59.082  91.253  0.00  0.00     0.114 H 
ENDBRANCH 108 111
ENDBRANCH  59 108
ENDBRANCH  57  59
ENDBRANCH   1  55
BRANCH   1 119
ATOM    119  CB  DVA d          41.684  55.180  92.722  0.00  0.00    -0.030 C 
ATOM    120  H29 DVA d          41.910  55.187  93.799  0.00  0.00     0.037 H 
ATOM    121  H30 DVA d          41.121  54.269  92.471  0.00  0.00     0.037 H 
BRANCH 119 122
ATOM    122  CG  DVA d          40.820  56.419  92.379  0.00  0.00     0.011 C 
ATOM    123  H31 DVA d          40.061  56.117  91.644  0.00  0.00     0.047 H 
ATOM    124  H32 DVA d          41.475  57.184  91.935  0.00  0.00     0.047 H 
BRANCH 122 125
ATOM    125  CD  DVA d          40.101  57.042  93.588  0.00  0.00     0.215 C 
ATOM    126  OE1 DVA d          39.496  56.328  94.409  0.00  0.00    -0.274 OA
ATOM    127  NE2 DVA d          40.171  58.352  93.704  0.00  0.00    -0.370 N 
ATOM    128  H33 DVA d          39.721  58.810  94.471  0.00  0.00     0.159 HD
ATOM    129  H34 DVA d          40.673  58.888  93.026  0.00  0.00     0.159 HD
ENDBRANCH 122 125
ENDBRANCH 119 122
ENDBRANCH   1 119
TORSDOF 34
ENDMDL
MODEL 3
REMARK VINA RESULT:      -4.2      2.488      8.126
REMARK WARNING: 32 MAX_TORS EXCEEDED!!!
REMARK  34 active torsions:
REMARK  status: ('A' for Active; 'I' for Inactive)
REMARK    1  A    between atoms: N_1  and  CA_2 
REMARK    2  A    between atoms: CA_2  and  CB_3 
REMARK    3  A    between atoms: CA_2  and  C_6 
REMARK    4  A    between atoms: CB_3  and  CG1_4 
REMARK    5  A    between atoms: CB_3  and  CG2_5 
REMARK       I    between atoms: C_6  and  N_8 
REMARK    6  A    between atoms: CA_9  and  C_13 
REMARK       I    between atoms: C_13  and  N_15 
REMARK    7  A    between atoms: N_15  and  CA_16 
REMARK    8  A    between atoms: CA_16  and  C_17 
REMARK       I    between atoms: C_17  and  N_19 
REMARK    9  A    between atoms: N_19  and  CA_20 
REMARK   10  A    between atoms: CA_20  and  C_21 
REMARK   11  A    between atoms: CA_20  and  CB_23 
REMARK       I    between atoms: C_21  and  N_25 
REMARK   12  A    between atoms: CB_23  and  OG_24 
REMARK   13  A    between atoms: N_25  and  CA_26 
REMARK   14  A    between atoms: CA_26  and  C_27 
REMARK   15  A    between atoms: CA_26  and  CB_29 
REMARK       I    between atoms: C_27  and  N_34 
REMARK   16  A    between atoms: CB_29  and  CG_30 
REMARK   17  A    between atoms: CG_30  and  CD_31 
REMARK       I    between atoms: CD_31  and  NE2_33 
REMARK   18  A    between atoms: N_34  and  CA_35 
REMARK   19  A    between atoms: CA_35  and  C_36 
REMARK   20  A    between atoms: CA_35  and  CB_38 
REMARK       I    between atoms: C_36  and  N_44 
REMARK   21  A    between atoms: CB_38  and  CG_39 
REMARK   22  A    between atoms: N_44  and  CA_45 
REMARK   23  A    between atoms: CA_45  and  C_46 
REMARK   24  A    between atoms: CA_45  and  CB_48 
REMARK       I    between atoms: C_46  and  N_56 
REMARK   25  A    between atoms: CB_48  and  CG_49 
REMARK   26  A    between atoms: CZ_54  and  OH_55 
REMARK   27  A    between atoms: N_56  and  CA_57 
REMARK   28  A    between atoms: CA_57  and  C_58 
REMARK   29  A    between atoms: CA_57  and  CB_60 
REMARK       I    between atoms: C_58  and  N_64 
REMARK   30  A    between atoms: CB_60  and  CG_61 
REMARK   31  A    between atoms: N_64  and  CA_65 
REMARK   32  A    between atoms: CA_65  and  C_66 
REMARK   33  A    between atoms: CA_65  and  CB_69 
REMARK   34  A    between atoms: CB_69  and  OG_70 
ROOT
ATOM      1  CA  DVA d          41.873  55.536  92.537  0.00  0.00     0.090 C 
ATOM      2  H28 DVA d          42.044  54.549  92.082  0.00  0.00     0.087 H 
ENDROOT
BRANCH   1   3
ATOM      3  N   DVA d          41.632  56.504  91.479  0.00  0.00    -0.346 N 
ATOM      4  C   DVA d          41.108  56.093  90.338  0.00  0.00     0.243 C 
ATOM      5  O   DVA d          40.802  54.928  90.140  0.00  0.00    -0.271 OA
ATOM      6  H27 DVA d          41.861  57.468  91.614  0.00  0.00     0.163 HD
BRANCH   4   7
ATOM      7  CA  DVA d          40.920  57.134  89.250  0.00  0.00     0.109 C 
ATOM      8  H23 DVA d          39.937  57.026  88.769  0.00  0.00     0.090 H 
BRANCH   7   9
ATOM      9  N   DVA d          41.976  56.951  88.281  0.00  0.00    -0.344 N 
ATOM     10  C   DVA d          41.847  56.129  87.251  0.00  0.00     0.236 C 
ATOM     11  O   DVA d          40.829  55.469  87.039  0.00  0.00    -0.272 OA
ATOM     12  H22 DVA d          42.830  57.460  88.392  0.00  0.00     0.163 HD
BRANCH  10  13
ATOM     13  CA  DVA d          43.030  56.036  86.323  0.00  0.00     0.069 C 
ATOM     14  H20 DVA d          43.057  56.913  85.659  0.00  0.00     0.078 H 
ATOM     15  H21 DVA d          43.962  55.988  86.905  0.00  0.00     0.078 H 
BRANCH  13  16
ATOM     16  N   DVA d          42.871  54.832  85.546  0.00  0.00    -0.351 N 
ATOM     17  C   DVA d          43.893  54.301  84.889  0.00  0.00     0.241 C 
ATOM     18  O   DVA d          45.032  54.777  84.905  0.00  0.00    -0.271 OA
ATOM     19  H19 DVA d          41.975  54.390  85.501  0.00  0.00     0.163 HD
BRANCH  17  20
ATOM     20  CA  DVA d          43.568  53.029  84.108  0.00  0.00     0.091 C 
ATOM     21  N   DVA d          44.782  52.489  83.477  0.00  0.00    -0.337 N 
ATOM     22  C   DVA d          45.853  51.788  83.931  0.00  0.00     0.251 C 
ATOM     23  CD  DVA d          44.776  52.799  82.034  0.00  0.00    -0.001 C 
ATOM     24  O   DVA d          46.785  51.480  83.178  0.00  0.00    -0.271 OA
ATOM     25  CG  DVA d          43.648  53.808  81.912  0.00  0.00    -0.048 C 
ATOM     26  H17 DVA d          44.568  51.900  81.436  0.00  0.00     0.064 H 
ATOM     27  H18 DVA d          45.734  53.237  81.719  0.00  0.00     0.064 H 
ATOM     28  CB  DVA d          42.665  53.315  82.916  0.00  0.00    -0.036 C 
ATOM     29  H15 DVA d          43.994  54.822  82.159  0.00  0.00     0.035 H 
ATOM     30  H16 DVA d          43.218  53.803  80.900  0.00  0.00     0.035 H 
ATOM     31  H13 DVA d          41.916  54.083  83.154  0.00  0.00     0.036 H 
ATOM     32  H14 DVA d          42.158  52.403  82.567  0.00  0.00     0.036 H 
ATOM     33  H12 DVA d          43.107  52.292  84.782  0.00  0.00     0.087 H 
BRANCH  22  34
ATOM     34  CA  DVA d          45.936  51.405  85.428  0.00  0.00     0.178 C 
ATOM     35  H4  DVA d          44.952  51.610  85.874  0.00  0.00     0.099 H 
BRANCH  34  36
ATOM     36  N   DVA d          46.943  52.274  86.099  0.00  0.00    -0.066 N 
ATOM     37  H1  DVA d          47.073  51.965  87.049  0.00  0.00     0.275 HD
ATOM     38  H2  DVA d          46.617  53.229  86.097  0.00  0.00     0.275 HD
ATOM     39  H3  DVA d          47.819  52.217  85.604  0.00  0.00     0.275 HD
ENDBRANCH  34  36
BRANCH  34  40
ATOM     40  CB  DVA d          46.257  49.922  85.696  0.00  0.00    -0.025 C 
ATOM     41  H5  DVA d          46.898  49.537  84.888  0.00  0.00     0.042 H 
BRANCH  40  42
ATOM     42  CG1 DVA d          46.989  49.771  87.020  0.00  0.00    -0.071 C 
ATOM     43  H6  DVA d          46.892  48.735  87.376  0.00  0.00     0.028 H 
ATOM     44  H7  DVA d          46.550  50.455  87.762  0.00  0.00     0.028 H 
ATOM     45  H8  DVA d          48.053  50.014  86.882  0.00  0.00     0.028 H 
ENDBRANCH  40  42
BRANCH  40  46
ATOM     46  CG2 DVA d          44.948  49.128  85.723  0.00  0.00    -0.071 C 
ATOM     47  H9  DVA d          44.415  49.267  84.770  0.00  0.00     0.028 H 
ATOM     48  H10 DVA d          44.319  49.487  86.551  0.00  0.00     0.028 H 
ATOM     49  H11 DVA d          45.169  48.061  85.867  0.00  0.00     0.028 H 
ENDBRANCH  40  46
ENDBRANCH  34  40
ENDBRANCH  22  34
ENDBRANCH  17  20
ENDBRANCH  13  16
ENDBRANCH  10  13
ENDBRANCH   7   9
BRANCH   7  50
ATOM     50  CB  DVA d          41.045  58.503  89.910  0.00  0.00     0.044 C 
ATOM     51  H24 DVA d          41.226  59.264  89.137  0.00  0.00     0.077 H 
ATOM     52  H25 DVA d          41.887  58.490  90.617  0.00  0.00     0.077 H 
BRANCH  50  53
ATOM     53  OG  DVA d          39.851  58.818  90.607  0.00  0.00    -0.398 OA
ATOM     54  H26 DVA d          39.265  58.070  90.584  0.00  0.00     0.209 HD
ENDBRANCH  50  53
ENDBRANCH   7  50
ENDBRANCH   4   7
ENDBRANCH   1   3
BRANCH   1  55
ATOM     55  C   DVA d          43.108  55.922  93.346  0.00  0.00     0.241 C 
ATOM     56  O   DVA d          42.993  56.379  94.487  0.00  0.00    -0.271 OA
ATOM     57  N   DVA d          44.288  55.737  92.752  0.00  0.00    -0.346 N 
ATOM     58  H35 DVA d          44.315  55.336  91.835  0.00  0.00     0.163 HD
BRANCH  57  59
ATOM     59  CA  DVA d          45.558  56.110  93.412  0.00  0.00     0.094 C 
ATOM     60  H36 DVA d          45.350  56.252  94.483  0.00  0.00     0.088 H 
BRANCH  59  61
ATOM     61  C   DVA d          46.650  55.094  93.251  0.00  0.00     0.241 C 
ATOM     62  O   DVA d          47.653  55.139  93.977  0.00  0.00    -0.271 OA
ATOM     63  N   DVA d          46.473  54.205  92.280  0.00  0.00    -0.346 N 
ATOM     64  H42 DVA d          45.606  54.180  91.782  0.00  0.00     0.163 HD
BRANCH  63  65
ATOM     65  CA  DVA d          47.536  53.262  91.934  0.00  0.00     0.093 C 
ATOM     66  H43 DVA d          48.492  53.724  92.222  0.00  0.00     0.088 H 
BRANCH  65  67
ATOM     67  C   DVA d          47.469  51.908  92.628  0.00  0.00     0.241 C 
ATOM     68  O   DVA d          47.925  50.906  92.068  0.00  0.00    -0.271 OA
ATOM     69  N   DVA d          46.894  51.886  93.829  0.00  0.00    -0.345 N 
ATOM     70  H51 DVA d          46.534  52.737  94.209  0.00  0.00     0.163 HD
BRANCH  69  71
ATOM     71  CA  DVA d          46.770  50.649  94.612  0.00  0.00     0.098 C 
ATOM     72  H52 DVA d          47.305  49.855  94.068  0.00  0.00     0.088 H 
BRANCH  71  73
ATOM     73  C   DVA d          47.356  50.740  96.020  0.00  0.00     0.241 C 
ATOM     74  O   DVA d          47.644  49.724  96.667  0.00  0.00    -0.271 OA
ATOM     75  N   DVA d          47.535  51.991  96.449  0.00  0.00    -0.343 N 
ATOM     76  H55 DVA d          47.247  52.724  95.832  0.00  0.00     0.163 HD
BRANCH  75  77
ATOM     77  CA  DVA d          48.112  52.396  97.732  0.00  0.00     0.116 C 
ATOM     78  H56 DVA d          48.453  51.475  98.228  0.00  0.00     0.093 H 
BRANCH  77  79
ATOM     79  C   DVA d          49.326  53.305  97.600  0.00  0.00     0.198 C 
ATOM     80  O   DVA d          49.141  54.520  97.389  0.00  0.00    -0.646 OA
ATOM     81  OXT DVA d          50.454  52.773  97.721  0.00  0.00    -0.646 OA
ENDBRANCH  77  79
BRANCH  77  82
ATOM     82  CB  DVA d          47.062  53.046  98.641  0.00  0.00     0.045 C 
ATOM     83  H57 DVA d          47.359  54.084  98.849  0.00  0.00     0.077 H 
ATOM     84  H58 DVA d          47.006  52.483  99.585  0.00  0.00     0.077 H 
BRANCH  82  85
ATOM     85  OG  DVA d          45.781  53.044  98.023  0.00  0.00    -0.398 OA
ATOM     86  H59 DVA d          45.304  53.824  98.284  0.00  0.00     0.209 HD
ENDBRANCH  82  85
ENDBRANCH  77  82
ENDBRANCH  75  77
ENDBRANCH  71  73
BRANCH  71  87
ATOM     87  CB  DVA d          45.300  50.250  94.755  0.00  0.00     0.043 C 
ATOM     88  H53 DVA d          45.209  49.536  95.587  0.00  0.00     0.052 H 
ATOM     89  H54 DVA d          44.973  49.769  93.822  0.00  0.00     0.052 H 
BRANCH  87  90
ATOM     90  CG  DVA d          44.404  51.428  95.030  0.00  0.00     0.175 C 
ATOM     91  OD1 DVA d          43.997  51.609  96.198  0.00  0.00    -0.648 OA
ATOM     92  OD2 DVA d          44.118  52.183  94.086  0.00  0.00    -0.648 OA
ENDBRANCH  87  90
ENDBRANCH  71  87
ENDBRANCH  69  71
ENDBRANCH  65  67
BRANCH  65  93
ATOM     93  CB  DVA d          47.525  53.072  90.414  0.00  0.00    -0.014 C 
ATOM     94  H44 DVA d          48.052  52.137  90.173  0.00  0.00     0.043 H 
ATOM     95  H45 DVA d          48.050  53.919  89.950  0.00  0.00     0.043 H 
BRANCH  93  96
ATOM     96  CG  DVA d          46.119  52.998  89.840  0.00  0.00    -0.056 A 
ATOM     97  CD1 DVA d          45.577  51.778  89.422  0.00  0.00    -0.074 A 
ATOM     98  CE1 DVA d          44.294  51.692  88.858  0.00  0.00    -0.051 A 
ATOM     99  H46 DVA d          46.165  50.874  89.537  0.00  0.00     0.084 H 
ATOM    100  CZ  DVA d          43.535  52.871  88.719  0.00  0.00     0.065 A 
ATOM    101  H48 DVA d          43.894  50.737  88.536  0.00  0.00     0.087 H 
ATOM    102  CE2 DVA d          44.055  54.090  89.127  0.00  0.00    -0.051 A 
ATOM    103  CD2 DVA d          45.344  54.156  89.686  0.00  0.00    -0.074 A 
ATOM    104  H49 DVA d          43.467  54.994  89.015  0.00  0.00     0.087 H 
ATOM    105  H47 DVA d          45.743  55.114  90.001  0.00  0.00     0.084 H 
BRANCH 100 106
ATOM    106  OH  DVA d          42.263  52.830  88.193  0.00  0.00    -0.361 OA
ATOM    107  H50 DVA d          41.668  52.462  88.835  0.00  0.00     0.217 HD
ENDBRANCH 100 106
ENDBRANCH  93  96
ENDBRANCH  65  93
ENDBRANCH  63  65
ENDBRANCH  59  61
BRANCH  59 108
ATOM    108  CB  DVA d          46.150  57.395  92.829  0.00  0.00     0.004 C 
ATOM    109  H37 DVA d          47.241  57.272  92.763  0.00  0.00     0.046 H 
ATOM    110  H38 DVA d          45.915  58.224  93.513  0.00  0.00     0.046 H 
BRANCH 108 111
ATOM    111  CG  DVA d          45.636  57.752  91.467  0.00  0.00     0.053 A 
ATOM    112  ND1 DVA d          46.165  57.227  90.304  0.00  0.00    -0.247 NA
ATOM    113  CE1 DVA d          45.493  57.702  89.265  0.00  0.00     0.064 A 
ATOM    114  NE2 DVA d          44.549  58.520  89.715  0.00  0.00    -0.359 N 
ATOM    115  H40 DVA d          45.682  57.461  88.220  0.00  0.00     0.143 H 
ATOM    116  CD2 DVA d          44.622  58.567  91.090  0.00  0.00     0.002 A 
ATOM    117  H41 DVA d          43.874  59.035  89.133  0.00  0.00     0.166 HD
ATOM    118  H39 DVA d          43.984  59.152  91.751  0.00  0.00     0.114 H 
ENDBRANCH 108 111
ENDBRANCH  59 108
ENDBRANCH  57  59
ENDBRANCH   1  55
BRANCH   1 119
ATOM    119  CB  DVA d          40.642  55.454  93.448  0.00  0.00    -0.030 C 
ATOM    120  H29 DVA d          39.756  55.787  92.887  0.00  0.00     0.037 H 
ATOM    121  H30 DVA d          40.794  56.111  94.318  0.00  0.00     0.037 H 
BRANCH 119 122
ATOM    122  CG  DVA d          40.411  54.005  93.943  0.00  0.00     0.011 C 
ATOM    123  H31 DVA d          39.759  54.042  94.828  0.00  0.00     0.047 H 
ATOM    124  H32 DVA d          41.385  53.577  94.224  0.00  0.00     0.047 H 
BRANCH 122 125
ATOM    125  CD  DVA d          39.759  53.078  92.902  0.00  0.00     0.215 C 
ATOM    126  OE1 DVA d          40.391  52.127  92.407  0.00  0.00    -0.274 OA
ATOM    127  NE2 DVA d          38.509  53.343  92.579  0.00  0.00    -0.370 N 
ATOM    128  H33 DVA d          38.036  52.773  91.908  0.00  0.00     0.159 HD
ATOM    129  H34 DVA d          38.035  54.112  93.005  0.00  0.00     0.159 HD
ENDBRANCH 122 125
ENDBRANCH 119 122
ENDBRANCH   1 119
TORSDOF 34
ENDMDL
MODEL 4
REMARK VINA RESULT:      -4.1      2.570      7.475
REMARK WARNING: 32 MAX_TORS EXCEEDED!!!
REMARK  34 active torsions:
REMARK  status: ('A' for Active; 'I' for Inactive)
REMARK    1  A    between atoms: N_1  and  CA_2 
REMARK    2  A    between atoms: CA_2  and  CB_3 
REMARK    3  A    between atoms: CA_2  and  C_6 
REMARK    4  A    between atoms: CB_3  and  CG1_4 
REMARK    5  A    between atoms: CB_3  and  CG2_5 
REMARK       I    between atoms: C_6  and  N_8 
REMARK    6  A    between atoms: CA_9  and  C_13 
REMARK       I    between atoms: C_13  and  N_15 
REMARK    7  A    between atoms: N_15  and  CA_16 
REMARK    8  A    between atoms: CA_16  and  C_17 
REMARK       I    between atoms: C_17  and  N_19 
REMARK    9  A    between atoms: N_19  and  CA_20 
REMARK   10  A    between atoms: CA_20  and  C_21 
REMARK   11  A    between atoms: CA_20  and  CB_23 
REMARK       I    between atoms: C_21  and  N_25 
REMARK   12  A    between atoms: CB_23  and  OG_24 
REMARK   13  A    between atoms: N_25  and  CA_26 
REMARK   14  A    between atoms: CA_26  and  C_27 
REMARK   15  A    between atoms: CA_26  and  CB_29 
REMARK       I    between atoms: C_27  and  N_34 
REMARK   16  A    between atoms: CB_29  and  CG_30 
REMARK   17  A    between atoms: CG_30  and  CD_31 
REMARK       I    between atoms: CD_31  and  NE2_33 
REMARK   18  A    between atoms: N_34  and  CA_35 
REMARK   19  A    between atoms: CA_35  and  C_36 
REMARK   20  A    between atoms: CA_35  and  CB_38 
REMARK       I    between atoms: C_36  and  N_44 
REMARK   21  A    between atoms: CB_38  and  CG_39 
REMARK   22  A    between atoms: N_44  and  CA_45 
REMARK   23  A    between atoms: CA_45  and  C_46 
REMARK   24  A    between atoms: CA_45  and  CB_48 
REMARK       I    between atoms: C_46  and  N_56 
REMARK   25  A    between atoms: CB_48  and  CG_49 
REMARK   26  A    between atoms: CZ_54  and  OH_55 
REMARK   27  A    between atoms: N_56  and  CA_57 
REMARK   28  A    between atoms: CA_57  and  C_58 
REMARK   29  A    between atoms: CA_57  and  CB_60 
REMARK       I    between atoms: C_58  and  N_64 
REMARK   30  A    between atoms: CB_60  and  CG_61 
REMARK   31  A    between atoms: N_64  and  CA_65 
REMARK   32  A    between atoms: CA_65  and  C_66 
REMARK   33  A    between atoms: CA_65  and  CB_69 
REMARK   34  A    between atoms: CB_69  and  OG_70 
ROOT
ATOM      1  CA  DVA d          42.210  56.749  90.074  0.00  0.00     0.090 C 
ATOM      2  H28 DVA d          42.479  57.087  89.062  0.00  0.00     0.087 H 
ENDROOT
BRANCH   1   3
ATOM      3  N   DVA d          43.177  57.282  91.019  0.00  0.00    -0.346 N 
ATOM      4  C   DVA d          44.223  57.947  90.563  0.00  0.00     0.243 C 
ATOM      5  O   DVA d          44.403  58.147  89.373  0.00  0.00    -0.271 OA
ATOM      6  H27 DVA d          43.053  57.146  92.002  0.00  0.00     0.163 HD
BRANCH   4   7
ATOM      7  CA  DVA d          45.227  58.443  91.587  0.00  0.00     0.109 C 
ATOM      8  H23 DVA d          45.868  59.229  91.161  0.00  0.00     0.090 H 
BRANCH   7   9
ATOM      9  N   DVA d          46.027  57.312  91.999  0.00  0.00    -0.344 N 
ATOM     10  C   DVA d          47.346  57.384  92.091  0.00  0.00     0.236 C 
ATOM     11  O   DVA d          47.984  58.406  91.841  0.00  0.00    -0.272 OA
ATOM     12  H22 DVA d          45.571  56.450  92.221  0.00  0.00     0.163 HD
BRANCH  10  13
ATOM     13  CA  DVA d          48.050  56.127  92.531  0.00  0.00     0.069 C 
ATOM     14  H20 DVA d          48.706  55.762  91.726  0.00  0.00     0.078 H 
ATOM     15  H21 DVA d          48.651  56.327  93.430  0.00  0.00     0.078 H 
BRANCH  13  16
ATOM     16  N   DVA d          47.035  55.146  92.824  0.00  0.00    -0.351 N 
ATOM     17  C   DVA d          47.143  53.897  92.390  0.00  0.00     0.241 C 
ATOM     18  O   DVA d          48.104  53.488  91.732  0.00  0.00    -0.271 OA
ATOM     19  H19 DVA d          46.235  55.411  93.363  0.00  0.00     0.163 HD
BRANCH  17  20
ATOM     20  CA  DVA d          45.987  52.977  92.776  0.00  0.00     0.091 C 
ATOM     21  N   DVA d          46.460  51.900  93.659  0.00  0.00    -0.337 N 
ATOM     22  C   DVA d          46.793  51.831  94.974  0.00  0.00     0.251 C 
ATOM     23  CD  DVA d          46.571  50.642  92.896  0.00  0.00    -0.001 C 
ATOM     24  O   DVA d          47.210  50.781  95.476  0.00  0.00    -0.271 OA
ATOM     25  CG  DVA d          46.430  51.107  91.458  0.00  0.00    -0.048 C 
ATOM     26  H17 DVA d          45.767  49.942  93.166  0.00  0.00     0.064 H 
ATOM     27  H18 DVA d          47.548  50.162  93.063  0.00  0.00     0.064 H 
ATOM     28  CB  DVA d          45.445  52.217  91.574  0.00  0.00    -0.036 C 
ATOM     29  H15 DVA d          47.390  51.467  91.061  0.00  0.00     0.035 H 
ATOM     30  H16 DVA d          46.047  50.301  90.816  0.00  0.00     0.035 H 
ATOM     31  H13 DVA d          45.440  52.844  90.671  0.00  0.00     0.036 H 
ATOM     32  H14 DVA d          44.430  51.836  91.763  0.00  0.00     0.036 H 
ATOM     33  H12 DVA d          45.193  53.568  93.258  0.00  0.00     0.087 H 
BRANCH  22  34
ATOM     34  CA  DVA d          46.691  53.099  95.855  0.00  0.00     0.178 C 
ATOM     35  H4  DVA d          46.507  53.951  95.184  0.00  0.00     0.099 H 
BRANCH  34  36
ATOM     36  N   DVA d          47.993  53.319  96.544  0.00  0.00    -0.066 N 
ATOM     37  H1  DVA d          48.033  52.751  97.376  0.00  0.00     0.275 HD
ATOM     38  H2  DVA d          48.079  54.292  96.797  0.00  0.00     0.275 HD
ATOM     39  H3  DVA d          48.747  53.064  95.927  0.00  0.00     0.275 HD
ENDBRANCH  34  36
BRANCH  34  40
ATOM     40  CB  DVA d          45.545  53.076  96.886  0.00  0.00    -0.025 C 
ATOM     41  H5  DVA d          45.237  54.109  97.108  0.00  0.00     0.042 H 
BRANCH  40  42
ATOM     42  CG1 DVA d          44.352  52.313  96.333  0.00  0.00    -0.071 C 
ATOM     43  H6  DVA d          44.584  51.954  95.320  0.00  0.00     0.028 H 
ATOM     44  H7  DVA d          43.476  52.978  96.295  0.00  0.00     0.028 H 
ATOM     45  H8  DVA d          44.132  51.454  96.985  0.00  0.00     0.028 H 
ENDBRANCH  40  42
BRANCH  40  46
ATOM     46  CG2 DVA d          46.048  52.412  98.170  0.00  0.00    -0.071 C 
ATOM     47  H9  DVA d          46.862  53.014  98.601  0.00  0.00     0.028 H 
ATOM     48  H10 DVA d          46.419  51.403  97.939  0.00  0.00     0.028 H 
ATOM     49  H11 DVA d          45.222  52.341  98.893  0.00  0.00     0.028 H 
ENDBRANCH  40  46
ENDBRANCH  34  40
ENDBRANCH  22  34
ENDBRANCH  17  20
ENDBRANCH  13  16
ENDBRANCH  10  13
ENDBRANCH   7   9
BRANCH   7  50
ATOM     50  CB  DVA d          44.433  58.983  92.771  0.00  0.00     0.044 C 
ATOM     51  H24 DVA d          43.534  58.367  92.918  0.00  0.00     0.077 H 
ATOM     52  H25 DVA d          44.137  60.023  92.567  0.00  0.00     0.077 H 
BRANCH  50  53
ATOM     53  OG  DVA d          45.225  58.943  93.947  0.00  0.00    -0.398 OA
ATOM     54  H26 DVA d          46.143  59.006  93.711  0.00  0.00     0.209 HD
ENDBRANCH  50  53
ENDBRANCH   7  50
ENDBRANCH   4   7
ENDBRANCH   1   3
BRANCH   1  55
ATOM     55  C   DVA d          42.221  55.223  90.098  0.00  0.00     0.241 C 
ATOM     56  O   DVA d          43.240  54.608  90.426  0.00  0.00    -0.271 OA
ATOM     57  N   DVA d          41.086  54.616  89.748  0.00  0.00    -0.346 N 
ATOM     58  H35 DVA d          40.286  55.172  89.520  0.00  0.00     0.163 HD
BRANCH  57  59
ATOM     59  CA  DVA d          40.979  53.142  89.690  0.00  0.00     0.094 C 
ATOM     60  H36 DVA d          40.010  52.893  89.233  0.00  0.00     0.088 H 
BRANCH  59  61
ATOM     61  C   DVA d          42.079  52.482  88.910  0.00  0.00     0.241 C 
ATOM     62  O   DVA d          42.700  51.527  89.397  0.00  0.00    -0.271 OA
ATOM     63  N   DVA d          42.341  53.011  87.720  0.00  0.00    -0.346 N 
ATOM     64  H42 DVA d          41.751  53.733  87.357  0.00  0.00     0.163 HD
BRANCH  63  65
ATOM     65  CA  DVA d          43.485  52.546  86.938  0.00  0.00     0.093 C 
ATOM     66  H43 DVA d          43.669  51.498  87.214  0.00  0.00     0.088 H 
BRANCH  65  67
ATOM     67  C   DVA d          43.311  52.584  85.425  0.00  0.00     0.241 C 
ATOM     68  O   DVA d          42.439  53.300  84.923  0.00  0.00    -0.271 OA
ATOM     69  N   DVA d          44.128  51.807  84.715  0.00  0.00    -0.345 N 
ATOM     70  H51 DVA d          44.798  51.243  85.196  0.00  0.00     0.163 HD
BRANCH  69  71
ATOM     71  CA  DVA d          44.074  51.754  83.248  0.00  0.00     0.098 C 
ATOM     72  H52 DVA d          43.041  51.980  82.944  0.00  0.00     0.088 H 
BRANCH  71  73
ATOM     73  C   DVA d          45.005  52.745  82.552  0.00  0.00     0.241 C 
ATOM     74  O   DVA d          44.601  53.483  81.643  0.00  0.00    -0.271 OA
ATOM     75  N   DVA d          46.251  52.742  83.031  0.00  0.00    -0.343 N 
ATOM     76  H55 DVA d          46.451  52.085  83.759  0.00  0.00     0.163 HD
BRANCH  75  77
ATOM     77  CA  DVA d          47.352  53.604  82.597  0.00  0.00     0.116 C 
ATOM     78  H56 DVA d          46.906  54.393  81.973  0.00  0.00     0.093 H 
BRANCH  77  79
ATOM     79  C   DVA d          48.075  54.299  83.741  0.00  0.00     0.198 C 
ATOM     80  O   DVA d          47.406  54.689  84.720  0.00  0.00    -0.646 OA
ATOM     81  OXT DVA d          49.316  54.436  83.635  0.00  0.00    -0.646 OA
ENDBRANCH  77  79
BRANCH  77  82
ATOM     82  CB  DVA d          48.355  52.839  81.724  0.00  0.00     0.045 C 
ATOM     83  H57 DVA d          49.372  53.192  81.952  0.00  0.00     0.077 H 
ATOM     84  H58 DVA d          48.128  53.031  80.665  0.00  0.00     0.077 H 
BRANCH  82  85
ATOM     85  OG  DVA d          48.282  51.440  81.969  0.00  0.00    -0.398 OA
ATOM     86  H59 DVA d          48.560  51.261  82.860  0.00  0.00     0.209 HD
ENDBRANCH  82  85
ENDBRANCH  77  82
ENDBRANCH  75  77
ENDBRANCH  71  73
BRANCH  71  87
ATOM     87  CB  DVA d          44.444  50.355  82.749  0.00  0.00     0.043 C 
ATOM     88  H53 DVA d          45.059  50.456  81.843  0.00  0.00     0.052 H 
ATOM     89  H54 DVA d          43.519  49.812  82.507  0.00  0.00     0.052 H 
BRANCH  87  90
ATOM     90  CG  DVA d          45.215  49.561  83.770  0.00  0.00     0.175 C 
ATOM     91  OD1 DVA d          46.426  49.823  83.940  0.00  0.00    -0.648 OA
ATOM     92  OD2 DVA d          44.613  48.687  84.415  0.00  0.00    -0.648 OA
ENDBRANCH  87  90
ENDBRANCH  71  87
ENDBRANCH  69  71
ENDBRANCH  65  67
BRANCH  65  93
ATOM     93  CB  DVA d          44.706  53.379  87.343  0.00  0.00    -0.014 C 
ATOM     94  H44 DVA d          44.443  53.982  88.225  0.00  0.00     0.043 H 
ATOM     95  H45 DVA d          44.970  54.045  86.508  0.00  0.00     0.043 H 
BRANCH  93  96
ATOM     96  CG  DVA d          45.916  52.523  87.683  0.00  0.00    -0.056 A 
ATOM     97  CD1 DVA d          47.126  53.111  88.065  0.00  0.00    -0.074 A 
ATOM     98  CE1 DVA d          48.266  52.342  88.351  0.00  0.00    -0.051 A 
ATOM     99  H46 DVA d          47.185  54.191  88.144  0.00  0.00     0.084 H 
ATOM    100  CZ  DVA d          48.178  50.939  88.253  0.00  0.00     0.065 A 
ATOM    101  H48 DVA d          49.196  52.818  88.641  0.00  0.00     0.087 H 
ATOM    102  CE2 DVA d          46.987  50.337  87.874  0.00  0.00    -0.051 A 
ATOM    103  CD2 DVA d          45.858  51.126  87.588  0.00  0.00    -0.074 A 
ATOM    104  H49 DVA d          46.927  49.258  87.798  0.00  0.00     0.087 H 
ATOM    105  H47 DVA d          44.931  50.646  87.291  0.00  0.00     0.084 H 
BRANCH 100 106
ATOM    106  OH  DVA d          49.264  50.145  88.545  0.00  0.00    -0.361 OA
ATOM    107  H50 DVA d          49.424  50.161  89.482  0.00  0.00     0.217 HD
ENDBRANCH 100 106
ENDBRANCH  93  96
ENDBRANCH  65  93
ENDBRANCH  63  65
ENDBRANCH  59  61
BRANCH  59 108
ATOM    108  CB  DVA d          41.070  52.507  91.079  0.00  0.00     0.004 C 
ATOM    109  H37 DVA d          42.084  52.677  91.470  0.00  0.00     0.046 H 
ATOM    110  H38 DVA d          40.895  51.426  90.975  0.00  0.00     0.046 H 
BRANCH 108 111
ATOM    111  CG  DVA d          40.088  53.047  92.073  0.00  0.00     0.053 A 
ATOM    112  ND1 DVA d          40.399  54.059  92.961  0.00  0.00    -0.247 NA
ATOM    113  CE1 DVA d          39.330  54.343  93.692  0.00  0.00     0.064 A 
ATOM    114  NE2 DVA d          38.339  53.546  93.310  0.00  0.00    -0.359 N 
ATOM    115  H40 DVA d          39.274  55.101  94.472  0.00  0.00     0.143 H 
ATOM    116  CD2 DVA d          38.792  52.727  92.301  0.00  0.00     0.002 A 
ATOM    117  H41 DVA d          37.388  53.542  93.705  0.00  0.00     0.166 HD
ATOM    118  H39 DVA d          38.215  51.962  91.782  0.00  0.00     0.114 H 
ENDBRANCH 108 111
ENDBRANCH  59 108
ENDBRANCH  57  59
ENDBRANCH   1  55
BRANCH   1 119
ATOM    119  CB  DVA d          40.811  57.278  90.417  0.00  0.00    -0.030 C 
ATOM    120  H29 DVA d          40.271  56.515  90.995  0.00  0.00     0.037 H 
ATOM    121  H30 DVA d          40.267  57.486  89.483  0.00  0.00     0.037 H 
BRANCH 119 122
ATOM    122  CG  DVA d          40.898  58.579  91.253  0.00  0.00     0.011 C 
ATOM    123  H31 DVA d          40.236  59.328  90.795  0.00  0.00     0.047 H 
ATOM    124  H32 DVA d          41.937  58.940  91.222  0.00  0.00     0.047 H 
BRANCH 122 125
ATOM    125  CD  DVA d          40.489  58.410  92.727  0.00  0.00     0.215 C 
ATOM    126  OE1 DVA d          41.070  57.591  93.462  0.00  0.00    -0.274 OA
ATOM    127  NE2 DVA d          39.511  59.179  93.158  0.00  0.00    -0.370 N 
ATOM    128  H33 DVA d          39.203  59.112  94.107  0.00  0.00     0.159 HD
ATOM    129  H34 DVA d          39.075  59.830  92.536  0.00  0.00     0.159 HD
ENDBRANCH 122 125
ENDBRANCH 119 122
ENDBRANCH   1 119
TORSDOF 34
ENDMDL
MODEL 5
REMARK VINA RESULT:      -4.0      2.663      4.573
REMARK WARNING: 32 MAX_TORS EXCEEDED!!!
REMARK  34 active torsions:
REMARK  status: ('A' for Active; 'I' for Inactive)
REMARK    1  A    between atoms: N_1  and  CA_2 
REMARK    2  A    between atoms: CA_2  and  CB_3 
REMARK    3  A    between atoms: CA_2  and  C_6 
REMARK    4  A    between atoms: CB_3  and  CG1_4 
REMARK    5  A    between atoms: CB_3  and  CG2_5 
REMARK       I    between atoms: C_6  and  N_8 
REMARK    6  A    between atoms: CA_9  and  C_13 
REMARK       I    between atoms: C_13  and  N_15 
REMARK    7  A    between atoms: N_15  and  CA_16 
REMARK    8  A    between atoms: CA_16  and  C_17 
REMARK       I    between atoms: C_17  and  N_19 
REMARK    9  A    between atoms: N_19  and  CA_20 
REMARK   10  A    between atoms: CA_20  and  C_21 
REMARK   11  A    between atoms: CA_20  and  CB_23 
REMARK       I    between atoms: C_21  and  N_25 
REMARK   12  A    between atoms: CB_23  and  OG_24 
REMARK   13  A    between atoms: N_25  and  CA_26 
REMARK   14  A    between atoms: CA_26  and  C_27 
REMARK   15  A    between atoms: CA_26  and  CB_29 
REMARK       I    between atoms: C_27  and  N_34 
REMARK   16  A    between atoms: CB_29  and  CG_30 
REMARK   17  A    between atoms: CG_30  and  CD_31 
REMARK       I    between atoms: CD_31  and  NE2_33 
REMARK   18  A    between atoms: N_34  and  CA_35 
REMARK   19  A    between atoms: CA_35  and  C_36 
REMARK   20  A    between atoms: CA_35  and  CB_38 
REMARK       I    between atoms: C_36  and  N_44 
REMARK   21  A    between atoms: CB_38  and  CG_39 
REMARK   22  A    between atoms: N_44  and  CA_45 
REMARK   23  A    between atoms: CA_45  and  C_46 
REMARK   24  A    between atoms: CA_45  and  CB_48 
REMARK       I    between atoms: C_46  and  N_56 
REMARK   25  A    between atoms: CB_48  and  CG_49 
REMARK   26  A    between atoms: CZ_54  and  OH_55 
REMARK   27  A    between atoms: N_56  and  CA_57 
REMARK   28  A    between atoms: CA_57  and  C_58 
REMARK   29  A    between atoms: CA_57  and  CB_60 
REMARK       I    between atoms: C_58  and  N_64 
REMARK   30  A    between atoms: CB_60  and  CG_61 
REMARK   31  A    between atoms: N_64  and  CA_65 
REMARK   32  A    between atoms: CA_65  and  C_66 
REMARK   33  A    between atoms: CA_65  and  CB_69 
REMARK   34  A    between atoms: CB_69  and  OG_70 
ROOT
ATOM      1  CA  DVA d          42.584  55.605  89.610  0.00  0.00     0.090 C 
ATOM      2  H28 DVA d          43.017  56.550  89.250  0.00  0.00     0.087 H 
ENDROOT
BRANCH   1   3
ATOM      3  N   DVA d          43.160  55.289  90.907  0.00  0.00    -0.346 N 
ATOM      4  C   DVA d          43.523  56.275  91.707  0.00  0.00     0.243 C 
ATOM      5  O   DVA d          43.379  57.449  91.406  0.00  0.00    -0.271 OA
ATOM      6  H27 DVA d          43.281  54.337  91.189  0.00  0.00     0.163 HD
BRANCH   4   7
ATOM      7  CA  DVA d          44.162  55.893  93.029  0.00  0.00     0.109 C 
ATOM      8  H23 DVA d          45.241  55.721  92.909  0.00  0.00     0.090 H 
BRANCH   7   9
ATOM      9  N   DVA d          43.510  54.692  93.500  0.00  0.00    -0.344 N 
ATOM     10  C   DVA d          44.181  53.722  94.101  0.00  0.00     0.236 C 
ATOM     11  O   DVA d          45.394  53.768  94.307  0.00  0.00    -0.272 OA
ATOM     12  H22 DVA d          42.524  54.591  93.368  0.00  0.00     0.163 HD
BRANCH  10  13
ATOM     13  CA  DVA d          43.373  52.527  94.537  0.00  0.00     0.069 C 
ATOM     14  H20 DVA d          43.655  51.645  93.943  0.00  0.00     0.078 H 
ATOM     15  H21 DVA d          43.549  52.322  95.603  0.00  0.00     0.078 H 
BRANCH  13  16
ATOM     16  N   DVA d          41.983  52.846  94.318  0.00  0.00    -0.351 N 
ATOM     17  C   DVA d          41.021  52.036  94.736  0.00  0.00     0.241 C 
ATOM     18  O   DVA d          41.236  50.982  95.342  0.00  0.00    -0.271 OA
ATOM     19  H19 DVA d          41.742  53.692  93.842  0.00  0.00     0.163 HD
BRANCH  17  20
ATOM     20  CA  DVA d          39.601  52.507  94.427  0.00  0.00     0.091 C 
ATOM     21  N   DVA d          38.900  51.516  93.597  0.00  0.00    -0.337 N 
ATOM     22  C   DVA d          38.316  50.315  93.846  0.00  0.00     0.251 C 
ATOM     23  CD  DVA d          38.843  51.986  92.199  0.00  0.00    -0.001 C 
ATOM     24  O   DVA d          37.814  49.644  92.936  0.00  0.00    -0.271 OA
ATOM     25  CG  DVA d          39.809  53.156  92.198  0.00  0.00    -0.048 C 
ATOM     26  H17 DVA d          37.827  52.312  91.931  0.00  0.00     0.064 H 
ATOM     27  H18 DVA d          39.172  51.200  91.502  0.00  0.00     0.064 H 
ATOM     28  CB  DVA d          39.598  53.749  93.547  0.00  0.00    -0.036 C 
ATOM     29  H15 DVA d          40.847  52.815  92.072  0.00  0.00     0.035 H 
ATOM     30  H16 DVA d          39.561  53.876  91.405  0.00  0.00     0.035 H 
ATOM     31  H13 DVA d          40.415  54.435  93.817  0.00  0.00     0.036 H 
ATOM     32  H14 DVA d          38.637  54.282  93.606  0.00  0.00     0.036 H 
ATOM     33  H12 DVA d          39.063  52.690  95.369  0.00  0.00     0.087 H 
BRANCH  22  34
ATOM     34  CA  DVA d          38.314  49.751  95.286  0.00  0.00     0.178 C 
ATOM     35  H4  DVA d          38.745  50.523  95.941  0.00  0.00     0.099 H 
BRANCH  34  36
ATOM     36  N   DVA d          39.192  48.549  95.340  0.00  0.00    -0.066 N 
ATOM     37  H1  DVA d          39.354  48.209  94.405  0.00  0.00     0.275 HD
ATOM     38  H2  DVA d          38.744  47.830  95.886  0.00  0.00     0.275 HD
ATOM     39  H3  DVA d          40.072  48.795  95.765  0.00  0.00     0.275 HD
ENDBRANCH  34  36
BRANCH  34  40
ATOM     40  CB  DVA d          36.918  49.410  95.843  0.00  0.00    -0.025 C 
ATOM     41  H5  DVA d          36.226  49.238  95.005  0.00  0.00     0.042 H 
BRANCH  40  42
ATOM     42  CG1 DVA d          36.983  48.154  96.697  0.00  0.00    -0.071 C 
ATOM     43  H6  DVA d          37.135  48.433  97.749  0.00  0.00     0.028 H 
ATOM     44  H7  DVA d          37.820  47.524  96.360  0.00  0.00     0.028 H 
ATOM     45  H8  DVA d          36.040  47.594  96.599  0.00  0.00     0.028 H 
ENDBRANCH  40  42
BRANCH  40  46
ATOM     46  CG2 DVA d          36.416  50.590  96.679  0.00  0.00    -0.071 C 
ATOM     47  H9  DVA d          35.838  50.214  97.535  0.00  0.00     0.028 H 
ATOM     48  H10 DVA d          35.775  51.233  96.057  0.00  0.00     0.028 H 
ATOM     49  H11 DVA d          37.274  51.172  97.043  0.00  0.00     0.028 H 
ENDBRANCH  40  46
ENDBRANCH  34  40
ENDBRANCH  22  34
ENDBRANCH  17  20
ENDBRANCH  13  16
ENDBRANCH  10  13
ENDBRANCH   7   9
BRANCH   7  50
ATOM     50  CB  DVA d          43.909  57.042  94.000  0.00  0.00     0.044 C 
ATOM     51  H24 DVA d          43.823  56.643  95.022  0.00  0.00     0.077 H 
ATOM     52  H25 DVA d          42.974  57.551  93.725  0.00  0.00     0.077 H 
BRANCH  50  53
ATOM     53  OG  DVA d          44.981  57.968  93.948  0.00  0.00    -0.398 OA
ATOM     54  H26 DVA d          45.719  57.625  94.438  0.00  0.00     0.209 HD
ENDBRANCH  50  53
ENDBRANCH   7  50
ENDBRANCH   4   7
ENDBRANCH   1   3
BRANCH   1  55
ATOM     55  C   DVA d          42.901  54.506  88.600  0.00  0.00     0.241 C 
ATOM     56  O   DVA d          42.169  53.516  88.498  0.00  0.00    -0.271 OA
ATOM     57  N   DVA d          43.994  54.682  87.855  0.00  0.00    -0.346 N 
ATOM     58  H35 DVA d          44.529  55.520  87.966  0.00  0.00     0.163 HD
BRANCH  57  59
ATOM     59  CA  DVA d          44.433  53.671  86.870  0.00  0.00     0.094 C 
ATOM     60  H36 DVA d          44.910  54.202  86.033  0.00  0.00     0.088 H 
BRANCH  59  61
ATOM     61  C   DVA d          45.392  52.657  87.424  0.00  0.00     0.241 C 
ATOM     62  O   DVA d          45.186  52.149  88.535  0.00  0.00    -0.271 OA
ATOM     63  N   DVA d          46.452  52.391  86.668  0.00  0.00    -0.346 N 
ATOM     64  H42 DVA d          46.517  52.780  85.749  0.00  0.00     0.163 HD
BRANCH  63  65
ATOM     65  CA  DVA d          47.525  51.534  87.171  0.00  0.00     0.093 C 
ATOM     66  H43 DVA d          48.359  51.597  86.457  0.00  0.00     0.088 H 
BRANCH  65  67
ATOM     67  C   DVA d          48.080  51.906  88.540  0.00  0.00     0.241 C 
ATOM     68  O   DVA d          48.762  51.092  89.169  0.00  0.00    -0.271 OA
ATOM     69  N   DVA d          47.775  53.121  88.992  0.00  0.00    -0.345 N 
ATOM     70  H51 DVA d          47.203  53.717  88.429  0.00  0.00     0.163 HD
BRANCH  69  71
ATOM     71  CA  DVA d          48.253  53.612  90.292  0.00  0.00     0.098 C 
ATOM     72  H52 DVA d          49.249  53.177  90.467  0.00  0.00     0.088 H 
BRANCH  71  73
ATOM     73  C   DVA d          48.373  55.132  90.379  0.00  0.00     0.241 C 
ATOM     74  O   DVA d          49.304  55.739  89.833  0.00  0.00    -0.271 OA
ATOM     75  N   DVA d          47.388  55.711  91.068  0.00  0.00    -0.343 N 
ATOM     76  H55 DVA d          46.703  55.104  91.472  0.00  0.00     0.163 HD
BRANCH  75  77
ATOM     77  CA  DVA d          47.209  57.148  91.289  0.00  0.00     0.116 C 
ATOM     78  H56 DVA d          46.478  57.252  92.104  0.00  0.00     0.093 H 
BRANCH  77  79
ATOM     79  C   DVA d          48.476  57.863  91.736  0.00  0.00     0.198 C 
ATOM     80  O   DVA d          48.997  57.531  92.821  0.00  0.00    -0.646 OA
ATOM     81  OXT DVA d          48.931  58.750  90.977  0.00  0.00    -0.646 OA
ENDBRANCH  77  79
BRANCH  77  82
ATOM     82  CB  DVA d          46.620  57.839  90.053  0.00  0.00     0.045 C 
ATOM     83  H57 DVA d          47.437  58.102  89.365  0.00  0.00     0.077 H 
ATOM     84  H58 DVA d          46.096  58.753  90.368  0.00  0.00     0.077 H 
BRANCH  82  85
ATOM     85  OG  DVA d          45.702  56.985  89.380  0.00  0.00    -0.398 OA
ATOM     86  H59 DVA d          46.102  56.658  88.583  0.00  0.00     0.209 HD
ENDBRANCH  82  85
ENDBRANCH  77  82
ENDBRANCH  75  77
ENDBRANCH  71  73
BRANCH  71  87
ATOM     87  CB  DVA d          47.312  53.164  91.412  0.00  0.00     0.043 C 
ATOM     88  H53 DVA d          46.429  52.688  90.961  0.00  0.00     0.052 H 
ATOM     89  H54 DVA d          46.999  54.050  91.984  0.00  0.00     0.052 H 
BRANCH  87  90
ATOM     90  CG  DVA d          47.958  52.184  92.356  0.00  0.00     0.175 C 
ATOM     91  OD1 DVA d          47.442  51.053  92.488  0.00  0.00    -0.648 OA
ATOM     92  OD2 DVA d          48.989  52.535  92.953  0.00  0.00    -0.648 OA
ENDBRANCH  87  90
ENDBRANCH  71  87
ENDBRANCH  69  71
ENDBRANCH  65  67
BRANCH  65  93
ATOM     93  CB  DVA d          47.008  50.092  87.191  0.00  0.00    -0.014 C 
ATOM     94  H44 DVA d          46.384  49.954  88.087  0.00  0.00     0.043 H 
ATOM     95  H45 DVA d          47.870  49.410  87.236  0.00  0.00     0.043 H 
BRANCH  93  96
ATOM     96  CG  DVA d          46.179  49.746  85.964  0.00  0.00    -0.056 A 
ATOM     97  CD1 DVA d          44.888  49.223  86.095  0.00  0.00    -0.074 A 
ATOM     98  CE1 DVA d          44.117  48.865  84.976  0.00  0.00    -0.051 A 
ATOM     99  H46 DVA d          44.471  49.091  87.087  0.00  0.00     0.084 H 
ATOM    100  CZ  DVA d          44.665  49.046  83.691  0.00  0.00     0.065 A 
ATOM    101  H48 DVA d          43.120  48.457  85.100  0.00  0.00     0.087 H 
ATOM    102  CE2 DVA d          45.943  49.562  83.541  0.00  0.00    -0.051 A 
ATOM    103  CD2 DVA d          46.701  49.911  84.674  0.00  0.00    -0.074 A 
ATOM    104  H49 DVA d          46.360  49.697  82.549  0.00  0.00     0.087 H 
ATOM    105  H47 DVA d          47.700  50.313  84.547  0.00  0.00     0.084 H 
BRANCH 100 106
ATOM    106  OH  DVA d          43.936  48.730  82.566  0.00  0.00    -0.361 OA
ATOM    107  H50 DVA d          43.173  49.294  82.516  0.00  0.00     0.217 HD
ENDBRANCH 100 106
ENDBRANCH  93  96
ENDBRANCH  65  93
ENDBRANCH  63  65
ENDBRANCH  59  61
BRANCH  59 108
ATOM    108  CB  DVA d          43.263  52.835  86.347  0.00  0.00     0.004 C 
ATOM    109  H37 DVA d          42.327  53.338  86.630  0.00  0.00     0.046 H 
ATOM    110  H38 DVA d          43.306  51.845  86.826  0.00  0.00     0.046 H 
BRANCH 108 111
ATOM    111  CG  DVA d          43.258  52.636  84.862  0.00  0.00     0.053 A 
ATOM    112  ND1 DVA d          44.367  52.865  84.071  0.00  0.00    -0.247 NA
ATOM    113  CE1 DVA d          44.072  52.579  82.810  0.00  0.00     0.064 A 
ATOM    114  NE2 DVA d          42.807  52.178  82.758  0.00  0.00    -0.359 N 
ATOM    115  H40 DVA d          44.750  52.660  81.962  0.00  0.00     0.143 H 
ATOM    116  CD2 DVA d          42.279  52.208  84.030  0.00  0.00     0.002 A 
ATOM    117  H41 DVA d          42.304  51.892  81.906  0.00  0.00     0.166 HD
ATOM    118  H39 DVA d          41.263  51.938  84.314  0.00  0.00     0.114 H 
ENDBRANCH 108 111
ENDBRANCH  59 108
ENDBRANCH  57  59
ENDBRANCH   1  55
BRANCH   1 119
ATOM    119  CB  DVA d          41.066  55.779  89.751  0.00  0.00    -0.030 C 
ATOM    120  H29 DVA d          40.850  56.297  90.698  0.00  0.00     0.037 H 
ATOM    121  H30 DVA d          40.590  54.786  89.759  0.00  0.00     0.037 H 
BRANCH 119 122
ATOM    122  CG  DVA d          40.489  56.608  88.578  0.00  0.00     0.011 C 
ATOM    123  H31 DVA d          39.607  56.082  88.185  0.00  0.00     0.047 H 
ATOM    124  H32 DVA d          41.257  56.674  87.792  0.00  0.00     0.047 H 
BRANCH 122 125
ATOM    125  CD  DVA d          40.067  58.037  88.962  0.00  0.00     0.215 C 
ATOM    126  OE1 DVA d          38.998  58.521  88.547  0.00  0.00    -0.274 OA
ATOM    127  NE2 DVA d          40.887  58.701  89.750  0.00  0.00    -0.370 N 
ATOM    128  H33 DVA d          40.663  59.634  90.032  0.00  0.00     0.159 HD
ATOM    129  H34 DVA d          41.733  58.273  90.067  0.00  0.00     0.159 HD
ENDBRANCH 122 125
ENDBRANCH 119 122
ENDBRANCH   1 119
TORSDOF 34
ENDMDL
MODEL 6
REMARK VINA RESULT:      -3.7      2.697      8.329
REMARK WARNING: 32 MAX_TORS EXCEEDED!!!
REMARK  34 active torsions:
REMARK  status: ('A' for Active; 'I' for Inactive)
REMARK    1  A    between atoms: N_1  and  CA_2 
REMARK    2  A    between atoms: CA_2  and  CB_3 
REMARK    3  A    between atoms: CA_2  and  C_6 
REMARK    4  A    between atoms: CB_3  and  CG1_4 
REMARK    5  A    between atoms: CB_3  and  CG2_5 
REMARK       I    between atoms: C_6  and  N_8 
REMARK    6  A    between atoms: CA_9  and  C_13 
REMARK       I    between atoms: C_13  and  N_15 
REMARK    7  A    between atoms: N_15  and  CA_16 
REMARK    8  A    between atoms: CA_16  and  C_17 
REMARK       I    between atoms: C_17  and  N_19 
REMARK    9  A    between atoms: N_19  and  CA_20 
REMARK   10  A    between atoms: CA_20  and  C_21 
REMARK   11  A    between atoms: CA_20  and  CB_23 
REMARK       I    between atoms: C_21  and  N_25 
REMARK   12  A    between atoms: CB_23  and  OG_24 
REMARK   13  A    between atoms: N_25  and  CA_26 
REMARK   14  A    between atoms: CA_26  and  C_27 
REMARK   15  A    between atoms: CA_26  and  CB_29 
REMARK       I    between atoms: C_27  and  N_34 
REMARK   16  A    between atoms: CB_29  and  CG_30 
REMARK   17  A    between atoms: CG_30  and  CD_31 
REMARK       I    between atoms: CD_31  and  NE2_33 
REMARK   18  A    between atoms: N_34  and  CA_35 
REMARK   19  A    between atoms: CA_35  and  C_36 
REMARK   20  A    between atoms: CA_35  and  CB_38 
REMARK       I    between atoms: C_36  and  N_44 
REMARK   21  A    between atoms: CB_38  and  CG_39 
REMARK   22  A    between atoms: N_44  and  CA_45 
REMARK   23  A    between atoms: CA_45  and  C_46 
REMARK   24  A    between atoms: CA_45  and  CB_48 
REMARK       I    between atoms: C_46  and  N_56 
REMARK   25  A    between atoms: CB_48  and  CG_49 
REMARK   26  A    between atoms: CZ_54  and  OH_55 
REMARK   27  A    between atoms: N_56  and  CA_57 
REMARK   28  A    between atoms: CA_57  and  C_58 
REMARK   29  A    between atoms: CA_57  and  CB_60 
REMARK       I    between atoms: C_58  and  N_64 
REMARK   30  A    between atoms: CB_60  and  CG_61 
REMARK   31  A    between atoms: N_64  and  CA_65 
REMARK   32  A    between atoms: CA_65  and  C_66 
REMARK   33  A    between atoms: CA_65  and  CB_69 
REMARK   34  A    between atoms: CB_69  and  OG_70 
ROOT
ATOM      1  CA  DVA d          42.151  54.928  89.433  0.00  0.00     0.090 C 
ATOM      2  H28 DVA d          42.103  53.904  89.833  0.00  0.00     0.087 H 
ENDROOT
BRANCH   1   3
ATOM      3  N   DVA d          42.107  54.867  87.982  0.00  0.00    -0.346 N 
ATOM      4  C   DVA d          42.196  53.693  87.383  0.00  0.00     0.243 C 
ATOM      5  O   DVA d          42.298  52.648  88.006  0.00  0.00    -0.271 OA
ATOM      6  H27 DVA d          42.012  55.704  87.443  0.00  0.00     0.163 HD
BRANCH   4   7
ATOM      7  CA  DVA d          42.192  53.687  85.867  0.00  0.00     0.109 C 
ATOM      8  H23 DVA d          41.924  52.694  85.477  0.00  0.00     0.090 H 
BRANCH   7   9
ATOM      9  N   DVA d          43.516  54.061  85.423  0.00  0.00    -0.344 N 
ATOM     10  C   DVA d          43.826  54.143  84.139  0.00  0.00     0.236 C 
ATOM     11  O   DVA d          43.022  53.916  83.235  0.00  0.00    -0.272 OA
ATOM     12  H22 DVA d          44.218  54.262  86.106  0.00  0.00     0.163 HD
BRANCH  10  13
ATOM     13  CA  DVA d          45.245  54.540  83.823  0.00  0.00     0.069 C 
ATOM     14  H20 DVA d          45.330  54.818  82.762  0.00  0.00     0.078 H 
ATOM     15  H21 DVA d          45.546  55.392  84.450  0.00  0.00     0.078 H 
BRANCH  13  16
ATOM     16  N   DVA d          46.082  53.400  84.104  0.00  0.00    -0.351 N 
ATOM     17  C   DVA d          47.250  53.542  84.715  0.00  0.00     0.241 C 
ATOM     18  O   DVA d          47.690  54.632  85.093  0.00  0.00    -0.271 OA
ATOM     19  H19 DVA d          45.777  52.487  83.834  0.00  0.00     0.163 HD
BRANCH  17  20
ATOM     20  CA  DVA d          48.024  52.245  84.939  0.00  0.00     0.091 C 
ATOM     21  N   DVA d          47.716  51.685  86.264  0.00  0.00    -0.337 N 
ATOM     22  C   DVA d          46.663  51.002  86.782  0.00  0.00     0.251 C 
ATOM     23  CD  DVA d          48.837  51.946  87.189  0.00  0.00    -0.001 C 
ATOM     24  O   DVA d          46.636  50.670  87.973  0.00  0.00    -0.271 OA
ATOM     25  CG  DVA d          49.679  52.948  86.421  0.00  0.00    -0.048 C 
ATOM     26  H17 DVA d          49.405  51.027  87.394  0.00  0.00     0.064 H 
ATOM     27  H18 DVA d          48.477  52.375  88.136  0.00  0.00     0.064 H 
ATOM     28  CB  DVA d          49.524  52.488  85.014  0.00  0.00    -0.036 C 
ATOM     29  H15 DVA d          49.296  53.971  86.549  0.00  0.00     0.035 H 
ATOM     30  H16 DVA d          50.731  52.908  86.738  0.00  0.00     0.035 H 
ATOM     31  H13 DVA d          49.842  53.264  84.301  0.00  0.00     0.036 H 
ATOM     32  H14 DVA d          50.092  51.564  84.828  0.00  0.00     0.036 H 
ATOM     33  H12 DVA d          47.781  51.530  84.138  0.00  0.00     0.087 H 
BRANCH  22  34
ATOM     34  CA  DVA d          45.451  50.669  85.880  0.00  0.00     0.178 C 
ATOM     35  H4  DVA d          45.369  51.471  85.132  0.00  0.00     0.099 H 
BRANCH  34  36
ATOM     36  N   DVA d          44.212  50.676  86.708  0.00  0.00    -0.066 N 
ATOM     37  H1  DVA d          44.177  49.838  87.267  0.00  0.00     0.275 HD
ATOM     38  H2  DVA d          43.405  50.710  86.104  0.00  0.00     0.275 HD
ATOM     39  H3  DVA d          44.215  51.483  87.311  0.00  0.00     0.275 HD
ENDBRANCH  34  36
BRANCH  34  40
ATOM     40  CB  DVA d          45.565  49.338  85.112  0.00  0.00    -0.025 C 
ATOM     41  H5  DVA d          46.349  48.719  85.573  0.00  0.00     0.042 H 
BRANCH  40  42
ATOM     42  CG1 DVA d          44.246  48.584  85.163  0.00  0.00    -0.071 C 
ATOM     43  H6  DVA d          43.871  48.432  84.141  0.00  0.00     0.028 H 
ATOM     44  H7  DVA d          43.512  49.166  85.740  0.00  0.00     0.028 H 
ATOM     45  H8  DVA d          44.400  47.607  85.646  0.00  0.00     0.028 H 
ENDBRANCH  40  42
BRANCH  40  46
ATOM     46  CG2 DVA d          45.946  49.636  83.659  0.00  0.00    -0.071 C 
ATOM     47  H9  DVA d          45.674  50.674  83.414  0.00  0.00     0.028 H 
ATOM     48  H10 DVA d          45.409  48.948  82.991  0.00  0.00     0.028 H 
ATOM     49  H11 DVA d          47.030  49.502  83.530  0.00  0.00     0.028 H 
ENDBRANCH  40  46
ENDBRANCH  34  40
ENDBRANCH  22  34
ENDBRANCH  17  20
ENDBRANCH  13  16
ENDBRANCH  10  13
ENDBRANCH   7   9
BRANCH   7  50
ATOM     50  CB  DVA d          41.174  54.730  85.415  0.00  0.00     0.044 C 
ATOM     51  H24 DVA d          41.703  55.586  84.970  0.00  0.00     0.077 H 
ATOM     52  H25 DVA d          40.592  55.070  86.284  0.00  0.00     0.077 H 
BRANCH  50  53
ATOM     53  OG  DVA d          40.297  54.170  84.452  0.00  0.00    -0.398 OA
ATOM     54  H26 DVA d          40.657  54.303  83.583  0.00  0.00     0.209 HD
ENDBRANCH  50  53
ENDBRANCH   7  50
ENDBRANCH   4   7
ENDBRANCH   1   3
BRANCH   1  55
ATOM     55  C   DVA d          43.451  55.575  89.904  0.00  0.00     0.241 C 
ATOM     56  O   DVA d          43.435  56.460  90.766  0.00  0.00    -0.271 OA
ATOM     57  N   DVA d          44.574  55.132  89.337  0.00  0.00    -0.346 N 
ATOM     58  H35 DVA d          44.521  54.392  88.666  0.00  0.00     0.163 HD
BRANCH  57  59
ATOM     59  CA  DVA d          45.894  55.706  89.675  0.00  0.00     0.094 C 
ATOM     60  H36 DVA d          45.729  56.724  90.057  0.00  0.00     0.088 H 
BRANCH  59  61
ATOM     61  C   DVA d          46.660  54.913  90.694  0.00  0.00     0.241 C 
ATOM     62  O   DVA d          47.779  54.460  90.416  0.00  0.00    -0.271 OA
ATOM     63  N   DVA d          46.045  54.717  91.855  0.00  0.00    -0.346 N 
ATOM     64  H42 DVA d          45.175  55.174  92.040  0.00  0.00     0.163 HD
BRANCH  63  65
ATOM     65  CA  DVA d          46.631  53.837  92.865  0.00  0.00     0.093 C 
ATOM     66  H43 DVA d          47.703  53.743  92.638  0.00  0.00     0.088 H 
BRANCH  65  67
ATOM     67  C   DVA d          46.522  54.320  94.306  0.00  0.00     0.241 C 
ATOM     68  O   DVA d          45.784  55.270  94.583  0.00  0.00    -0.271 OA
ATOM     69  N   DVA d          47.263  53.674  95.204  0.00  0.00    -0.345 N 
ATOM     70  H51 DVA d          47.850  52.924  94.899  0.00  0.00     0.163 HD
BRANCH  69  71
ATOM     71  CA  DVA d          47.248  54.030  96.630  0.00  0.00     0.098 C 
ATOM     72  H52 DVA d          48.005  53.412  97.136  0.00  0.00     0.088 H 
BRANCH  71  73
ATOM     73  C   DVA d          47.565  55.498  96.911  0.00  0.00     0.241 C 
ATOM     74  O   DVA d          48.702  55.957  96.743  0.00  0.00    -0.271 OA
ATOM     75  N   DVA d          46.512  56.207  97.323  0.00  0.00    -0.343 N 
ATOM     76  H55 DVA d          45.650  55.711  97.431  0.00  0.00     0.163 HD
BRANCH  75  77
ATOM     77  CA  DVA d          46.494  57.638  97.630  0.00  0.00     0.116 C 
ATOM     78  H56 DVA d          47.542  57.945  97.762  0.00  0.00     0.093 H 
BRANCH  77  79
ATOM     79  C   DVA d          45.917  58.499  96.515  0.00  0.00     0.198 C 
ATOM     80  O   DVA d          46.464  58.467  95.394  0.00  0.00    -0.646 OA
ATOM     81  OXT DVA d          44.911  59.194  96.790  0.00  0.00    -0.646 OA
ENDBRANCH  77  79
BRANCH  77  82
ATOM     82  CB  DVA d          45.763  57.922  98.948  0.00  0.00     0.045 C 
ATOM     83  H57 DVA d          45.608  59.006  99.048  0.00  0.00     0.077 H 
ATOM     84  H58 DVA d          46.378  57.560  99.786  0.00  0.00     0.077 H 
BRANCH  82  85
ATOM     85  OG  DVA d          44.500  57.267  98.983  0.00  0.00    -0.398 OA
ATOM     86  H59 DVA d          44.578  56.457  99.473  0.00  0.00     0.209 HD
ENDBRANCH  82  85
ENDBRANCH  77  82
ENDBRANCH  75  77
ENDBRANCH  71  73
BRANCH  71  87
ATOM     87  CB  DVA d          45.876  53.735  97.240  0.00  0.00     0.043 C 
ATOM     88  H53 DVA d          45.116  53.808  96.449  0.00  0.00     0.052 H 
ATOM     89  H54 DVA d          45.669  54.484  98.019  0.00  0.00     0.052 H 
BRANCH  87  90
ATOM     90  CG  DVA d          45.799  52.364  97.858  0.00  0.00     0.175 C 
ATOM     91  OD1 DVA d          45.309  52.252  99.003  0.00  0.00    -0.648 OA
ATOM     92  OD2 DVA d          46.212  51.396  97.198  0.00  0.00    -0.648 OA
ENDBRANCH  87  90
ENDBRANCH  71  87
ENDBRANCH  69  71
ENDBRANCH  65  67
BRANCH  65  93
ATOM     93  CB  DVA d          45.980  52.457  92.727  0.00  0.00    -0.014 C 
ATOM     94  H44 DVA d          46.526  51.745  93.363  0.00  0.00     0.043 H 
ATOM     95  H45 DVA d          46.050  52.140  91.676  0.00  0.00     0.043 H 
BRANCH  93  96
ATOM     96  CG  DVA d          44.516  52.453  93.139  0.00  0.00    -0.056 A 
ATOM     97  CD1 DVA d          43.527  52.938  92.277  0.00  0.00    -0.074 A 
ATOM     98  CE1 DVA d          42.173  52.975  92.650  0.00  0.00    -0.051 A 
ATOM     99  H46 DVA d          43.813  53.295  91.294  0.00  0.00     0.084 H 
ATOM    100  CZ  DVA d          41.809  52.503  93.926  0.00  0.00     0.065 A 
ATOM    101  H48 DVA d          41.422  53.359  91.968  0.00  0.00     0.087 H 
ATOM    102  CE2 DVA d          42.775  52.019  94.795  0.00  0.00    -0.051 A 
ATOM    103  CD2 DVA d          44.126  51.994  94.405  0.00  0.00    -0.074 A 
ATOM    104  H49 DVA d          42.489  51.659  95.777  0.00  0.00     0.087 H 
ATOM    105  H47 DVA d          44.875  51.615  95.092  0.00  0.00     0.084 H 
BRANCH 100 106
ATOM    106  OH  DVA d          40.491  52.499  94.324  0.00  0.00    -0.361 OA
ATOM    107  H50 DVA d          40.248  51.624  94.602  0.00  0.00     0.217 HD
ENDBRANCH 100 106
ENDBRANCH  93  96
ENDBRANCH  65  93
ENDBRANCH  63  65
ENDBRANCH  59  61
BRANCH  59 108
ATOM    108  CB  DVA d          46.824  55.756  88.462  0.00  0.00     0.004 C 
ATOM    109  H37 DVA d          46.721  54.810  87.910  0.00  0.00     0.046 H 
ATOM    110  H38 DVA d          47.858  55.858  88.824  0.00  0.00     0.046 H 
BRANCH 108 111
ATOM    111  CG  DVA d          46.546  56.884  87.514  0.00  0.00     0.053 A 
ATOM    112  ND1 DVA d          47.334  58.017  87.446  0.00  0.00    -0.247 NA
ATOM    113  CE1 DVA d          46.862  58.820  86.503  0.00  0.00     0.064 A 
ATOM    114  NE2 DVA d          45.793  58.248  85.962  0.00  0.00    -0.359 N 
ATOM    115  H40 DVA d          47.280  59.786  86.220  0.00  0.00     0.143 H 
ATOM    116  CD2 DVA d          45.577  57.037  86.581  0.00  0.00     0.002 A 
ATOM    117  H41 DVA d          45.220  58.645  85.204  0.00  0.00     0.166 HD
ATOM    118  H39 DVA d          44.775  56.333  86.361  0.00  0.00     0.114 H 
ENDBRANCH 108 111
ENDBRANCH  59 108
ENDBRANCH  57  59
ENDBRANCH   1  55
BRANCH   1 119
ATOM    119  CB  DVA d          40.943  55.718  89.951  0.00  0.00    -0.030 C 
ATOM    120  H29 DVA d          41.239  56.281  90.849  0.00  0.00     0.037 H 
ATOM    121  H30 DVA d          40.136  55.015  90.209  0.00  0.00     0.037 H 
BRANCH 119 122
ATOM    122  CG  DVA d          40.426  56.710  88.880  0.00  0.00     0.011 C 
ATOM    123  H31 DVA d          39.335  56.595  88.800  0.00  0.00     0.047 H 
ATOM    124  H32 DVA d          40.893  56.453  87.917  0.00  0.00     0.047 H 
BRANCH 122 125
ATOM    125  CD  DVA d          40.734  58.187  89.186  0.00  0.00     0.215 C 
ATOM    126  OE1 DVA d          41.685  58.769  88.634  0.00  0.00    -0.274 OA
ATOM    127  NE2 DVA d          39.937  58.788  90.045  0.00  0.00    -0.370 N 
ATOM    128  H33 DVA d          40.090  59.748  90.281  0.00  0.00     0.159 HD
ATOM    129  H34 DVA d          39.179  58.286  90.461  0.00  0.00     0.159 HD
ENDBRANCH 122 125
ENDBRANCH 119 122
ENDBRANCH   1 119
TORSDOF 34
ENDMDL
MODEL 7
REMARK VINA RESULT:      -3.7      2.564      6.904
REMARK WARNING: 32 MAX_TORS EXCEEDED!!!
REMARK  34 active torsions:
REMARK  status: ('A' for Active; 'I' for Inactive)
REMARK    1  A    between atoms: N_1  and  CA_2 
REMARK    2  A    between atoms: CA_2  and  CB_3 
REMARK    3  A    between atoms: CA_2  and  C_6 
REMARK    4  A    between atoms: CB_3  and  CG1_4 
REMARK    5  A    between atoms: CB_3  and  CG2_5 
REMARK       I    between atoms: C_6  and  N_8 
REMARK    6  A    between atoms: CA_9  and  C_13 
REMARK       I    between atoms: C_13  and  N_15 
REMARK    7  A    between atoms: N_15  and  CA_16 
REMARK    8  A    between atoms: CA_16  and  C_17 
REMARK       I    between atoms: C_17  and  N_19 
REMARK    9  A    between atoms: N_19  and  CA_20 
REMARK   10  A    between atoms: CA_20  and  C_21 
REMARK   11  A    between atoms: CA_20  and  CB_23 
REMARK       I    between atoms: C_21  and  N_25 
REMARK   12  A    between atoms: CB_23  and  OG_24 
REMARK   13  A    between atoms: N_25  and  CA_26 
REMARK   14  A    between atoms: CA_26  and  C_27 
REMARK   15  A    between atoms: CA_26  and  CB_29 
REMARK       I    between atoms: C_27  and  N_34 
REMARK   16  A    between atoms: CB_29  and  CG_30 
REMARK   17  A    between atoms: CG_30  and  CD_31 
REMARK       I    between atoms: CD_31  and  NE2_33 
REMARK   18  A    between atoms: N_34  and  CA_35 
REMARK   19  A    between atoms: CA_35  and  C_36 
REMARK   20  A    between atoms: CA_35  and  CB_38 
REMARK       I    between atoms: C_36  and  N_44 
REMARK   21  A    between atoms: CB_38  and  CG_39 
REMARK   22  A    between atoms: N_44  and  CA_45 
REMARK   23  A    between atoms: CA_45  and  C_46 
REMARK   24  A    between atoms: CA_45  and  CB_48 
REMARK       I    between atoms: C_46  and  N_56 
REMARK   25  A    between atoms: CB_48  and  CG_49 
REMARK   26  A    between atoms: CZ_54  and  OH_55 
REMARK   27  A    between atoms: N_56  and  CA_57 
REMARK   28  A    between atoms: CA_57  and  C_58 
REMARK   29  A    between atoms: CA_57  and  CB_60 
REMARK       I    between atoms: C_58  and  N_64 
REMARK   30  A    between atoms: CB_60  and  CG_61 
REMARK   31  A    between atoms: N_64  and  CA_65 
REMARK   32  A    between atoms: CA_65  and  C_66 
REMARK   33  A    between atoms: CA_65  and  CB_69 
REMARK   34  A    between atoms: CB_69  and  OG_70 
ROOT
ATOM      1  CA  DVA d          45.816  54.618  93.675  0.00  0.00     0.090 C 
ATOM      2  H28 DVA d          46.687  54.404  93.038  0.00  0.00     0.087 H 
ENDROOT
BRANCH   1   3
ATOM      3  N   DVA d          45.562  53.466  94.525  0.00  0.00    -0.346 N 
ATOM      4  C   DVA d          46.411  52.454  94.509  0.00  0.00     0.243 C 
ATOM      5  O   DVA d          47.416  52.455  93.815  0.00  0.00    -0.271 OA
ATOM      6  H27 DVA d          44.754  53.439  95.114  0.00  0.00     0.163 HD
BRANCH   4   7
ATOM      7  CA  DVA d          46.077  51.257  95.378  0.00  0.00     0.109 C 
ATOM      8  H23 DVA d          46.362  50.318  94.881  0.00  0.00     0.090 H 
BRANCH   7   9
ATOM      9  N   DVA d          44.654  51.281  95.629  0.00  0.00    -0.344 N 
ATOM     10  C   DVA d          43.956  50.170  95.807  0.00  0.00     0.236 C 
ATOM     11  O   DVA d          44.458  49.046  95.777  0.00  0.00    -0.272 OA
ATOM     12  H22 DVA d          44.182  52.162  95.670  0.00  0.00     0.163 HD
BRANCH  10  13
ATOM     13  CA  DVA d          42.481  50.346  96.057  0.00  0.00     0.069 C 
ATOM     14  H20 DVA d          41.950  49.403  95.855  0.00  0.00     0.078 H 
ATOM     15  H21 DVA d          42.309  50.646  97.101  0.00  0.00     0.078 H 
BRANCH  13  16
ATOM     16  N   DVA d          42.014  51.377  95.163  0.00  0.00    -0.351 N 
ATOM     17  C   DVA d          40.755  51.791  95.193  0.00  0.00     0.241 C 
ATOM     18  O   DVA d          39.913  51.347  95.979  0.00  0.00    -0.271 OA
ATOM     19  H19 DVA d          42.651  51.787  94.510  0.00  0.00     0.163 HD
BRANCH  17  20
ATOM     20  CA  DVA d          40.411  52.885  94.185  0.00  0.00     0.091 C 
ATOM     21  N   DVA d          39.029  53.348  94.381  0.00  0.00    -0.337 N 
ATOM     22  C   DVA d          38.422  54.162  95.284  0.00  0.00     0.251 C 
ATOM     23  CD  DVA d          38.158  52.780  93.334  0.00  0.00    -0.001 C 
ATOM     24  O   DVA d          37.202  54.364  95.248  0.00  0.00    -0.271 OA
ATOM     25  CG  DVA d          39.042  51.723  92.699  0.00  0.00    -0.048 C 
ATOM     26  H17 DVA d          37.868  53.546  92.600  0.00  0.00     0.064 H 
ATOM     27  H18 DVA d          37.254  52.330  93.771  0.00  0.00     0.064 H 
ATOM     28  CB  DVA d          40.390  52.351  92.759  0.00  0.00    -0.036 C 
ATOM     29  H15 DVA d          39.014  50.785  93.272  0.00  0.00     0.035 H 
ATOM     30  H16 DVA d          38.742  51.526  91.659  0.00  0.00     0.035 H 
ATOM     31  H13 DVA d          41.186  51.610  92.596  0.00  0.00     0.036 H 
ATOM     32  H14 DVA d          40.488  53.164  92.024  0.00  0.00     0.036 H 
ATOM     33  H12 DVA d          41.127  53.714  94.284  0.00  0.00     0.087 H 
BRANCH  22  34
ATOM     34  CA  DVA d          39.261  54.815  96.408  0.00  0.00     0.178 C 
ATOM     35  H4  DVA d          40.312  54.799  96.084  0.00  0.00     0.099 H 
BRANCH  34  36
ATOM     36  N   DVA d          39.141  53.994  97.645  0.00  0.00    -0.066 N 
ATOM     37  H1  DVA d          38.573  54.482  98.319  0.00  0.00     0.275 HD
ATOM     38  H2  DVA d          40.059  53.833  98.032  0.00  0.00     0.275 HD
ATOM     39  H3  DVA d          38.712  53.110  97.421  0.00  0.00     0.275 HD
ENDBRANCH  34  36
BRANCH  34  40
ATOM     40  CB  DVA d          38.900  56.282  96.712  0.00  0.00    -0.025 C 
ATOM     41  H5  DVA d          37.805  56.391  96.722  0.00  0.00     0.042 H 
BRANCH  40  42
ATOM     42  CG1 DVA d          39.450  56.691  98.068  0.00  0.00    -0.071 C 
ATOM     43  H6  DVA d          40.189  57.495  97.937  0.00  0.00     0.028 H 
ATOM     44  H7  DVA d          39.933  55.825  98.545  0.00  0.00     0.028 H 
ATOM     45  H8  DVA d          38.628  57.049  98.705  0.00  0.00     0.028 H 
ENDBRANCH  40  42
BRANCH  40  46
ATOM     46  CG2 DVA d          39.486  57.174  95.614  0.00  0.00    -0.071 C 
ATOM     47  H9  DVA d          39.369  56.679  94.638  0.00  0.00     0.028 H 
ATOM     48  H10 DVA d          40.554  57.346  95.813  0.00  0.00     0.028 H 
ATOM     49  H11 DVA d          38.956  58.137  95.602  0.00  0.00     0.028 H 
ENDBRANCH  40  46
ENDBRANCH  34  40
ENDBRANCH  22  34
ENDBRANCH  17  20
ENDBRANCH  13  16
ENDBRANCH  10  13
ENDBRANCH   7   9
BRANCH   7  50
ATOM     50  CB  DVA d          46.843  51.423  96.686  0.00  0.00     0.044 C 
ATOM     51  H24 DVA d          47.623  50.649  96.752  0.00  0.00     0.077 H 
ATOM     52  H25 DVA d          46.147  51.315  97.532  0.00  0.00     0.077 H 
BRANCH  50  53
ATOM     53  OG  DVA d          47.449  52.704  96.737  0.00  0.00    -0.398 OA
ATOM     54  H26 DVA d          47.634  53.000  95.854  0.00  0.00     0.209 HD
ENDBRANCH  50  53
ENDBRANCH   7  50
ENDBRANCH   4   7
ENDBRANCH   1   3
BRANCH   1  55
ATOM     55  C   DVA d          44.613  54.898  92.778  0.00  0.00     0.241 C 
ATOM     56  O   DVA d          43.547  54.299  92.951  0.00  0.00    -0.271 OA
ATOM     57  N   DVA d          44.787  55.811  91.821  0.00  0.00    -0.346 N 
ATOM     58  H35 DVA d          45.666  56.282  91.751  0.00  0.00     0.163 HD
BRANCH  57  59
ATOM     59  CA  DVA d          43.713  56.143  90.860  0.00  0.00     0.094 C 
ATOM     60  H36 DVA d          43.932  57.136  90.442  0.00  0.00     0.088 H 
BRANCH  59  61
ATOM     61  C   DVA d          43.571  55.154  89.739  0.00  0.00     0.241 C 
ATOM     62  O   DVA d          42.721  54.255  89.807  0.00  0.00    -0.271 OA
ATOM     63  N   DVA d          44.424  55.298  88.730  0.00  0.00    -0.346 N 
ATOM     64  H42 DVA d          45.033  56.090  88.705  0.00  0.00     0.163 HD
BRANCH  63  65
ATOM     65  CA  DVA d          44.476  54.307  87.657  0.00  0.00     0.093 C 
ATOM     66  H43 DVA d          45.040  54.752  86.824  0.00  0.00     0.088 H 
BRANCH  65  67
ATOM     67  C   DVA d          45.161  52.991  88.006  0.00  0.00     0.241 C 
ATOM     68  O   DVA d          44.825  52.372  89.019  0.00  0.00    -0.271 OA
ATOM     69  N   DVA d          46.119  52.585  87.175  0.00  0.00    -0.345 N 
ATOM     70  H51 DVA d          46.346  53.151  86.383  0.00  0.00     0.163 HD
BRANCH  69  71
ATOM     71  CA  DVA d          46.855  51.330  87.387  0.00  0.00     0.098 C 
ATOM     72  H52 DVA d          46.734  51.048  88.443  0.00  0.00     0.088 H 
BRANCH  71  73
ATOM     73  C   DVA d          46.368  50.168  86.523  0.00  0.00     0.241 C 
ATOM     74  O   DVA d          46.142  49.052  87.010  0.00  0.00    -0.271 OA
ATOM     75  N   DVA d          46.202  50.485  85.238  0.00  0.00    -0.343 N 
ATOM     76  H55 DVA d          46.435  51.420  84.971  0.00  0.00     0.163 HD
BRANCH  75  77
ATOM     77  CA  DVA d          45.711  49.599  84.181  0.00  0.00     0.116 C 
ATOM     78  H56 DVA d          45.701  48.582  84.601  0.00  0.00     0.093 H 
BRANCH  77  79
ATOM     79  C   DVA d          44.290  49.907  83.731  0.00  0.00     0.198 C 
ATOM     80  O   DVA d          44.123  50.718  82.797  0.00  0.00    -0.646 OA
ATOM     81  OXT DVA d          43.360  49.316  84.328  0.00  0.00    -0.646 OA
ENDBRANCH  77  79
BRANCH  77  82
ATOM     82  CB  DVA d          46.656  49.586  82.973  0.00  0.00     0.045 C 
ATOM     83  H57 DVA d          46.082  49.334  82.069  0.00  0.00     0.077 H 
ATOM     84  H58 DVA d          47.437  48.828  83.135  0.00  0.00     0.077 H 
BRANCH  82  85
ATOM     85  OG  DVA d          47.272  50.856  82.793  0.00  0.00    -0.398 OA
ATOM     86  H59 DVA d          46.938  51.259  82.001  0.00  0.00     0.209 HD
ENDBRANCH  82  85
ENDBRANCH  77  82
ENDBRANCH  75  77
ENDBRANCH  71  73
BRANCH  71  87
ATOM     87  CB  DVA d          48.343  51.526  87.091  0.00  0.00     0.043 C 
ATOM     88  H53 DVA d          48.730  50.613  86.615  0.00  0.00     0.052 H 
ATOM     89  H54 DVA d          48.871  51.696  88.041  0.00  0.00     0.052 H 
BRANCH  87  90
ATOM     90  CG  DVA d          48.605  52.695  86.179  0.00  0.00     0.175 C 
ATOM     91  OD1 DVA d          48.425  52.545  84.950  0.00  0.00    -0.648 OA
ATOM     92  OD2 DVA d          48.973  53.767  86.686  0.00  0.00    -0.648 OA
ENDBRANCH  87  90
ENDBRANCH  71  87
ENDBRANCH  69  71
ENDBRANCH  65  67
BRANCH  65  93
ATOM     93  CB  DVA d          43.042  54.040  87.188  0.00  0.00    -0.014 C 
ATOM     94  H44 DVA d          42.391  54.837  87.577  0.00  0.00     0.043 H 
ATOM     95  H45 DVA d          42.715  53.070  87.590  0.00  0.00     0.043 H 
BRANCH  93  96
ATOM     96  CG  DVA d          42.916  54.006  85.672  0.00  0.00    -0.056 A 
ATOM     97  CD1 DVA d          41.685  53.744  85.062  0.00  0.00    -0.074 A 
ATOM     98  CE1 DVA d          41.552  53.673  83.665  0.00  0.00    -0.051 A 
ATOM     99  H46 DVA d          40.810  53.591  85.683  0.00  0.00     0.084 H 
ATOM    100  CZ  DVA d          42.692  53.880  82.865  0.00  0.00     0.065 A 
ATOM    101  H48 DVA d          40.589  53.464  83.211  0.00  0.00     0.087 H 
ATOM    102  CE2 DVA d          43.922  54.140  83.452  0.00  0.00    -0.051 A 
ATOM    103  CD2 DVA d          44.035  54.202  84.853  0.00  0.00    -0.074 A 
ATOM    104  H49 DVA d          44.796  54.296  82.831  0.00  0.00     0.087 H 
ATOM    105  H47 DVA d          45.001  54.405  85.303  0.00  0.00     0.084 H 
BRANCH 100 106
ATOM    106  OH  DVA d          42.603  53.843  81.491  0.00  0.00    -0.361 OA
ATOM    107  H50 DVA d          42.610  54.730  81.151  0.00  0.00     0.217 HD
ENDBRANCH 100 106
ENDBRANCH  93  96
ENDBRANCH  65  93
ENDBRANCH  63  65
ENDBRANCH  59  61
BRANCH  59 108
ATOM    108  CB  DVA d          42.335  56.157  91.525  0.00  0.00     0.004 C 
ATOM    109  H37 DVA d          42.479  56.184  92.615  0.00  0.00     0.046 H 
ATOM    110  H38 DVA d          41.809  55.231  91.247  0.00  0.00     0.046 H 
BRANCH 108 111
ATOM    111  CG  DVA d          41.472  57.320  91.138  0.00  0.00     0.053 A 
ATOM    112  ND1 DVA d          41.469  57.861  89.867  0.00  0.00    -0.247 NA
ATOM    113  CE1 DVA d          40.592  58.854  89.817  0.00  0.00     0.064 A 
ATOM    114  NE2 DVA d          40.030  58.976  91.013  0.00  0.00    -0.359 N 
ATOM    115  H40 DVA d          40.369  59.464  88.943  0.00  0.00     0.143 H 
ATOM    116  CD2 DVA d          40.567  58.027  91.855  0.00  0.00     0.002 A 
ATOM    117  H41 DVA d          39.310  59.666  91.270  0.00  0.00     0.166 HD
ATOM    118  H39 DVA d          40.312  57.875  92.903  0.00  0.00     0.114 H 
ENDBRANCH 108 111
ENDBRANCH  59 108
ENDBRANCH  57  59
ENDBRANCH   1  55
BRANCH   1 119
ATOM    119  CB  DVA d          46.128  55.840  94.547  0.00  0.00    -0.030 C 
ATOM    120  H29 DVA d          46.187  55.525  95.600  0.00  0.00     0.037 H 
ATOM    121  H30 DVA d          45.323  56.581  94.430  0.00  0.00     0.037 H 
BRANCH 119 122
ATOM    122  CG  DVA d          47.474  56.487  94.137  0.00  0.00     0.011 C 
ATOM    123  H31 DVA d          47.940  55.855  93.368  0.00  0.00     0.047 H 
ATOM    124  H32 DVA d          48.124  56.525  95.025  0.00  0.00     0.047 H 
BRANCH 122 125
ATOM    125  CD  DVA d          47.343  57.914  93.574  0.00  0.00     0.215 C 
ATOM    126  OE1 DVA d          46.989  58.858  94.303  0.00  0.00    -0.274 OA
ATOM    127  NE2 DVA d          47.633  58.072  92.299  0.00  0.00    -0.370 N 
ATOM    128  H33 DVA d          47.565  58.978  91.880  0.00  0.00     0.159 HD
ATOM    129  H34 DVA d          47.920  57.288  91.751  0.00  0.00     0.159 HD
ENDBRANCH 122 125
ENDBRANCH 119 122
ENDBRANCH   1 119
TORSDOF 34
ENDMDL
MODEL 8
REMARK VINA RESULT:      -3.1      2.444      4.535
REMARK WARNING: 32 MAX_TORS EXCEEDED!!!
REMARK  34 active torsions:
REMARK  status: ('A' for Active; 'I' for Inactive)
REMARK    1  A    between atoms: N_1  and  CA_2 
REMARK    2  A    between atoms: CA_2  and  CB_3 
REMARK    3  A    between atoms: CA_2  and  C_6 
REMARK    4  A    between atoms: CB_3  and  CG1_4 
REMARK    5  A    between atoms: CB_3  and  CG2_5 
REMARK       I    between atoms: C_6  and  N_8 
REMARK    6  A    between atoms: CA_9  and  C_13 
REMARK       I    between atoms: C_13  and  N_15 
REMARK    7  A    between atoms: N_15  and  CA_16 
REMARK    8  A    between atoms: CA_16  and  C_17 
REMARK       I    between atoms: C_17  and  N_19 
REMARK    9  A    between atoms: N_19  and  CA_20 
REMARK   10  A    between atoms: CA_20  and  C_21 
REMARK   11  A    between atoms: CA_20  and  CB_23 
REMARK       I    between atoms: C_21  and  N_25 
REMARK   12  A    between atoms: CB_23  and  OG_24 
REMARK   13  A    between atoms: N_25  and  CA_26 
REMARK   14  A    between atoms: CA_26  and  C_27 
REMARK   15  A    between atoms: CA_26  and  CB_29 
REMARK       I    between atoms: C_27  and  N_34 
REMARK   16  A    between atoms: CB_29  and  CG_30 
REMARK   17  A    between atoms: CG_30  and  CD_31 
REMARK       I    between atoms: CD_31  and  NE2_33 
REMARK   18  A    between atoms: N_34  and  CA_35 
REMARK   19  A    between atoms: CA_35  and  C_36 
REMARK   20  A    between atoms: CA_35  and  CB_38 
REMARK       I    between atoms: C_36  and  N_44 
REMARK   21  A    between atoms: CB_38  and  CG_39 
REMARK   22  A    between atoms: N_44  and  CA_45 
REMARK   23  A    between atoms: CA_45  and  C_46 
REMARK   24  A    between atoms: CA_45  and  CB_48 
REMARK       I    between atoms: C_46  and  N_56 
REMARK   25  A    between atoms: CB_48  and  CG_49 
REMARK   26  A    between atoms: CZ_54  and  OH_55 
REMARK   27  A    between atoms: N_56  and  CA_57 
REMARK   28  A    between atoms: CA_57  and  C_58 
REMARK   29  A    between atoms: CA_57  and  CB_60 
REMARK       I    between atoms: C_58  and  N_64 
REMARK   30  A    between atoms: CB_60  and  CG_61 
REMARK   31  A    between atoms: N_64  and  CA_65 
REMARK   32  A    between atoms: CA_65  and  C_66 
REMARK   33  A    between atoms: CA_65  and  CB_69 
REMARK   34  A    between atoms: CB_69  and  OG_70 
ROOT
ATOM      1  CA  DVA d          42.656  55.347  89.718  0.00  0.00     0.090 C 
ATOM      2  H28 DVA d          43.048  56.322  89.392  0.00  0.00     0.087 H 
ENDROOT
BRANCH   1   3
ATOM      3  N   DVA d          43.342  54.950  90.937  0.00  0.00    -0.346 N 
ATOM      4  C   DVA d          43.670  55.874  91.821  0.00  0.00     0.243 C 
ATOM      5  O   DVA d          43.405  57.055  91.662  0.00  0.00    -0.271 OA
ATOM      6  H27 DVA d          43.563  53.989  91.103  0.00  0.00     0.163 HD
BRANCH   4   7
ATOM      7  CA  DVA d          44.425  55.415  93.054  0.00  0.00     0.109 C 
ATOM      8  H23 DVA d          45.455  55.124  92.799  0.00  0.00     0.090 H 
BRANCH   7   9
ATOM      9  N   DVA d          43.709  54.291  93.613  0.00  0.00    -0.344 N 
ATOM     10  C   DVA d          44.338  53.254  94.144  0.00  0.00     0.236 C 
ATOM     11  O   DVA d          45.565  53.169  94.206  0.00  0.00    -0.272 OA
ATOM     12  H22 DVA d          42.709  54.296  93.599  0.00  0.00     0.163 HD
BRANCH  10  13
ATOM     13  CA  DVA d          43.464  52.153  94.686  0.00  0.00     0.069 C 
ATOM     14  H20 DVA d          43.682  51.209  94.166  0.00  0.00     0.078 H 
ATOM     15  H21 DVA d          43.643  52.028  95.764  0.00  0.00     0.078 H 
BRANCH  13  16
ATOM     16  N   DVA d          42.094  52.540  94.455  0.00  0.00    -0.351 N 
ATOM     17  C   DVA d          41.089  51.763  94.836  0.00  0.00     0.241 C 
ATOM     18  O   DVA d          41.247  50.685  95.416  0.00  0.00    -0.271 OA
ATOM     19  H19 DVA d          41.899  53.408  93.999  0.00  0.00     0.163 HD
BRANCH  17  20
ATOM     20  CA  DVA d          39.698  52.305  94.517  0.00  0.00     0.091 C 
ATOM     21  N   DVA d          38.957  51.355  93.674  0.00  0.00    -0.337 N 
ATOM     22  C   DVA d          38.311  50.183  93.910  0.00  0.00     0.251 C 
ATOM     23  CD  DVA d          38.935  51.837  92.279  0.00  0.00    -0.001 C 
ATOM     24  O   DVA d          37.786  49.543  92.990  0.00  0.00    -0.271 OA
ATOM     25  CG  DVA d          39.957  52.958  92.295  0.00  0.00    -0.048 C 
ATOM     26  H17 DVA d          37.939  52.214  92.005  0.00  0.00     0.064 H 
ATOM     27  H18 DVA d          39.232  51.040  91.580  0.00  0.00     0.064 H 
ATOM     28  CB  DVA d          39.763  53.551  93.646  0.00  0.00    -0.036 C 
ATOM     29  H15 DVA d          40.978  52.567  92.176  0.00  0.00     0.035 H 
ATOM     30  H16 DVA d          39.752  53.694  91.505  0.00  0.00     0.035 H 
ATOM     31  H13 DVA d          40.610  54.194  93.928  0.00  0.00     0.036 H 
ATOM     32  H14 DVA d          38.829  54.130  93.701  0.00  0.00     0.036 H 
ATOM     33  H12 DVA d          39.160  52.508  95.456  0.00  0.00     0.087 H 
BRANCH  22  34
ATOM     34  CA  DVA d          38.269  49.610  95.346  0.00  0.00     0.178 C 
ATOM     35  H4  DVA d          38.751  50.346  96.007  0.00  0.00     0.099 H 
BRANCH  34  36
ATOM     36  N   DVA d          39.063  48.351  95.392  0.00  0.00    -0.066 N 
ATOM     37  H1  DVA d          39.514  48.270  96.290  0.00  0.00     0.275 HD
ATOM     38  H2  DVA d          39.762  48.367  94.666  0.00  0.00     0.275 HD
ATOM     39  H3  DVA d          38.451  47.563  95.252  0.00  0.00     0.275 HD
ENDBRANCH  34  36
BRANCH  34  40
ATOM     40  CB  DVA d          36.852  49.361  95.899  0.00  0.00    -0.025 C 
ATOM     41  H5  DVA d          36.180  49.098  95.068  0.00  0.00     0.042 H 
BRANCH  40  42
ATOM     42  CG1 DVA d          36.869  48.219  96.902  0.00  0.00    -0.071 C 
ATOM     43  H6  DVA d          36.810  47.260  96.366  0.00  0.00     0.028 H 
ATOM     44  H7  DVA d          36.009  48.313  97.581  0.00  0.00     0.028 H 
ATOM     45  H8  DVA d          37.802  48.256  97.484  0.00  0.00     0.028 H 
ENDBRANCH  40  42
BRANCH  40  46
ATOM     46  CG2 DVA d          36.350  50.643  96.569  0.00  0.00    -0.071 C 
ATOM     47  H9  DVA d          35.250  50.641  96.586  0.00  0.00     0.028 H 
ATOM     48  H10 DVA d          36.706  51.516  96.003  0.00  0.00     0.028 H 
ATOM     49  H11 DVA d          36.732  50.693  97.598  0.00  0.00     0.028 H 
ENDBRANCH  40  46
ENDBRANCH  34  40
ENDBRANCH  22  34
ENDBRANCH  17  20
ENDBRANCH  13  16
ENDBRANCH  10  13
ENDBRANCH   7   9
BRANCH   7  50
ATOM     50  CB  DVA d          44.428  56.578  94.040  0.00  0.00     0.044 C 
ATOM     51  H24 DVA d          43.560  57.225  93.842  0.00  0.00     0.077 H 
ATOM     52  H25 DVA d          45.354  57.158  93.916  0.00  0.00     0.077 H 
BRANCH  50  53
ATOM     53  OG  DVA d          44.354  56.090  95.370  0.00  0.00    -0.398 OA
ATOM     54  H26 DVA d          43.684  56.567  95.844  0.00  0.00     0.209 HD
ENDBRANCH  50  53
ENDBRANCH   7  50
ENDBRANCH   4   7
ENDBRANCH   1   3
BRANCH   1  55
ATOM     55  C   DVA d          42.900  54.327  88.609  0.00  0.00     0.241 C 
ATOM     56  O   DVA d          42.042  53.482  88.334  0.00  0.00    -0.271 OA
ATOM     57  N   DVA d          44.070  54.409  87.975  0.00  0.00    -0.346 N 
ATOM     58  H35 DVA d          44.711  55.135  88.226  0.00  0.00     0.163 HD
BRANCH  57  59
ATOM     59  CA  DVA d          44.445  53.453  86.910  0.00  0.00     0.094 C 
ATOM     60  H36 DVA d          44.974  54.015  86.126  0.00  0.00     0.088 H 
BRANCH  59  61
ATOM     61  C   DVA d          45.315  52.325  87.382  0.00  0.00     0.241 C 
ATOM     62  O   DVA d          44.969  51.639  88.354  0.00  0.00    -0.271 OA
ATOM     63  N   DVA d          46.454  52.157  86.720  0.00  0.00    -0.346 N 
ATOM     64  H42 DVA d          46.635  52.698  85.898  0.00  0.00     0.163 HD
BRANCH  63  65
ATOM     65  CA  DVA d          47.445  51.187  87.183  0.00  0.00     0.093 C 
ATOM     66  H43 DVA d          48.310  51.250  86.507  0.00  0.00     0.088 H 
BRANCH  65  67
ATOM     67  C   DVA d          47.969  51.403  88.598  0.00  0.00     0.241 C 
ATOM     68  O   DVA d          48.746  50.585  89.098  0.00  0.00    -0.271 OA
ATOM     69  N   DVA d          47.533  52.490  89.231  0.00  0.00    -0.345 N 
ATOM     70  H51 DVA d          46.891  53.098  88.764  0.00  0.00     0.163 HD
BRANCH  69  71
ATOM     71  CA  DVA d          47.965  52.825  90.595  0.00  0.00     0.098 C 
ATOM     72  H52 DVA d          47.303  53.621  90.968  0.00  0.00     0.088 H 
BRANCH  71  73
ATOM     73  C   DVA d          47.902  51.655  91.575  0.00  0.00     0.241 C 
ATOM     74  O   DVA d          46.825  51.251  92.031  0.00  0.00    -0.271 OA
ATOM     75  N   DVA d          49.094  51.124  91.856  0.00  0.00    -0.343 N 
ATOM     76  H55 DVA d          49.890  51.555  91.431  0.00  0.00     0.163 HD
BRANCH  75  77
ATOM     77  CA  DVA d          49.351  49.974  92.725  0.00  0.00     0.116 C 
ATOM     78  H56 DVA d          50.441  49.826  92.737  0.00  0.00     0.093 H 
BRANCH  77  79
ATOM     79  C   DVA d          48.916  50.185  94.168  0.00  0.00     0.198 C 
ATOM     80  O   DVA d          48.041  49.433  94.643  0.00  0.00    -0.646 OA
ATOM     81  OXT DVA d          49.474  51.109  94.805  0.00  0.00    -0.646 OA
ENDBRANCH  77  79
BRANCH  77  82
ATOM     82  CB  DVA d          48.720  48.694  92.165  0.00  0.00     0.045 C 
ATOM     83  H57 DVA d          47.634  48.843  92.060  0.00  0.00     0.077 H 
ATOM     84  H58 DVA d          48.911  47.864  92.862  0.00  0.00     0.077 H 
BRANCH  82  85
ATOM     85  OG  DVA d          49.268  48.368  90.894  0.00  0.00    -0.398 OA
ATOM     86  H59 DVA d          49.640  47.494  90.925  0.00  0.00     0.209 HD
ENDBRANCH  82  85
ENDBRANCH  77  82
ENDBRANCH  75  77
ENDBRANCH  71  73
BRANCH  71  87
ATOM     87  CB  DVA d          49.406  53.339  90.589  0.00  0.00     0.043 C 
ATOM     88  H53 DVA d          49.671  53.632  89.562  0.00  0.00     0.052 H 
ATOM     89  H54 DVA d          50.070  52.528  90.923  0.00  0.00     0.052 H 
BRANCH  87  90
ATOM     90  CG  DVA d          49.602  54.526  91.495  0.00  0.00     0.175 C 
ATOM     91  OD1 DVA d          49.293  55.660  91.069  0.00  0.00    -0.648 OA
ATOM     92  OD2 DVA d          50.048  54.327  92.638  0.00  0.00    -0.648 OA
ENDBRANCH  87  90
ENDBRANCH  71  87
ENDBRANCH  69  71
ENDBRANCH  65  67
BRANCH  65  93
ATOM     93  CB  DVA d          46.832  49.789  87.062  0.00  0.00    -0.014 C 
ATOM     94  H44 DVA d          46.187  49.610  87.935  0.00  0.00     0.043 H 
ATOM     95  H45 DVA d          47.646  49.048  87.049  0.00  0.00     0.043 H 
BRANCH  93  96
ATOM     96  CG  DVA d          46.000  49.618  85.800  0.00  0.00    -0.056 A 
ATOM     97  CD1 DVA d          44.731  49.033  85.852  0.00  0.00    -0.074 A 
ATOM     98  CE1 DVA d          43.959  48.834  84.695  0.00  0.00    -0.051 A 
ATOM     99  H46 DVA d          44.331  48.724  86.812  0.00  0.00     0.084 H 
ATOM    100  CZ  DVA d          44.482  49.245  83.454  0.00  0.00     0.065 A 
ATOM    101  H48 DVA d          42.979  48.374  84.757  0.00  0.00     0.087 H 
ATOM    102  CE2 DVA d          45.739  49.826  83.382  0.00  0.00    -0.051 A 
ATOM    103  CD2 DVA d          46.499  50.012  84.551  0.00  0.00    -0.074 A 
ATOM    104  H49 DVA d          46.137  50.138  82.423  0.00  0.00     0.087 H 
ATOM    105  H47 DVA d          47.481  50.467  84.485  0.00  0.00     0.084 H 
BRANCH 100 106
ATOM    106  OH  DVA d          43.751  49.091  82.297  0.00  0.00    -0.361 OA
ATOM    107  H50 DVA d          43.058  48.458  82.444  0.00  0.00     0.217 HD
ENDBRANCH 100 106
ENDBRANCH  93  96
ENDBRANCH  65  93
ENDBRANCH  63  65
ENDBRANCH  59  61
BRANCH  59 108
ATOM    108  CB  DVA d          43.222  52.759  86.309  0.00  0.00     0.004 C 
ATOM    109  H37 DVA d          42.321  53.287  86.655  0.00  0.00     0.046 H 
ATOM    110  H38 DVA d          43.201  51.721  86.673  0.00  0.00     0.046 H 
BRANCH 108 111
ATOM    111  CG  DVA d          43.200  52.728  84.810  0.00  0.00     0.053 A 
ATOM    112  ND1 DVA d          44.063  53.476  84.033  0.00  0.00    -0.247 NA
ATOM    113  CE1 DVA d          43.828  53.224  82.753  0.00  0.00     0.064 A 
ATOM    114  NE2 DVA d          42.839  52.341  82.675  0.00  0.00    -0.359 N 
ATOM    115  H40 DVA d          44.356  53.665  81.908  0.00  0.00     0.143 H 
ATOM    116  CD2 DVA d          42.430  52.019  83.951  0.00  0.00     0.002 A 
ATOM    117  H41 DVA d          42.442  51.960  81.805  0.00  0.00     0.166 HD
ATOM    118  H39 DVA d          41.636  51.324  84.218  0.00  0.00     0.114 H 
ENDBRANCH 108 111
ENDBRANCH  59 108
ENDBRANCH  57  59
ENDBRANCH   1  55
BRANCH   1 119
ATOM    119  CB  DVA d          41.154  55.486  89.996  0.00  0.00    -0.030 C 
ATOM    120  H29 DVA d          41.003  56.230  90.792  0.00  0.00     0.037 H 
ATOM    121  H30 DVA d          40.758  54.512  90.323  0.00  0.00     0.037 H 
BRANCH 119 122
ATOM    122  CG  DVA d          40.393  55.941  88.727  0.00  0.00     0.011 C 
ATOM    123  H31 DVA d          39.338  55.648  88.833  0.00  0.00     0.047 H 
ATOM    124  H32 DVA d          40.831  55.426  87.858  0.00  0.00     0.047 H 
BRANCH 122 125
ATOM    125  CD  DVA d          40.448  57.457  88.467  0.00  0.00     0.215 C 
ATOM    126  OE1 DVA d          41.255  57.936  87.649  0.00  0.00    -0.274 OA
ATOM    127  NE2 DVA d          39.598  58.202  89.144  0.00  0.00    -0.370 N 
ATOM    128  H33 DVA d          39.590  59.193  89.015  0.00  0.00     0.159 HD
ATOM    129  H34 DVA d          38.962  57.776  89.786  0.00  0.00     0.159 HD
ENDBRANCH 122 125
ENDBRANCH 119 122
ENDBRANCH   1 119
TORSDOF 34
ENDMDL
MODEL 9
REMARK VINA RESULT:      -3.0      3.080     10.202
REMARK WARNING: 32 MAX_TORS EXCEEDED!!!
REMARK  34 active torsions:
REMARK  status: ('A' for Active; 'I' for Inactive)
REMARK    1  A    between atoms: N_1  and  CA_2 
REMARK    2  A    between atoms: CA_2  and  CB_3 
REMARK    3  A    between atoms: CA_2  and  C_6 
REMARK    4  A    between atoms: CB_3  and  CG1_4 
REMARK    5  A    between atoms: CB_3  and  CG2_5 
REMARK       I    between atoms: C_6  and  N_8 
REMARK    6  A    between atoms: CA_9  and  C_13 
REMARK       I    between atoms: C_13  and  N_15 
REMARK    7  A    between atoms: N_15  and  CA_16 
REMARK    8  A    between atoms: CA_16  and  C_17 
REMARK       I    between atoms: C_17  and  N_19 
REMARK    9  A    between atoms: N_19  and  CA_20 
REMARK   10  A    between atoms: CA_20  and  C_21 
REMARK   11  A    between atoms: CA_20  and  CB_23 
REMARK       I    between atoms: C_21  and  N_25 
REMARK   12  A    between atoms: CB_23  and  OG_24 
REMARK   13  A    between atoms: N_25  and  CA_26 
REMARK   14  A    between atoms: CA_26  and  C_27 
REMARK   15  A    between atoms: CA_26  and  CB_29 
REMARK       I    between atoms: C_27  and  N_34 
REMARK   16  A    between atoms: CB_29  and  CG_30 
REMARK   17  A    between atoms: CG_30  and  CD_31 
REMARK       I    between atoms: CD_31  and  NE2_33 
REMARK   18  A    between atoms: N_34  and  CA_35 
REMARK   19  A    between atoms: CA_35  and  C_36 
REMARK   20  A    between atoms: CA_35  and  CB_38 
REMARK       I    between atoms: C_36  and  N_44 
REMARK   21  A    between atoms: CB_38  and  CG_39 
REMARK   22  A    between atoms: N_44  and  CA_45 
REMARK   23  A    between atoms: CA_45  and  C_46 
REMARK   24  A    between atoms: CA_45  and  CB_48 
REMARK       I    between atoms: C_46  and  N_56 
REMARK   25  A    between atoms: CB_48  and  CG_49 
REMARK   26  A    between atoms: CZ_54  and  OH_55 
REMARK   27  A    between atoms: N_56  and  CA_57 
REMARK   28  A    between atoms: CA_57  and  C_58 
REMARK   29  A    between atoms: CA_57  and  CB_60 
REMARK       I    between atoms: C_58  and  N_64 
REMARK   30  A    between atoms: CB_60  and  CG_61 
REMARK   31  A    between atoms: N_64  and  CA_65 
REMARK   32  A    between atoms: CA_65  and  C_66 
REMARK   33  A    between atoms: CA_65  and  CB_69 
REMARK   34  A    between atoms: CB_69  and  OG_70 
ROOT
ATOM      1  CA  DVA d          44.854  52.976  88.812  0.00  0.00     0.090 C 
ATOM      2  H28 DVA d          44.757  53.772  88.058  0.00  0.00     0.087 H 
ENDROOT
BRANCH   1   3
ATOM      3  N   DVA d          45.641  51.891  88.250  0.00  0.00    -0.346 N 
ATOM      4  C   DVA d          46.243  52.067  87.087  0.00  0.00     0.243 C 
ATOM      5  O   DVA d          46.175  53.118  86.469  0.00  0.00    -0.271 OA
ATOM      6  H27 DVA d          45.726  51.022  88.737  0.00  0.00     0.163 HD
BRANCH   4   7
ATOM      7  CA  DVA d          47.014  50.890  86.522  0.00  0.00     0.109 C 
ATOM      8  H23 DVA d          47.295  50.185  87.318  0.00  0.00     0.090 H 
BRANCH   7   9
ATOM      9  N   DVA d          48.195  51.411  85.871  0.00  0.00    -0.344 N 
ATOM     10  C   DVA d          49.381  51.395  86.457  0.00  0.00     0.236 C 
ATOM     11  O   DVA d          49.570  50.938  87.585  0.00  0.00    -0.272 OA
ATOM     12  H22 DVA d          48.113  51.794  84.951  0.00  0.00     0.163 HD
BRANCH  10  13
ATOM     13  CA  DVA d          50.522  51.974  85.662  0.00  0.00     0.069 C 
ATOM     14  H20 DVA d          51.040  52.745  86.253  0.00  0.00     0.078 H 
ATOM     15  H21 DVA d          51.234  51.180  85.392  0.00  0.00     0.078 H 
BRANCH  13  16
ATOM     16  N   DVA d          49.961  52.560  84.470  0.00  0.00    -0.351 N 
ATOM     17  C   DVA d          49.484  53.797  84.475  0.00  0.00     0.241 C 
ATOM     18  O   DVA d          49.498  54.527  85.471  0.00  0.00    -0.271 OA
ATOM     19  H19 DVA d          49.930  52.025  83.626  0.00  0.00     0.163 HD
BRANCH  17  20
ATOM     20  CA  DVA d          48.918  54.276  83.140  0.00  0.00     0.091 C 
ATOM     21  N   DVA d          47.451  54.361  83.204  0.00  0.00    -0.337 N 
ATOM     22  C   DVA d          46.577  55.246  83.750  0.00  0.00     0.251 C 
ATOM     23  CD  DVA d          46.853  53.213  82.495  0.00  0.00    -0.001 C 
ATOM     24  O   DVA d          45.355  55.059  83.694  0.00  0.00    -0.271 OA
ATOM     25  CG  DVA d          48.042  52.296  82.277  0.00  0.00    -0.048 C 
ATOM     26  H17 DVA d          46.412  53.524  81.537  0.00  0.00     0.064 H 
ATOM     27  H18 DVA d          46.084  52.724  83.112  0.00  0.00     0.064 H 
ATOM     28  CB  DVA d          49.150  53.259  82.031  0.00  0.00    -0.036 C 
ATOM     29  H15 DVA d          48.239  51.682  83.168  0.00  0.00     0.035 H 
ATOM     30  H16 DVA d          47.885  51.642  81.407  0.00  0.00     0.035 H 
ATOM     31  H13 DVA d          50.133  52.774  82.130  0.00  0.00     0.036 H 
ATOM     32  H14 DVA d          49.068  53.722  81.036  0.00  0.00     0.036 H 
ATOM     33  H12 DVA d          49.363  55.249  82.881  0.00  0.00     0.087 H 
BRANCH  22  34
ATOM     34  CA  DVA d          47.116  56.488  84.498  0.00  0.00     0.178 C 
ATOM     35  H4  DVA d          48.188  56.571  84.268  0.00  0.00     0.099 H 
BRANCH  34  36
ATOM     36  N   DVA d          46.968  56.276  85.965  0.00  0.00    -0.066 N 
ATOM     37  H1  DVA d          46.138  55.732  86.144  0.00  0.00     0.275 HD
ATOM     38  H2  DVA d          46.891  57.168  86.428  0.00  0.00     0.275 HD
ATOM     39  H3  DVA d          47.774  55.784  86.316  0.00  0.00     0.275 HD
ENDBRANCH  34  36
BRANCH  34  40
ATOM     40  CB  DVA d          46.458  57.821  84.090  0.00  0.00    -0.025 C 
ATOM     41  H5  DVA d          45.591  57.615  83.444  0.00  0.00     0.042 H 
BRANCH  40  42
ATOM     42  CG1 DVA d          45.989  58.578  85.322  0.00  0.00    -0.071 C 
ATOM     43  H6  DVA d          45.885  57.879  86.164  0.00  0.00     0.028 H 
ATOM     44  H7  DVA d          45.016  59.050  85.115  0.00  0.00     0.028 H 
ATOM     45  H8  DVA d          46.725  59.354  85.579  0.00  0.00     0.028 H 
ENDBRANCH  40  42
BRANCH  40  46
ATOM     46  CG2 DVA d          47.478  58.658  83.313  0.00  0.00    -0.071 C 
ATOM     47  H9  DVA d          47.128  58.797  82.279  0.00  0.00     0.028 H 
ATOM     48  H10 DVA d          48.448  58.140  83.306  0.00  0.00     0.028 H 
ATOM     49  H11 DVA d          47.591  59.639  83.797  0.00  0.00     0.028 H 
ENDBRANCH  40  46
ENDBRANCH  34  40
ENDBRANCH  22  34
ENDBRANCH  17  20
ENDBRANCH  13  16
ENDBRANCH  10  13
ENDBRANCH   7   9
BRANCH   7  50
ATOM     50  CB  DVA d          46.110  50.208  85.500  0.00  0.00     0.044 C 
ATOM     51  H24 DVA d          46.061  49.131  85.719  0.00  0.00     0.077 H 
ATOM     52  H25 DVA d          46.521  50.360  84.492  0.00  0.00     0.077 H 
BRANCH  50  53
ATOM     53  OG  DVA d          44.804  50.758  85.562  0.00  0.00    -0.398 OA
ATOM     54  H26 DVA d          44.169  50.055  85.635  0.00  0.00     0.209 HD
ENDBRANCH  50  53
ENDBRANCH   7  50
ENDBRANCH   4   7
ENDBRANCH   1   3
BRANCH   1  55
ATOM     55  C   DVA d          43.457  52.487  89.187  0.00  0.00     0.241 C 
ATOM     56  O   DVA d          43.189  51.281  89.170  0.00  0.00    -0.271 OA
ATOM     57  N   DVA d          42.571  53.424  89.526  0.00  0.00    -0.346 N 
ATOM     58  H35 DVA d          42.859  54.382  89.548  0.00  0.00     0.163 HD
BRANCH  57  59
ATOM     59  CA  DVA d          41.173  53.084  89.870  0.00  0.00     0.094 C 
ATOM     60  H36 DVA d          40.922  52.143  89.360  0.00  0.00     0.088 H 
BRANCH  59  61
ATOM     61  C   DVA d          40.928  52.931  91.343  0.00  0.00     0.241 C 
ATOM     62  O   DVA d          41.640  53.535  92.157  0.00  0.00    -0.271 OA
ATOM     63  N   DVA d          39.950  52.098  91.681  0.00  0.00    -0.346 N 
ATOM     64  H42 DVA d          39.367  51.702  90.972  0.00  0.00     0.163 HD
BRANCH  63  65
ATOM     65  CA  DVA d          39.719  51.758  93.085  0.00  0.00     0.093 C 
ATOM     66  H43 DVA d          40.259  50.821  93.289  0.00  0.00     0.088 H 
BRANCH  65  67
ATOM     67  C   DVA d          40.205  52.783  94.102  0.00  0.00     0.241 C 
ATOM     68  O   DVA d          41.080  52.476  94.916  0.00  0.00    -0.271 OA
ATOM     69  N   DVA d          39.627  53.982  94.055  0.00  0.00    -0.345 N 
ATOM     70  H51 DVA d          38.912  54.149  93.376  0.00  0.00     0.163 HD
BRANCH  69  71
ATOM     71  CA  DVA d          40.005  55.066  94.971  0.00  0.00     0.098 C 
ATOM     72  H52 DVA d          40.627  54.629  95.767  0.00  0.00     0.088 H 
BRANCH  71  73
ATOM     73  C   DVA d          40.798  56.193  94.311  0.00  0.00     0.241 C 
ATOM     74  O   DVA d          40.235  57.196  93.853  0.00  0.00    -0.271 OA
ATOM     75  N   DVA d          42.117  55.991  94.304  0.00  0.00    -0.343 N 
ATOM     76  H55 DVA d          42.443  55.130  94.695  0.00  0.00     0.163 HD
BRANCH  75  77
ATOM     77  CA  DVA d          43.134  56.906  93.781  0.00  0.00     0.116 C 
ATOM     78  H56 DVA d          42.631  57.868  93.604  0.00  0.00     0.093 H 
BRANCH  77  79
ATOM     79  C   DVA d          44.276  57.174  94.750  0.00  0.00     0.198 C 
ATOM     80  O   DVA d          44.957  58.208  94.596  0.00  0.00    -0.646 OA
ATOM     81  OXT DVA d          44.463  56.335  95.661  0.00  0.00    -0.646 OA
ENDBRANCH  77  79
BRANCH  77  82
ATOM     82  CB  DVA d          43.686  56.423  92.434  0.00  0.00     0.045 C 
ATOM     83  H57 DVA d          44.307  55.530  92.599  0.00  0.00     0.077 H 
ATOM     84  H58 DVA d          44.300  57.220  91.990  0.00  0.00     0.077 H 
BRANCH  82  85
ATOM     85  OG  DVA d          42.631  56.095  91.538  0.00  0.00    -0.398 OA
ATOM     86  H59 DVA d          42.121  56.875  91.351  0.00  0.00     0.209 HD
ENDBRANCH  82  85
ENDBRANCH  77  82
ENDBRANCH  75  77
ENDBRANCH  71  73
BRANCH  71  87
ATOM     87  CB  DVA d          38.760  55.694  95.602  0.00  0.00     0.043 C 
ATOM     88  H53 DVA d          37.930  55.628  94.883  0.00  0.00     0.052 H 
ATOM     89  H54 DVA d          38.972  56.750  95.823  0.00  0.00     0.052 H 
BRANCH  87  90
ATOM     90  CG  DVA d          38.349  55.008  96.878  0.00  0.00     0.175 C 
ATOM     91  OD1 DVA d          38.154  55.708  97.896  0.00  0.00    -0.648 OA
ATOM     92  OD2 DVA d          38.204  53.774  96.864  0.00  0.00    -0.648 OA
ENDBRANCH  87  90
ENDBRANCH  71  87
ENDBRANCH  69  71
ENDBRANCH  65  67
BRANCH  65  93
ATOM     93  CB  DVA d          38.220  51.507  93.271  0.00  0.00    -0.014 C 
ATOM     94  H44 DVA d          37.814  51.088  92.338  0.00  0.00     0.043 H 
ATOM     95  H45 DVA d          37.727  52.467  93.487  0.00  0.00     0.043 H 
BRANCH  93  96
ATOM     96  CG  DVA d          37.921  50.542  94.408  0.00  0.00    -0.056 A 
ATOM     97  CD1 DVA d          36.904  50.813  95.330  0.00  0.00    -0.074 A 
ATOM     98  CE1 DVA d          36.633  49.952  96.407  0.00  0.00    -0.051 A 
ATOM     99  H46 DVA d          36.309  51.711  95.210  0.00  0.00     0.084 H 
ATOM    100  CZ  DVA d          37.407  48.784  96.551  0.00  0.00     0.065 A 
ATOM    101  H48 DVA d          35.843  50.183  97.114  0.00  0.00     0.087 H 
ATOM    102  CE2 DVA d          38.420  48.499  95.648  0.00  0.00    -0.051 A 
ATOM    103  CD2 DVA d          38.678  49.375  94.578  0.00  0.00    -0.074 A 
ATOM    104  H49 DVA d          39.013  47.599  95.766  0.00  0.00     0.087 H 
ATOM    105  H47 DVA d          39.473  49.145  93.877  0.00  0.00     0.084 H 
BRANCH 100 106
ATOM    106  OH  DVA d          37.160  47.901  97.579  0.00  0.00    -0.361 OA
ATOM    107  H50 DVA d          36.458  47.312  97.328  0.00  0.00     0.217 HD
ENDBRANCH 100 106
ENDBRANCH  93  96
ENDBRANCH  65  93
ENDBRANCH  63  65
ENDBRANCH  59  61
BRANCH  59 108
ATOM    108  CB  DVA d          40.196  54.180  89.438  0.00  0.00     0.004 C 
ATOM    109  H37 DVA d          39.835  54.694  90.341  0.00  0.00     0.046 H 
ATOM    110  H38 DVA d          39.348  53.702  88.925  0.00  0.00     0.046 H 
BRANCH 108 111
ATOM    111  CG  DVA d          40.782  55.206  88.517  0.00  0.00     0.053 A 
ATOM    112  ND1 DVA d          41.332  56.391  88.967  0.00  0.00    -0.247 NA
ATOM    113  CE1 DVA d          41.792  57.080  87.933  0.00  0.00     0.064 A 
ATOM    114  NE2 DVA d          41.555  56.384  86.827  0.00  0.00    -0.359 N 
ATOM    115  H40 DVA d          42.282  58.052  87.981  0.00  0.00     0.143 H 
ATOM    116  CD2 DVA d          40.922  55.209  87.170  0.00  0.00     0.002 A 
ATOM    117  H41 DVA d          41.803  56.674  85.871  0.00  0.00     0.166 HD
ATOM    118  H39 DVA d          40.595  54.428  86.485  0.00  0.00     0.114 H 
ENDBRANCH 108 111
ENDBRANCH  59 108
ENDBRANCH  57  59
ENDBRANCH   1  55
BRANCH   1 119
ATOM    119  CB  DVA d          45.569  53.546  90.043  0.00  0.00    -0.030 C 
ATOM    120  H29 DVA d          44.833  54.058  90.681  0.00  0.00     0.037 H 
ATOM    121  H30 DVA d          46.334  54.265  89.714  0.00  0.00     0.037 H 
BRANCH 119 122
ATOM    122  CG  DVA d          46.250  52.421  90.861  0.00  0.00     0.011 C 
ATOM    123  H31 DVA d          47.187  52.146  90.355  0.00  0.00     0.047 H 
ATOM    124  H32 DVA d          45.576  51.552  90.882  0.00  0.00     0.047 H 
BRANCH 122 125
ATOM    125  CD  DVA d          46.583  52.808  92.313  0.00  0.00     0.215 C 
ATOM    126  OE1 DVA d          46.675  54.003  92.650  0.00  0.00    -0.274 OA
ATOM    127  NE2 DVA d          46.751  51.817  93.163  0.00  0.00    -0.370 N 
ATOM    128  H33 DVA d          46.969  52.010  94.120  0.00  0.00     0.159 HD
ATOM    129  H34 DVA d          46.661  50.871  92.852  0.00  0.00     0.159 HD
ENDBRANCH 122 125
ENDBRANCH 119 122
ENDBRANCH   1 119
TORSDOF 34
ENDMDL
MODEL 10
REMARK VINA RESULT:      -3.0      3.017     10.062
REMARK WARNING: 32 MAX_TORS EXCEEDED!!!
REMARK  34 active torsions:
REMARK  status: ('A' for Active; 'I' for Inactive)
REMARK    1  A    between atoms: N_1  and  CA_2 
REMARK    2  A    between atoms: CA_2  and  CB_3 
REMARK    3  A    between atoms: CA_2  and  C_6 
REMARK    4  A    between atoms: CB_3  and  CG1_4 
REMARK    5  A    between atoms: CB_3  and  CG2_5 
REMARK       I    between atoms: C_6  and  N_8 
REMARK    6  A    between atoms: CA_9  and  C_13 
REMARK       I    between atoms: C_13  and  N_15 
REMARK    7  A    between atoms: N_15  and  CA_16 
REMARK    8  A    between atoms: CA_16  and  C_17 
REMARK       I    between atoms: C_17  and  N_19 
REMARK    9  A    between atoms: N_19  and  CA_20 
REMARK   10  A    between atoms: CA_20  and  C_21 
REMARK   11  A    between atoms: CA_20  and  CB_23 
REMARK       I    between atoms: C_21  and  N_25 
REMARK   12  A    between atoms: CB_23  and  OG_24 
REMARK   13  A    between atoms: N_25  and  CA_26 
REMARK   14  A    between atoms: CA_26  and  C_27 
REMARK   15  A    between atoms: CA_26  and  CB_29 
REMARK       I    between atoms: C_27  and  N_34 
REMARK   16  A    between atoms: CB_29  and  CG_30 
REMARK   17  A    between atoms: CG_30  and  CD_31 
REMARK       I    between atoms: CD_31  and  NE2_33 
REMARK   18  A    between atoms: N_34  and  CA_35 
REMARK   19  A    between atoms: CA_35  and  C_36 
REMARK   20  A    between atoms: CA_35  and  CB_38 
REMARK       I    between atoms: C_36  and  N_44 
REMARK   21  A    between atoms: CB_38  and  CG_39 
REMARK   22  A    between atoms: N_44  and  CA_45 
REMARK   23  A    between atoms: CA_45  and  C_46 
REMARK   24  A    between atoms: CA_45  and  CB_48 
REMARK       I    between atoms: C_46  and  N_56 
REMARK   25  A    between atoms: CB_48  and  CG_49 
REMARK   26  A    between atoms: CZ_54  and  OH_55 
REMARK   27  A    between atoms: N_56  and  CA_57 
REMARK   28  A    between atoms: CA_57  and  C_58 
REMARK   29  A    between atoms: CA_57  and  CB_60 
REMARK       I    between atoms: C_58  and  N_64 
REMARK   30  A    between atoms: CB_60  and  CG_61 
REMARK   31  A    between atoms: N_64  and  CA_65 
REMARK   32  A    between atoms: CA_65  and  C_66 
REMARK   33  A    between atoms: CA_65  and  CB_69 
REMARK   34  A    between atoms: CB_69  and  OG_70 
ROOT
ATOM      1  CA  DVA d          43.947  56.791  89.391  0.00  0.00     0.090 C 
ATOM      2  H28 DVA d          43.330  56.063  88.844  0.00  0.00     0.087 H 
ENDROOT
BRANCH   1   3
ATOM      3  N   DVA d          45.043  57.215  88.534  0.00  0.00    -0.346 N 
ATOM      4  C   DVA d          45.260  56.572  87.401  0.00  0.00     0.243 C 
ATOM      5  O   DVA d          44.564  55.638  87.036  0.00  0.00    -0.271 OA
ATOM      6  H27 DVA d          45.624  57.984  88.799  0.00  0.00     0.163 HD
BRANCH   4   7
ATOM      7  CA  DVA d          46.443  57.023  86.566  0.00  0.00     0.109 C 
ATOM      8  H23 DVA d          46.412  58.109  86.394  0.00  0.00     0.090 H 
BRANCH   7   9
ATOM      9  N   DVA d          46.387  56.314  85.308  0.00  0.00    -0.344 N 
ATOM     10  C   DVA d          46.550  56.931  84.148  0.00  0.00     0.236 C 
ATOM     11  O   DVA d          46.764  58.140  84.053  0.00  0.00    -0.272 OA
ATOM     12  H22 DVA d          46.220  55.328  85.313  0.00  0.00     0.163 HD
BRANCH  10  13
ATOM     13  CA  DVA d          46.464  56.067  82.917  0.00  0.00     0.069 C 
ATOM     14  H20 DVA d          45.410  55.893  82.653  0.00  0.00     0.078 H 
ATOM     15  H21 DVA d          46.976  56.558  82.077  0.00  0.00     0.078 H 
BRANCH  13  16
ATOM     16  N   DVA d          47.109  54.815  83.226  0.00  0.00    -0.351 N 
ATOM     17  C   DVA d          47.685  54.089  82.278  0.00  0.00     0.241 C 
ATOM     18  O   DVA d          47.724  54.430  81.092  0.00  0.00    -0.271 OA
ATOM     19  H19 DVA d          47.122  54.489  84.171  0.00  0.00     0.163 HD
BRANCH  17  20
ATOM     20  CA  DVA d          48.322  52.788  82.759  0.00  0.00     0.091 C 
ATOM     21  N   DVA d          48.032  52.569  84.184  0.00  0.00    -0.337 N 
ATOM     22  C   DVA d          46.940  52.145  84.873  0.00  0.00     0.251 C 
ATOM     23  CD  DVA d          49.225  52.887  84.992  0.00  0.00    -0.001 C 
ATOM     24  O   DVA d          46.946  52.084  86.109  0.00  0.00    -0.271 OA
ATOM     25  CG  DVA d          50.127  53.590  83.995  0.00  0.00    -0.048 C 
ATOM     26  H17 DVA d          49.699  51.972  85.377  0.00  0.00     0.064 H 
ATOM     27  H18 DVA d          48.970  53.550  85.832  0.00  0.00     0.064 H 
ATOM     28  CB  DVA d          49.843  52.859  82.730  0.00  0.00    -0.036 C 
ATOM     29  H15 DVA d          49.867  54.655  83.906  0.00  0.00     0.035 H 
ATOM     30  H16 DVA d          51.185  53.494  84.280  0.00  0.00     0.035 H 
ATOM     31  H13 DVA d          50.202  53.418  81.854  0.00  0.00     0.036 H 
ATOM     32  H14 DVA d          50.293  51.855  82.736  0.00  0.00     0.036 H 
ATOM     33  H12 DVA d          47.956  51.951  82.144  0.00  0.00     0.087 H 
BRANCH  22  34
ATOM     34  CA  DVA d          45.649  51.774  84.106  0.00  0.00     0.178 C 
ATOM     35  H4  DVA d          45.777  52.110  83.067  0.00  0.00     0.099 H 
BRANCH  34  36
ATOM     36  N   DVA d          44.501  52.516  84.698  0.00  0.00    -0.066 N 
ATOM     37  H1  DVA d          43.939  51.883  85.247  0.00  0.00     0.275 HD
ATOM     38  H2  DVA d          43.939  52.910  83.960  0.00  0.00     0.275 HD
ATOM     39  H3  DVA d          44.847  53.256  85.288  0.00  0.00     0.275 HD
ENDBRANCH  34  36
BRANCH  34  40
ATOM     40  CB  DVA d          45.337  50.265  84.063  0.00  0.00    -0.025 C 
ATOM     41  H5  DVA d          45.180  49.898  85.088  0.00  0.00     0.042 H 
BRANCH  40  42
ATOM     42  CG1 DVA d          44.079  50.010  83.249  0.00  0.00    -0.071 C 
ATOM     43  H6  DVA d          44.192  50.454  82.249  0.00  0.00     0.028 H 
ATOM     44  H7  DVA d          43.214  50.465  83.756  0.00  0.00     0.028 H 
ATOM     45  H8  DVA d          43.918  48.926  83.152  0.00  0.00     0.028 H 
ENDBRANCH  40  42
BRANCH  40  46
ATOM     46  CG2 DVA d          46.527  49.531  83.439  0.00  0.00    -0.071 C 
ATOM     47  H9  DVA d          46.827  48.699  84.092  0.00  0.00     0.028 H 
ATOM     48  H10 DVA d          47.368  50.230  83.323  0.00  0.00     0.028 H 
ATOM     49  H11 DVA d          46.239  49.138  82.454  0.00  0.00     0.028 H 
ENDBRANCH  40  46
ENDBRANCH  34  40
ENDBRANCH  22  34
ENDBRANCH  17  20
ENDBRANCH  13  16
ENDBRANCH  10  13
ENDBRANCH   7   9
BRANCH   7  50
ATOM     50  CB  DVA d          47.706  56.638  87.329  0.00  0.00     0.044 C 
ATOM     51  H24 DVA d          47.957  55.589  87.113  0.00  0.00     0.077 H 
ATOM     52  H25 DVA d          47.530  56.759  88.408  0.00  0.00     0.077 H 
BRANCH  50  53
ATOM     53  OG  DVA d          48.786  57.468  86.933  0.00  0.00    -0.398 OA
ATOM     54  H26 DVA d          48.758  58.278  87.428  0.00  0.00     0.209 HD
ENDBRANCH  50  53
ENDBRANCH   7  50
ENDBRANCH   4   7
ENDBRANCH   1   3
BRANCH   1  55
ATOM     55  C   DVA d          44.483  56.125  90.655  0.00  0.00     0.241 C 
ATOM     56  O   DVA d          44.826  54.939  90.643  0.00  0.00    -0.271 OA
ATOM     57  N   DVA d          44.552  56.891  91.746  0.00  0.00    -0.346 N 
ATOM     58  H35 DVA d          44.285  57.853  91.683  0.00  0.00     0.163 HD
BRANCH  57  59
ATOM     59  CA  DVA d          45.013  56.354  93.044  0.00  0.00     0.094 C 
ATOM     60  H36 DVA d          44.701  57.058  93.829  0.00  0.00     0.088 H 
BRANCH  59  61
ATOM     61  C   DVA d          44.478  54.988  93.363  0.00  0.00     0.241 C 
ATOM     62  O   DVA d          45.256  54.038  93.527  0.00  0.00    -0.271 OA
ATOM     63  N   DVA d          43.154  54.885  93.416  0.00  0.00    -0.346 N 
ATOM     64  H42 DVA d          42.589  55.707  93.349  0.00  0.00     0.163 HD
BRANCH  63  65
ATOM     65  CA  DVA d          42.519  53.577  93.572  0.00  0.00     0.093 C 
ATOM     66  H43 DVA d          43.220  52.822  93.188  0.00  0.00     0.088 H 
BRANCH  65  67
ATOM     67  C   DVA d          42.172  53.177  95.001  0.00  0.00     0.241 C 
ATOM     68  O   DVA d          42.557  53.871  95.946  0.00  0.00    -0.271 OA
ATOM     69  N   DVA d          41.462  52.060  95.147  0.00  0.00    -0.345 N 
ATOM     70  H51 DVA d          41.200  51.542  94.332  0.00  0.00     0.163 HD
BRANCH  69  71
ATOM     71  CA  DVA d          41.050  51.563  96.467  0.00  0.00     0.098 C 
ATOM     72  H52 DVA d          41.697  52.041  97.218  0.00  0.00     0.088 H 
BRANCH  71  73
ATOM     73  C   DVA d          39.597  51.869  96.825  0.00  0.00     0.241 C 
ATOM     74  O   DVA d          39.194  51.813  97.994  0.00  0.00    -0.271 OA
ATOM     75  N   DVA d          38.845  52.211  95.777  0.00  0.00    -0.343 N 
ATOM     76  H55 DVA d          39.291  52.204  94.881  0.00  0.00     0.163 HD
BRANCH  75  77
ATOM     77  CA  DVA d          37.433  52.597  95.808  0.00  0.00     0.116 C 
ATOM     78  H56 DVA d          37.239  53.000  96.814  0.00  0.00     0.093 H 
BRANCH  77  79
ATOM     79  C   DVA d          37.072  53.692  94.815  0.00  0.00     0.198 C 
ATOM     80  O   DVA d          36.323  54.616  95.193  0.00  0.00    -0.646 OA
ATOM     81  OXT DVA d          37.560  53.605  93.664  0.00  0.00    -0.646 OA
ENDBRANCH  77  79
BRANCH  77  82
ATOM     82  CB  DVA d          36.514  51.384  95.615  0.00  0.00     0.045 C 
ATOM     83  H57 DVA d          35.468  51.725  95.598  0.00  0.00     0.077 H 
ATOM     84  H58 DVA d          36.659  50.686  96.453  0.00  0.00     0.077 H 
BRANCH  82  85
ATOM     85  OG  DVA d          36.804  50.713  94.395  0.00  0.00    -0.398 OA
ATOM     86  H59 DVA d          35.992  50.508  93.947  0.00  0.00     0.209 HD
ENDBRANCH  82  85
ENDBRANCH  77  82
ENDBRANCH  75  77
ENDBRANCH  71  73
BRANCH  71  87
ATOM     87  CB  DVA d          41.230  50.046  96.548  0.00  0.00     0.043 C 
ATOM     88  H53 DVA d          41.365  49.764  97.603  0.00  0.00     0.052 H 
ATOM     89  H54 DVA d          42.127  49.767  95.976  0.00  0.00     0.052 H 
BRANCH  87  90
ATOM     90  CG  DVA d          40.050  49.292  95.995  0.00  0.00     0.175 C 
ATOM     91  OD1 DVA d          39.525  48.403  96.701  0.00  0.00    -0.648 OA
ATOM     92  OD2 DVA d          39.635  49.595  94.864  0.00  0.00    -0.648 OA
ENDBRANCH  87  90
ENDBRANCH  71  87
ENDBRANCH  69  71
ENDBRANCH  65  67
BRANCH  65  93
ATOM     93  CB  DVA d          41.257  53.557  92.704  0.00  0.00    -0.014 C 
ATOM     94  H44 DVA d          40.729  54.514  92.828  0.00  0.00     0.043 H 
ATOM     95  H45 DVA d          40.610  52.734  93.042  0.00  0.00     0.043 H 
BRANCH  93  96
ATOM     96  CG  DVA d          41.562  53.359  91.227  0.00  0.00    -0.056 A 
ATOM     97  CD1 DVA d          42.232  52.215  90.780  0.00  0.00    -0.074 A 
ATOM     98  CE1 DVA d          42.554  52.027  89.426  0.00  0.00    -0.051 A 
ATOM     99  H46 DVA d          42.510  51.452  91.499  0.00  0.00     0.084 H 
ATOM    100  CZ  DVA d          42.182  53.019  88.498  0.00  0.00     0.065 A 
ATOM    101  H48 DVA d          43.078  51.135  89.101  0.00  0.00     0.087 H 
ATOM    102  CE2 DVA d          41.519  54.161  88.921  0.00  0.00    -0.051 A 
ATOM    103  CD2 DVA d          41.209  54.333  90.283  0.00  0.00    -0.074 A 
ATOM    104  H49 DVA d          41.238  54.922  88.202  0.00  0.00     0.087 H 
ATOM    105  H47 DVA d          40.690  55.229  90.605  0.00  0.00     0.084 H 
BRANCH 100 106
ATOM    106  OH  DVA d          42.457  52.866  87.157  0.00  0.00    -0.361 OA
ATOM    107  H50 DVA d          42.551  53.721  86.754  0.00  0.00     0.217 HD
ENDBRANCH 100 106
ENDBRANCH  93  96
ENDBRANCH  65  93
ENDBRANCH  63  65
ENDBRANCH  59  61
BRANCH  59 108
ATOM    108  CB  DVA d          46.533  56.180  93.084  0.00  0.00     0.004 C 
ATOM    109  H37 DVA d          46.889  56.033  92.054  0.00  0.00     0.046 H 
ATOM    110  H38 DVA d          46.762  55.286  93.682  0.00  0.00     0.046 H 
BRANCH 108 111
ATOM    111  CG  DVA d          47.274  57.341  93.675  0.00  0.00     0.053 A 
ATOM    112  ND1 DVA d          46.797  58.068  94.748  0.00  0.00    -0.247 NA
ATOM    113  CE1 DVA d          47.675  59.008  95.064  0.00  0.00     0.064 A 
ATOM    114  NE2 DVA d          48.703  58.918  94.229  0.00  0.00    -0.359 N 
ATOM    115  H40 DVA d          47.571  59.732  95.872  0.00  0.00     0.143 H 
ATOM    116  CD2 DVA d          48.472  57.883  93.351  0.00  0.00     0.002 A 
ATOM    117  H41 DVA d          49.536  59.523  94.237  0.00  0.00     0.166 HD
ATOM    118  H39 DVA d          49.130  57.561  92.545  0.00  0.00     0.114 H 
ENDBRANCH 108 111
ENDBRANCH  59 108
ENDBRANCH  57  59
ENDBRANCH   1  55
BRANCH   1 119
ATOM    119  CB  DVA d          43.079  58.003  89.752  0.00  0.00    -0.030 C 
ATOM    120  H29 DVA d          43.715  58.899  89.799  0.00  0.00     0.037 H 
ATOM    121  H30 DVA d          42.614  57.832  90.735  0.00  0.00     0.037 H 
BRANCH 119 122
ATOM    122  CG  DVA d          41.967  58.226  88.698  0.00  0.00     0.011 C 
ATOM    123  H31 DVA d          42.185  57.590  87.827  0.00  0.00     0.047 H 
ATOM    124  H32 DVA d          41.986  59.283  88.394  0.00  0.00     0.047 H 
BRANCH 122 125
ATOM    125  CD  DVA d          40.549  57.892  89.195  0.00  0.00     0.215 C 
ATOM    126  OE1 DVA d          39.644  57.596  88.394  0.00  0.00    -0.274 OA
ATOM    127  NE2 DVA d          40.359  57.929  90.498  0.00  0.00    -0.370 N 
ATOM    128  H33 DVA d          39.457  57.721  90.877  0.00  0.00     0.159 HD
ATOM    129  H34 DVA d          41.115  58.164  91.107  0.00  0.00     0.159 HD
ENDBRANCH 122 125
ENDBRANCH 119 122
ENDBRANCH   1 119
TORSDOF 34
ENDMDL
