REMARK  9 active torsions:
REMARK  status: ('A' for Active; 'I' for Inactive)
REMARK    1  A    between atoms: C16_2  and  C17_3 
REMARK       I    between atoms: C16_2  and  N7_10 
REMARK    2  A    between atoms: C40_7  and  C44_8 
REMARK    3  A    between atoms: C8_14  and  C18_30 
REMARK    4  A    between atoms: C14_20  and  C37_21 
REMARK    5  A    between atoms: C14_20  and  C38_22 
REMARK    6  A    between atoms: C6_27  and  O36_28 
REMARK    7  A    between atoms: C21_34  and  O24_37 
REMARK    8  A    between atoms: O24_37  and  C25_38 
REMARK    9  A    between atoms: C25_38  and  C26_39 
ROOT
ATOM      1  O35 XNC d          27.209   6.840  40.146  0.00  0.00    -0.265 OA
ATOM      2  C16 XNC d          28.235   6.429  39.628  0.00  0.00     0.278 C 
ATOM      3  N7  XNC d          28.499   6.620  38.261  0.00  0.00    -0.296 N 
ATOM      4  C4  XNC d          29.796   6.532  37.685  0.00  0.00     0.068 A 
ATOM      5  C3  XNC d          30.828   7.374  38.126  0.00  0.00    -0.054 A 
ATOM      6  C2  XNC d          32.089   7.319  37.548  0.00  0.00    -0.078 A 
ATOM      7  C8  XNC d          27.378   6.922  37.346  0.00  0.00     0.086 C 
ATOM      8  C9  XNC d          26.906   5.641  36.709  0.00  0.00     0.087 C 
ATOM      9  S12 XNC d          25.201   5.508  36.712  0.00  0.00     0.176 S 
ATOM     10  O32 XNC d          24.659   6.679  36.027  0.00  0.00    -0.223 OA
ATOM     11  O33 XNC d          24.674   5.504  38.056  0.00  0.00    -0.223 OA
ATOM     12  C13 XNC d          24.763   3.964  35.888  0.00  0.00     0.040 C 
ATOM     13  C14 XNC d          25.762   3.566  34.806  0.00  0.00    -0.029 C 
ATOM     14  C15 XNC d          27.125   3.433  35.527  0.00  0.00    -0.018 C 
ATOM     15  C10 XNC d          27.702   4.677  36.187  0.00  0.00     0.030 C 
ATOM     16  N11 XNC d          29.090   4.711  36.160  0.00  0.00    -0.354 N 
ATOM     17  C5  XNC d          30.043   5.616  36.656  0.00  0.00     0.093 A 
ATOM     18  C6  XNC d          31.311   5.555  36.107  0.00  0.00     0.094 A 
ATOM     19  C1  XNC d          32.318   6.404  36.551  0.00  0.00    -0.049 A 
ATOM     20  H7  XNC d          30.638   8.077  38.929  0.00  0.00     0.087 H 
ATOM     21  H8  XNC d          32.877   7.986  37.878  0.00  0.00     0.083 H 
ATOM     22  H9  XNC d          26.535   7.325  37.927  0.00  0.00     0.090 H 
ATOM     23  H10 XNC d          23.772   4.082  35.425  0.00  0.00     0.057 H 
ATOM     24  H11 XNC d          24.723   3.163  36.641  0.00  0.00     0.057 H 
ATOM     25  H18 XNC d          27.857   3.086  34.783  0.00  0.00     0.043 H 
ATOM     26  H19 XNC d          27.009   2.670  36.310  0.00  0.00     0.043 H 
ATOM     27  H20 XNC d          29.508   3.904  35.675  0.00  0.00     0.166 HD
ATOM     28  H22 XNC d          33.303   6.342  36.102  0.00  0.00     0.087 H 
ENDROOT
BRANCH   7  29
ATOM     29  C18 XNC d          27.867   8.041  36.396  0.00  0.00     0.009 A 
ATOM     30  C23 XNC d          28.125   9.301  36.920  0.00  0.00     0.127 A 
ATOM     31  F34 XNC d          27.937   9.496  38.223  0.00  0.00    -0.205 F 
ATOM     32  C22 XNC d          28.555  10.346  36.100  0.00  0.00    -0.013 A 
ATOM     33  C21 XNC d          28.735  10.129  34.733  0.00  0.00     0.072 A 
ATOM     34  H23 XNC d          28.749  11.325  36.524  0.00  0.00     0.092 H 
ATOM     35  C20 XNC d          28.479   8.856  34.205  0.00  0.00    -0.050 A 
ATOM     36  C19 XNC d          28.042   7.826  35.030  0.00  0.00    -0.069 A 
ATOM     37  H24 XNC d          28.623   8.674  33.146  0.00  0.00     0.087 H 
ATOM     38  H25 XNC d          27.836   6.849  34.608  0.00  0.00     0.084 H 
BRANCH  33  39
ATOM     39  O24 XNC d          29.179  11.170  33.958  0.00  0.00    -0.347 OA
BRANCH  39  40
ATOM     40  C25 XNC d          29.440  11.041  32.543  0.00  0.00     0.050 C 
ATOM     41  H26 XNC d          30.044  10.139  32.366  0.00  0.00     0.082 H 
ATOM     42  H27 XNC d          29.992  11.926  32.194  0.00  0.00     0.082 H 
BRANCH  40  43
ATOM     43  C26 XNC d          28.132  10.929  31.772  0.00  0.00    -0.034 A 
ATOM     44  C31 XNC d          28.023  10.031  30.726  0.00  0.00    -0.075 A 
ATOM     45  C30 XNC d          26.826   9.888  30.034  0.00  0.00    -0.082 A 
ATOM     46  H28 XNC d          28.881   9.432  30.442  0.00  0.00     0.084 H 
ATOM     47  C29 XNC d          25.729  10.663  30.382  0.00  0.00    -0.083 A 
ATOM     48  H29 XNC d          26.750   9.172  29.224  0.00  0.00     0.083 H 
ATOM     49  C28 XNC d          25.835  11.580  31.440  0.00  0.00    -0.082 A 
ATOM     50  H30 XNC d          24.796  10.561  29.840  0.00  0.00     0.083 H 
ATOM     51  C27 XNC d          27.030  11.707  32.137  0.00  0.00    -0.075 A 
ATOM     52  H31 XNC d          24.982  12.191  31.714  0.00  0.00     0.083 H 
ATOM     53  H32 XNC d          27.107  12.407  32.961  0.00  0.00     0.084 H 
ENDBRANCH  40  43
ENDBRANCH  39  40
ENDBRANCH  33  39
ENDBRANCH   7  29
BRANCH   2  54
ATOM     54  C17 XNC d          29.210   5.728  40.502  0.00  0.00     0.125 A 
ATOM     55  C43 XNC d          29.629   4.439  40.216  0.00  0.00    -0.050 A 
ATOM     56  C42 XNC d          30.543   3.833  41.074  0.00  0.00    -0.079 A 
ATOM     57  H1  XNC d          29.254   3.914  39.345  0.00  0.00     0.087 H 
ATOM     58  C41 XNC d          31.046   4.534  42.185  0.00  0.00    -0.059 A 
ATOM     59  H2  XNC d          30.868   2.816  40.885  0.00  0.00     0.083 H 
ATOM     60  C40 XNC d          30.644   5.834  42.448  0.00  0.00     0.031 A 
ATOM     61  H3  XNC d          31.758   4.051  42.844  0.00  0.00     0.086 H 
ATOM     62  N39 XNC d          29.720   6.416  41.604  0.00  0.00    -0.248 NA
BRANCH  60  63
ATOM     63  C44 XNC d          31.151   6.608  43.635  0.00  0.00    -0.035 C 
ATOM     64  H4  XNC d          30.698   7.610  43.640  0.00  0.00     0.035 H 
ATOM     65  H5  XNC d          32.245   6.701  43.572  0.00  0.00     0.035 H 
ATOM     66  H6  XNC d          30.881   6.079  44.561  0.00  0.00     0.035 H 
ENDBRANCH  60  63
ENDBRANCH   2  54
BRANCH  18  67
ATOM     67  O36 XNC d          31.604   4.678  35.105  0.00  0.00    -0.358 OA
ATOM     68  H21 XNC d          32.515   4.777  34.855  0.00  0.00     0.217 HD
ENDBRANCH  18  67
BRANCH  13  69
ATOM     69  C37 XNC d          25.344   2.190  34.231  0.00  0.00    -0.068 C 
ATOM     70  H12 XNC d          26.055   1.888  33.448  0.00  0.00     0.028 H 
ATOM     71  H13 XNC d          24.335   2.264  33.800  0.00  0.00     0.028 H 
ATOM     72  H14 XNC d          25.345   1.440  35.036  0.00  0.00     0.028 H 
ENDBRANCH  13  69
BRANCH  13  73
ATOM     73  C38 XNC d          25.835   4.618  33.666  0.00  0.00    -0.068 C 
ATOM     74  H15 XNC d          26.132   5.591  34.084  0.00  0.00     0.028 H 
ATOM     75  H16 XNC d          24.849   4.710  33.188  0.00  0.00     0.028 H 
ATOM     76  H17 XNC d          26.576   4.298  32.919  0.00  0.00     0.028 H 
ENDBRANCH  13  73
TORSDOF 9
