MODEL 1
REMARK VINA RESULT:      -8.5      0.000      0.000
REMARK  9 active torsions:
REMARK  status: ('A' for Active; 'I' for Inactive)
REMARK    1  A    between atoms: C16_2  and  C17_3 
REMARK       I    between atoms: C16_2  and  N7_10 
REMARK    2  A    between atoms: C40_7  and  C44_8 
REMARK    3  A    between atoms: C8_14  and  C18_30 
REMARK    4  A    between atoms: C14_20  and  C37_21 
REMARK    5  A    between atoms: C14_20  and  C38_22 
REMARK    6  A    between atoms: C6_27  and  O36_28 
REMARK    7  A    between atoms: C21_34  and  O24_37 
REMARK    8  A    between atoms: O24_37  and  C25_38 
REMARK    9  A    between atoms: C25_38  and  C26_39 
ROOT
ATOM      1  O35 XNC d          29.917   5.342  33.252  0.00  0.00    -0.265 OA
ATOM      2  C16 XNC d          29.260   6.073  33.977  0.00  0.00     0.278 C 
ATOM      3  N7  XNC d          29.103   5.805  35.347  0.00  0.00    -0.296 N 
ATOM      4  C4  XNC d          28.706   6.779  36.304  0.00  0.00     0.068 A 
ATOM      5  C3  XNC d          29.471   7.940  36.495  0.00  0.00    -0.054 A 
ATOM      6  C2  XNC d          29.111   8.882  37.449  0.00  0.00    -0.078 A 
ATOM      7  C8  XNC d          29.349   4.436  35.847  0.00  0.00     0.086 C 
ATOM      8  C9  XNC d          28.038   3.696  35.917  0.00  0.00     0.087 C 
ATOM      9  S12 XNC d          28.152   2.117  35.272  0.00  0.00     0.176 S 
ATOM     10  O32 XNC d          29.206   1.411  35.997  0.00  0.00    -0.223 OA
ATOM     11  O33 XNC d          28.522   2.142  33.877  0.00  0.00    -0.223 OA
ATOM     12  C13 XNC d          26.541   1.325  35.454  0.00  0.00     0.040 C 
ATOM     13  C14 XNC d          25.775   1.817  36.679  0.00  0.00    -0.029 C 
ATOM     14  C15 XNC d          25.614   3.343  36.483  0.00  0.00    -0.018 C 
ATOM     15  C10 XNC d          26.880   4.187  36.420  0.00  0.00     0.030 C 
ATOM     16  N11 XNC d          26.710   5.460  36.948  0.00  0.00    -0.354 N 
ATOM     17  C5  XNC d          27.559   6.572  37.078  0.00  0.00     0.093 A 
ATOM     18  C6  XNC d          27.198   7.530  38.007  0.00  0.00     0.094 A 
ATOM     19  C1  XNC d          27.974   8.670  38.188  0.00  0.00    -0.049 A 
ATOM     20  H7  XNC d          30.355   8.104  35.889  0.00  0.00     0.087 H 
ATOM     21  H8  XNC d          29.716   9.767  37.607  0.00  0.00     0.083 H 
ATOM     22  H9  XNC d          29.986   3.898  35.129  0.00  0.00     0.090 H 
ATOM     23  H10 XNC d          26.692   0.239  35.547  0.00  0.00     0.057 H 
ATOM     24  H11 XNC d          25.942   1.537  34.557  0.00  0.00     0.057 H 
ATOM     25  H18 XNC d          25.011   3.719  37.322  0.00  0.00     0.043 H 
ATOM     26  H19 XNC d          25.069   3.498  35.541  0.00  0.00     0.043 H 
ATOM     27  H20 XNC d          25.765   5.623  37.323  0.00  0.00     0.166 HD
ATOM     28  H22 XNC d          27.675   9.405  38.927  0.00  0.00     0.087 H 
ENDROOT
BRANCH   7  29
ATOM     29  C18 XNC d          30.148   4.578  37.164  0.00  0.00     0.009 A 
ATOM     30  C23 XNC d          31.423   5.127  37.120  0.00  0.00     0.127 A 
ATOM     31  F34 XNC d          31.909   5.505  35.940  0.00  0.00    -0.205 F 
ATOM     32  C22 XNC d          32.187   5.263  38.280  0.00  0.00    -0.013 A 
ATOM     33  C21 XNC d          31.668   4.850  39.508  0.00  0.00     0.072 A 
ATOM     34  H23 XNC d          33.183   5.690  38.228  0.00  0.00     0.092 H 
ATOM     35  C20 XNC d          30.379   4.301  39.553  0.00  0.00    -0.050 A 
ATOM     36  C19 XNC d          29.632   4.161  38.390  0.00  0.00    -0.069 A 
ATOM     37  H24 XNC d          29.963   3.983  40.503  0.00  0.00     0.087 H 
ATOM     38  H25 XNC d          28.641   3.724  38.436  0.00  0.00     0.084 H 
BRANCH  33  39
ATOM     39  O24 XNC d          32.435   5.017  40.632  0.00  0.00    -0.347 OA
BRANCH  39  40
ATOM     40  C25 XNC d          31.986   5.761  41.787  0.00  0.00     0.050 C 
ATOM     41  H26 XNC d          32.813   5.848  42.507  0.00  0.00     0.082 H 
ATOM     42  H27 XNC d          31.146   5.228  42.256  0.00  0.00     0.082 H 
BRANCH  40  43
ATOM     43  C26 XNC d          31.530   7.153  41.374  0.00  0.00    -0.034 A 
ATOM     44  C31 XNC d          30.234   7.559  41.631  0.00  0.00    -0.075 A 
ATOM     45  C30 XNC d          29.810   8.839  41.296  0.00  0.00    -0.082 A 
ATOM     46  H28 XNC d          29.539   6.870  42.099  0.00  0.00     0.084 H 
ATOM     47  C29 XNC d          30.688   9.720  40.682  0.00  0.00    -0.083 A 
ATOM     48  H29 XNC d          28.794   9.149  41.513  0.00  0.00     0.083 H 
ATOM     49  C28 XNC d          32.005   9.313  40.414  0.00  0.00    -0.082 A 
ATOM     50  H30 XNC d          30.360  10.717  40.411  0.00  0.00     0.083 H 
ATOM     51  C27 XNC d          32.426   8.037  40.766  0.00  0.00    -0.075 A 
ATOM     52  H31 XNC d          32.695   9.996  39.931  0.00  0.00     0.083 H 
ATOM     53  H32 XNC d          33.446   7.727  40.569  0.00  0.00     0.084 H 
ENDBRANCH  40  43
ENDBRANCH  39  40
ENDBRANCH  33  39
ENDBRANCH   7  29
BRANCH   2  54
ATOM     54  C17 XNC d          28.641   7.273  33.358  0.00  0.00     0.125 A 
ATOM     55  C43 XNC d          27.345   7.237  32.871  0.00  0.00    -0.050 A 
ATOM     56  C42 XNC d          26.819   8.394  32.300  0.00  0.00    -0.079 A 
ATOM     57  H1  XNC d          26.753   6.331  32.932  0.00  0.00     0.087 H 
ATOM     58  C41 XNC d          27.585   9.573  32.252  0.00  0.00    -0.059 A 
ATOM     59  H2  XNC d          25.815   8.385  31.890  0.00  0.00     0.083 H 
ATOM     60  C40 XNC d          28.871   9.608  32.768  0.00  0.00     0.031 A 
ATOM     61  H3  XNC d          27.163  10.466  31.806  0.00  0.00     0.086 H 
ATOM     62  N39 XNC d          29.389   8.450  33.311  0.00  0.00    -0.248 NA
BRANCH  60  63
ATOM     63  C44 XNC d          29.722  10.848  32.721  0.00  0.00    -0.035 C 
ATOM     64  H4  XNC d          29.173  11.687  33.171  0.00  0.00     0.035 H 
ATOM     65  H5  XNC d          29.964  11.087  31.675  0.00  0.00     0.035 H 
ATOM     66  H6  XNC d          30.653  10.676  33.282  0.00  0.00     0.035 H 
ENDBRANCH  60  63
ENDBRANCH   2  54
BRANCH  18  67
ATOM     67  O36 XNC d          26.088   7.378  38.783  0.00  0.00    -0.358 OA
ATOM     68  H21 XNC d          25.734   6.505  38.660  0.00  0.00     0.217 HD
ENDBRANCH  18  67
BRANCH  13  69
ATOM     69  C37 XNC d          24.379   1.146  36.688  0.00  0.00    -0.068 C 
ATOM     70  H12 XNC d          23.637   1.850  37.094  0.00  0.00     0.028 H 
ATOM     71  H13 XNC d          24.410   0.244  37.317  0.00  0.00     0.028 H 
ATOM     72  H14 XNC d          24.098   0.868  35.662  0.00  0.00     0.028 H 
ENDBRANCH  13  69
BRANCH  13  73
ATOM     73  C38 XNC d          26.526   1.500  38.001  0.00  0.00    -0.068 C 
ATOM     74  H15 XNC d          27.007   2.414  38.377  0.00  0.00     0.028 H 
ATOM     75  H16 XNC d          27.292   0.733  37.813  0.00  0.00     0.028 H 
ATOM     76  H17 XNC d          25.810   1.127  38.748  0.00  0.00     0.028 H 
ENDBRANCH  13  73
TORSDOF 9
ENDMDL
MODEL 2
REMARK VINA RESULT:      -6.7      2.504      6.625
REMARK  9 active torsions:
REMARK  status: ('A' for Active; 'I' for Inactive)
REMARK    1  A    between atoms: C16_2  and  C17_3 
REMARK       I    between atoms: C16_2  and  N7_10 
REMARK    2  A    between atoms: C40_7  and  C44_8 
REMARK    3  A    between atoms: C8_14  and  C18_30 
REMARK    4  A    between atoms: C14_20  and  C37_21 
REMARK    5  A    between atoms: C14_20  and  C38_22 
REMARK    6  A    between atoms: C6_27  and  O36_28 
REMARK    7  A    between atoms: C21_34  and  O24_37 
REMARK    8  A    between atoms: O24_37  and  C25_38 
REMARK    9  A    between atoms: C25_38  and  C26_39 
ROOT
ATOM      1  O35 XNC d          26.975   9.873  35.918  0.00  0.00    -0.265 OA
ATOM      2  C16 XNC d          27.616   9.045  35.291  0.00  0.00     0.278 C 
ATOM      3  N7  XNC d          27.919   7.784  35.831  0.00  0.00    -0.296 N 
ATOM      4  C4  XNC d          28.299   6.658  35.049  0.00  0.00     0.068 A 
ATOM      5  C3  XNC d          27.442   6.162  34.055  0.00  0.00    -0.054 A 
ATOM      6  C2  XNC d          27.789   5.044  33.308  0.00  0.00    -0.078 A 
ATOM      7  C8  XNC d          27.856   7.592  37.295  0.00  0.00     0.086 C 
ATOM      8  C9  XNC d          29.235   7.773  37.873  0.00  0.00     0.087 C 
ATOM      9  S12 XNC d          29.224   8.751  39.277  0.00  0.00     0.176 S 
ATOM     10  O32 XNC d          28.314   8.139  40.242  0.00  0.00    -0.223 OA
ATOM     11  O33 XNC d          28.733  10.078  38.992  0.00  0.00    -0.223 OA
ATOM     12  C13 XNC d          30.916   8.854  39.895  0.00  0.00     0.040 C 
ATOM     13  C14 XNC d          31.734   7.602  39.595  0.00  0.00    -0.029 C 
ATOM     14  C15 XNC d          31.723   7.457  38.055  0.00  0.00    -0.018 C 
ATOM     15  C10 XNC d          30.379   7.248  37.372  0.00  0.00     0.030 C 
ATOM     16  N11 XNC d          30.466   6.457  36.234  0.00  0.00    -0.354 N 
ATOM     17  C5  XNC d          29.525   6.026  35.284  0.00  0.00     0.093 A 
ATOM     18  C6  XNC d          29.868   4.928  34.515  0.00  0.00     0.094 A 
ATOM     19  C1  XNC d          29.001   4.446  33.541  0.00  0.00    -0.049 A 
ATOM     20  H7  XNC d          26.497   6.658  33.868  0.00  0.00     0.087 H 
ATOM     21  H8  XNC d          27.114   4.652  32.556  0.00  0.00     0.083 H 
ATOM     22  H9  XNC d          27.215   8.371  37.735  0.00  0.00     0.090 H 
ATOM     23  H10 XNC d          30.883   9.001  40.985  0.00  0.00     0.057 H 
ATOM     24  H11 XNC d          31.410   9.717  39.424  0.00  0.00     0.057 H 
ATOM     25  H18 XNC d          32.357   6.594  37.802  0.00  0.00     0.043 H 
ATOM     26  H19 XNC d          32.165   8.372  37.636  0.00  0.00     0.043 H 
ATOM     27  H20 XNC d          31.420   6.115  36.047  0.00  0.00     0.166 HD
ATOM     28  H22 XNC d          29.289   3.581  32.954  0.00  0.00     0.087 H 
ENDROOT
BRANCH   7  29
ATOM     29  C18 XNC d          27.166   6.229  37.537  0.00  0.00     0.009 A 
ATOM     30  C23 XNC d          25.868   6.043  37.080  0.00  0.00     0.127 A 
ATOM     31  F34 XNC d          25.267   7.052  36.453  0.00  0.00    -0.205 F 
ATOM     32  C22 XNC d          25.199   4.835  37.287  0.00  0.00    -0.013 A 
ATOM     33  C21 XNC d          25.838   3.792  37.958  0.00  0.00     0.072 A 
ATOM     34  H23 XNC d          24.184   4.708  36.927  0.00  0.00     0.092 H 
ATOM     35  C20 XNC d          27.150   3.978  38.415  0.00  0.00    -0.050 A 
ATOM     36  C19 XNC d          27.802   5.188  38.211  0.00  0.00    -0.069 A 
ATOM     37  H24 XNC d          27.660   3.171  38.930  0.00  0.00     0.087 H 
ATOM     38  H25 XNC d          28.813   5.324  38.580  0.00  0.00     0.084 H 
BRANCH  33  39
ATOM     39  O24 XNC d          25.162   2.610  38.126  0.00  0.00    -0.347 OA
BRANCH  39  40
ATOM     40  C25 XNC d          25.770   1.318  37.906  0.00  0.00     0.050 C 
ATOM     41  H26 XNC d          24.990   0.544  37.914  0.00  0.00     0.082 H 
ATOM     42  H27 XNC d          26.494   1.117  38.709  0.00  0.00     0.082 H 
BRANCH  40  43
ATOM     43  C26 XNC d          26.489   1.294  36.564  0.00  0.00    -0.034 A 
ATOM     44  C31 XNC d          25.769   1.449  35.393  0.00  0.00    -0.075 A 
ATOM     45  C30 XNC d          26.412   1.466  34.161  0.00  0.00    -0.082 A 
ATOM     46  H28 XNC d          24.691   1.558  35.437  0.00  0.00     0.084 H 
ATOM     47  C29 XNC d          27.789   1.311  34.097  0.00  0.00    -0.083 A 
ATOM     48  H29 XNC d          25.838   1.600  33.252  0.00  0.00     0.083 H 
ATOM     49  C28 XNC d          28.525   1.149  35.282  0.00  0.00    -0.082 A 
ATOM     50  H30 XNC d          28.294   1.316  33.138  0.00  0.00     0.083 H 
ATOM     51  C27 XNC d          27.878   1.147  36.511  0.00  0.00    -0.075 A 
ATOM     52  H31 XNC d          29.601   1.024  35.238  0.00  0.00     0.083 H 
ATOM     53  H32 XNC d          28.448   1.033  37.426  0.00  0.00     0.084 H 
ENDBRANCH  40  43
ENDBRANCH  39  40
ENDBRANCH  33  39
ENDBRANCH   7  29
BRANCH   2  54
ATOM     54  C17 XNC d          28.056   9.414  33.921  0.00  0.00     0.125 A 
ATOM     55  C43 XNC d          29.288  10.009  33.701  0.00  0.00    -0.050 A 
ATOM     56  C42 XNC d          29.643  10.334  32.395  0.00  0.00    -0.079 A 
ATOM     57  H1  XNC d          29.959  10.216  34.527  0.00  0.00     0.087 H 
ATOM     58  C41 XNC d          28.777  10.033  31.328  0.00  0.00    -0.059 A 
ATOM     59  H2  XNC d          30.592  10.821  32.199  0.00  0.00     0.083 H 
ATOM     60  C40 XNC d          27.559   9.412  31.553  0.00  0.00     0.031 A 
ATOM     61  H3  XNC d          29.067  10.290  30.316  0.00  0.00     0.086 H 
ATOM     62  N39 XNC d          27.207   9.116  32.854  0.00  0.00    -0.248 NA
BRANCH  60  63
ATOM     63  C44 XNC d          26.603   9.089  30.437  0.00  0.00    -0.035 C 
ATOM     64  H4  XNC d          27.086   8.401  29.728  0.00  0.00     0.035 H 
ATOM     65  H5  XNC d          26.321  10.015  29.915  0.00  0.00     0.035 H 
ATOM     66  H6  XNC d          25.701   8.614  30.852  0.00  0.00     0.035 H 
ENDBRANCH  60  63
ENDBRANCH   2  54
BRANCH  18  67
ATOM     67  O36 XNC d          31.052   4.279  34.702  0.00  0.00    -0.358 OA
ATOM     68  H21 XNC d          31.745   4.916  34.832  0.00  0.00     0.217 HD
ENDBRANCH  18  67
BRANCH  13  69
ATOM     69  C37 XNC d          33.185   7.832  40.084  0.00  0.00    -0.068 C 
ATOM     70  H12 XNC d          33.494   8.860  39.844  0.00  0.00     0.028 H 
ATOM     71  H13 XNC d          33.858   7.122  39.581  0.00  0.00     0.028 H 
ATOM     72  H14 XNC d          33.235   7.678  41.172  0.00  0.00     0.028 H 
ENDBRANCH  13  69
BRANCH  13  73
ATOM     73  C38 XNC d          31.137   6.341  40.278  0.00  0.00    -0.068 C 
ATOM     74  H15 XNC d          30.877   5.598  39.511  0.00  0.00     0.028 H 
ATOM     75  H16 XNC d          30.234   6.620  40.840  0.00  0.00     0.028 H 
ATOM     76  H17 XNC d          31.879   5.912  40.967  0.00  0.00     0.028 H 
ENDBRANCH  13  73
TORSDOF 9
ENDMDL
MODEL 3
REMARK VINA RESULT:      -6.0      2.210      7.285
REMARK  9 active torsions:
REMARK  status: ('A' for Active; 'I' for Inactive)
REMARK    1  A    between atoms: C16_2  and  C17_3 
REMARK       I    between atoms: C16_2  and  N7_10 
REMARK    2  A    between atoms: C40_7  and  C44_8 
REMARK    3  A    between atoms: C8_14  and  C18_30 
REMARK    4  A    between atoms: C14_20  and  C37_21 
REMARK    5  A    between atoms: C14_20  and  C38_22 
REMARK    6  A    between atoms: C6_27  and  O36_28 
REMARK    7  A    between atoms: C21_34  and  O24_37 
REMARK    8  A    between atoms: O24_37  and  C25_38 
REMARK    9  A    between atoms: C25_38  and  C26_39 
ROOT
ATOM      1  O35 XNC d          29.254   2.896  35.244  0.00  0.00    -0.265 OA
ATOM      2  C16 XNC d          28.467   3.443  36.000  0.00  0.00     0.278 C 
ATOM      3  N7  XNC d          28.601   4.798  36.350  0.00  0.00    -0.296 N 
ATOM      4  C4  XNC d          27.544   5.587  36.882  0.00  0.00     0.068 A 
ATOM      5  C3  XNC d          26.357   5.766  36.156  0.00  0.00    -0.054 A 
ATOM      6  C2  XNC d          25.332   6.561  36.651  0.00  0.00    -0.078 A 
ATOM      7  C8  XNC d          29.910   5.462  36.173  0.00  0.00     0.086 C 
ATOM      8  C9  XNC d          30.661   5.421  37.478  0.00  0.00     0.087 C 
ATOM      9  S12 XNC d          32.295   4.959  37.268  0.00  0.00     0.176 S 
ATOM     10  O32 XNC d          32.907   5.893  36.326  0.00  0.00    -0.223 OA
ATOM     11  O33 XNC d          32.401   3.635  36.704  0.00  0.00    -0.223 OA
ATOM     12  C13 XNC d          33.092   4.991  38.886  0.00  0.00     0.040 C 
ATOM     13  C14 XNC d          32.496   6.039  39.820  0.00  0.00    -0.029 C 
ATOM     14  C15 XNC d          30.999   5.671  39.956  0.00  0.00    -0.018 C 
ATOM     15  C10 XNC d          30.144   5.703  38.698  0.00  0.00     0.030 C 
ATOM     16  N11 XNC d          28.828   6.072  38.945  0.00  0.00    -0.354 N 
ATOM     17  C5  XNC d          27.694   6.208  38.127  0.00  0.00     0.093 A 
ATOM     18  C6  XNC d          26.655   6.976  38.619  0.00  0.00     0.094 A 
ATOM     19  C1  XNC d          25.490   7.150  37.881  0.00  0.00    -0.049 A 
ATOM     20  H7  XNC d          26.238   5.278  35.196  0.00  0.00     0.087 H 
ATOM     21  H8  XNC d          24.425   6.713  36.077  0.00  0.00     0.083 H 
ATOM     22  H9  XNC d          30.505   4.899  35.438  0.00  0.00     0.090 H 
ATOM     23  H10 XNC d          34.161   5.212  38.746  0.00  0.00     0.057 H 
ATOM     24  H11 XNC d          32.981   4.001  39.352  0.00  0.00     0.057 H 
ATOM     25  H18 XNC d          30.552   6.375  40.674  0.00  0.00     0.043 H 
ATOM     26  H19 XNC d          30.947   4.651  40.362  0.00  0.00     0.043 H 
ATOM     27  H20 XNC d          28.646   6.291  39.934  0.00  0.00     0.166 HD
ATOM     28  H22 XNC d          24.690   7.761  38.284  0.00  0.00     0.087 H 
ENDROOT
BRANCH   7  29
ATOM     29  C18 XNC d          29.623   6.858  35.570  0.00  0.00     0.009 A 
ATOM     30  C23 XNC d          29.278   6.951  34.228  0.00  0.00     0.127 A 
ATOM     31  F34 XNC d          29.211   5.832  33.511  0.00  0.00    -0.205 F 
ATOM     32  C22 XNC d          29.024   8.190  33.636  0.00  0.00    -0.013 A 
ATOM     33  C21 XNC d          29.112   9.356  34.398  0.00  0.00     0.072 A 
ATOM     34  H23 XNC d          28.759   8.246  32.586  0.00  0.00     0.092 H 
ATOM     35  C20 XNC d          29.456   9.261  35.753  0.00  0.00    -0.050 A 
ATOM     36  C19 XNC d          29.716   8.023  36.329  0.00  0.00    -0.069 A 
ATOM     37  H24 XNC d          29.519  10.160  36.356  0.00  0.00     0.087 H 
ATOM     38  H25 XNC d          29.992   7.963  37.375  0.00  0.00     0.084 H 
BRANCH  33  39
ATOM     39  O24 XNC d          28.835  10.555  33.792  0.00  0.00    -0.347 OA
BRANCH  39  40
ATOM     40  C25 XNC d          29.261  10.875  32.449  0.00  0.00     0.050 C 
ATOM     41  H26 XNC d          30.005  10.136  32.119  0.00  0.00     0.082 H 
ATOM     42  H27 XNC d          29.711  11.878  32.440  0.00  0.00     0.082 H 
BRANCH  40  43
ATOM     43  C26 XNC d          28.072  10.850  31.498  0.00  0.00    -0.034 A 
ATOM     44  C31 XNC d          28.125  10.083  30.348  0.00  0.00    -0.075 A 
ATOM     45  C30 XNC d          27.037  10.018  29.486  0.00  0.00    -0.082 A 
ATOM     46  H28 XNC d          29.026   9.526  30.116  0.00  0.00     0.084 H 
ATOM     47  C29 XNC d          25.887  10.741  29.769  0.00  0.00    -0.083 A 
ATOM     48  H29 XNC d          27.087   9.404  28.595  0.00  0.00     0.083 H 
ATOM     49  C28 XNC d          25.829  11.526  30.932  0.00  0.00    -0.082 A 
ATOM     50  H30 XNC d          25.039  10.701  29.095  0.00  0.00     0.083 H 
ATOM     51  C27 XNC d          26.915  11.574  31.797  0.00  0.00    -0.075 A 
ATOM     52  H31 XNC d          24.934  12.096  31.156  0.00  0.00     0.083 H 
ATOM     53  H32 XNC d          26.865  12.171  32.700  0.00  0.00     0.084 H 
ENDBRANCH  40  43
ENDBRANCH  39  40
ENDBRANCH  33  39
ENDBRANCH   7  29
BRANCH   2  54
ATOM     54  C17 XNC d          27.345   2.627  36.529  0.00  0.00     0.125 A 
ATOM     55  C43 XNC d          27.424   2.024  37.774  0.00  0.00    -0.050 A 
ATOM     56  C42 XNC d          26.341   1.269  38.215  0.00  0.00    -0.079 A 
ATOM     57  H1  XNC d          28.308   2.138  38.391  0.00  0.00     0.087 H 
ATOM     58  C41 XNC d          25.186   1.152  37.421  0.00  0.00    -0.059 A 
ATOM     59  H2  XNC d          26.388   0.768  39.176  0.00  0.00     0.083 H 
ATOM     60  C40 XNC d          25.103   1.782  36.189  0.00  0.00     0.031 A 
ATOM     61  H3  XNC d          24.350   0.562  37.777  0.00  0.00     0.086 H 
ATOM     62  N39 XNC d          26.192   2.509  35.752  0.00  0.00    -0.248 NA
BRANCH  60  63
ATOM     63  C44 XNC d          23.889   1.667  35.307  0.00  0.00    -0.035 C 
ATOM     64  H4  XNC d          24.077   2.185  34.355  0.00  0.00     0.035 H 
ATOM     65  H5  XNC d          23.026   2.126  35.810  0.00  0.00     0.035 H 
ATOM     66  H6  XNC d          23.677   0.605  35.111  0.00  0.00     0.035 H 
ENDBRANCH  60  63
ENDBRANCH   2  54
BRANCH  18  67
ATOM     67  O36 XNC d          26.749   7.599  39.828  0.00  0.00    -0.358 OA
ATOM     68  H21 XNC d          26.870   8.532  39.694  0.00  0.00     0.217 HD
ENDBRANCH  18  67
BRANCH  13  69
ATOM     69  C37 XNC d          33.186   5.919  41.201  0.00  0.00    -0.068 C 
ATOM     70  H12 XNC d          34.278   5.898  41.065  0.00  0.00     0.028 H 
ATOM     71  H13 XNC d          32.861   4.992  41.694  0.00  0.00     0.028 H 
ATOM     72  H14 XNC d          32.912   6.783  41.825  0.00  0.00     0.028 H 
ENDBRANCH  13  69
BRANCH  13  73
ATOM     73  C38 XNC d          32.667   7.479  39.264  0.00  0.00    -0.068 C 
ATOM     74  H15 XNC d          33.037   8.139  40.063  0.00  0.00     0.028 H 
ATOM     75  H16 XNC d          31.698   7.850  38.901  0.00  0.00     0.028 H 
ATOM     76  H17 XNC d          33.390   7.468  38.434  0.00  0.00     0.028 H 
ENDBRANCH  13  73
TORSDOF 9
ENDMDL
MODEL 4
REMARK VINA RESULT:      -5.6      3.399      7.650
REMARK  9 active torsions:
REMARK  status: ('A' for Active; 'I' for Inactive)
REMARK    1  A    between atoms: C16_2  and  C17_3 
REMARK       I    between atoms: C16_2  and  N7_10 
REMARK    2  A    between atoms: C40_7  and  C44_8 
REMARK    3  A    between atoms: C8_14  and  C18_30 
REMARK    4  A    between atoms: C14_20  and  C37_21 
REMARK    5  A    between atoms: C14_20  and  C38_22 
REMARK    6  A    between atoms: C6_27  and  O36_28 
REMARK    7  A    between atoms: C21_34  and  O24_37 
REMARK    8  A    between atoms: O24_37  and  C25_38 
REMARK    9  A    between atoms: C25_38  and  C26_39 
ROOT
ATOM      1  O35 XNC d          29.747   4.073  42.649  0.00  0.00    -0.265 OA
ATOM      2  C16 XNC d          30.111   5.031  41.985  0.00  0.00     0.278 C 
ATOM      3  N7  XNC d          29.696   5.205  40.654  0.00  0.00    -0.296 N 
ATOM      4  C4  XNC d          29.745   6.449  39.966  0.00  0.00     0.068 A 
ATOM      5  C3  XNC d          29.045   7.561  40.457  0.00  0.00    -0.054 A 
ATOM      6  C2  XNC d          29.060   8.771  39.776  0.00  0.00    -0.078 A 
ATOM      7  C8  XNC d          29.183   4.042  39.900  0.00  0.00     0.086 C 
ATOM      8  C9  XNC d          30.307   3.445  39.094  0.00  0.00     0.087 C 
ATOM      9  S12 XNC d          30.354   1.740  39.216  0.00  0.00     0.176 S 
ATOM     10  O32 XNC d          29.056   1.224  38.789  0.00  0.00    -0.223 OA
ATOM     11  O33 XNC d          30.568   1.313  40.578  0.00  0.00    -0.223 OA
ATOM     12  C13 XNC d          31.706   1.146  38.179  0.00  0.00     0.040 C 
ATOM     13  C14 XNC d          31.956   2.036  36.965  0.00  0.00    -0.029 C 
ATOM     14  C15 XNC d          32.281   3.437  37.537  0.00  0.00    -0.018 C 
ATOM     15  C10 XNC d          31.202   4.138  38.351  0.00  0.00     0.030 C 
ATOM     16  N11 XNC d          31.232   5.520  38.215  0.00  0.00    -0.354 N 
ATOM     17  C5  XNC d          30.477   6.562  38.778  0.00  0.00     0.093 A 
ATOM     18  C6  XNC d          30.503   7.780  38.123  0.00  0.00     0.094 A 
ATOM     19  C1  XNC d          29.796   8.868  38.621  0.00  0.00    -0.049 A 
ATOM     20  H7  XNC d          28.486   7.475  41.382  0.00  0.00     0.087 H 
ATOM     21  H8  XNC d          28.501   9.621  40.149  0.00  0.00     0.083 H 
ATOM     22  H9  XNC d          28.847   3.271  40.610  0.00  0.00     0.090 H 
ATOM     23  H10 XNC d          31.459   0.133  37.827  0.00  0.00     0.057 H 
ATOM     24  H11 XNC d          32.624   1.111  38.784  0.00  0.00     0.057 H 
ATOM     25  H18 XNC d          32.527   4.090  36.687  0.00  0.00     0.043 H 
ATOM     26  H19 XNC d          33.163   3.331  38.185  0.00  0.00     0.043 H 
ATOM     27  H20 XNC d          31.961   5.850  37.566  0.00  0.00     0.166 HD
ATOM     28  H22 XNC d          29.826   9.812  38.088  0.00  0.00     0.087 H 
ENDROOT
BRANCH   7  29
ATOM     29  C18 XNC d          27.939   4.530  39.119  0.00  0.00     0.009 A 
ATOM     30  C23 XNC d          26.694   4.460  39.729  0.00  0.00     0.127 A 
ATOM     31  F34 XNC d          26.619   3.971  40.964  0.00  0.00    -0.205 F 
ATOM     32  C22 XNC d          25.541   4.876  39.059  0.00  0.00    -0.013 A 
ATOM     33  C21 XNC d          25.634   5.374  37.758  0.00  0.00     0.072 A 
ATOM     34  H23 XNC d          24.576   4.812  39.547  0.00  0.00     0.092 H 
ATOM     35  C20 XNC d          26.892   5.448  37.144  0.00  0.00    -0.050 A 
ATOM     36  C19 XNC d          28.031   5.022  37.818  0.00  0.00    -0.069 A 
ATOM     37  H24 XNC d          26.977   5.841  36.137  0.00  0.00     0.087 H 
ATOM     38  H25 XNC d          28.997   5.074  37.329  0.00  0.00     0.084 H 
BRANCH  33  39
ATOM     39  O24 XNC d          24.487   5.794  37.135  0.00  0.00    -0.347 OA
BRANCH  39  40
ATOM     40  C25 XNC d          24.258   5.633  35.718  0.00  0.00     0.050 C 
ATOM     41  H26 XNC d          24.846   6.382  35.167  0.00  0.00     0.082 H 
ATOM     42  H27 XNC d          23.188   5.777  35.504  0.00  0.00     0.082 H 
BRANCH  40  43
ATOM     43  C26 XNC d          24.675   4.239  35.270  0.00  0.00    -0.034 A 
ATOM     44  C31 XNC d          24.209   3.128  35.948  0.00  0.00    -0.075 A 
ATOM     45  C30 XNC d          24.549   1.846  35.532  0.00  0.00    -0.082 A 
ATOM     46  H28 XNC d          23.571   3.258  36.815  0.00  0.00     0.084 H 
ATOM     47  C29 XNC d          25.378   1.673  34.433  0.00  0.00    -0.083 A 
ATOM     48  H29 XNC d          24.167   0.983  36.065  0.00  0.00     0.083 H 
ATOM     49  C28 XNC d          25.859   2.797  33.743  0.00  0.00    -0.082 A 
ATOM     50  H30 XNC d          25.653   0.675  34.110  0.00  0.00     0.083 H 
ATOM     51  C27 XNC d          25.503   4.075  34.156  0.00  0.00    -0.075 A 
ATOM     52  H31 XNC d          26.510   2.668  32.886  0.00  0.00     0.083 H 
ATOM     53  H32 XNC d          25.865   4.941  33.615  0.00  0.00     0.084 H 
ENDBRANCH  40  43
ENDBRANCH  39  40
ENDBRANCH  33  39
ENDBRANCH   7  29
BRANCH   2  54
ATOM     54  C17 XNC d          31.002   6.021  42.642  0.00  0.00     0.125 A 
ATOM     55  C43 XNC d          32.323   5.717  42.924  0.00  0.00    -0.050 A 
ATOM     56  C42 XNC d          33.109   6.685  43.544  0.00  0.00    -0.079 A 
ATOM     57  H1  XNC d          32.737   4.747  42.670  0.00  0.00     0.087 H 
ATOM     58  C41 XNC d          32.571   7.950  43.843  0.00  0.00    -0.059 A 
ATOM     59  H2  XNC d          34.140   6.463  43.797  0.00  0.00     0.083 H 
ATOM     60  C40 XNC d          31.256   8.257  43.530  0.00  0.00     0.031 A 
ATOM     61  H3  XNC d          33.194   8.696  44.323  0.00  0.00     0.086 H 
ATOM     62  N39 XNC d          30.481   7.281  42.938  0.00  0.00    -0.248 NA
BRANCH  60  63
ATOM     63  C44 XNC d          30.645   9.595  43.848  0.00  0.00    -0.035 C 
ATOM     64  H4  XNC d          30.664  10.229  42.951  0.00  0.00     0.035 H 
ATOM     65  H5  XNC d          31.220  10.079  44.651  0.00  0.00     0.035 H 
ATOM     66  H6  XNC d          29.604   9.454  44.177  0.00  0.00     0.035 H 
ENDBRANCH  60  63
ENDBRANCH   2  54
BRANCH  18  67
ATOM     67  O36 XNC d          31.203   7.943  36.965  0.00  0.00    -0.358 OA
ATOM     68  H21 XNC d          30.609   7.887  36.226  0.00  0.00     0.217 HD
ENDBRANCH  18  67
BRANCH  13  69
ATOM     69  C37 XNC d          33.187   1.492  36.200  0.00  0.00    -0.068 C 
ATOM     70  H12 XNC d          33.421   2.159  35.358  0.00  0.00     0.028 H 
ATOM     71  H13 XNC d          32.965   0.485  35.817  0.00  0.00     0.028 H 
ATOM     72  H14 XNC d          34.051   1.443  36.880  0.00  0.00     0.028 H 
ENDBRANCH  13  69
BRANCH  13  73
ATOM     73  C38 XNC d          30.725   2.092  36.021  0.00  0.00    -0.068 C 
ATOM     74  H15 XNC d          31.002   1.694  35.033  0.00  0.00     0.028 H 
ATOM     75  H16 XNC d          30.390   3.134  35.915  0.00  0.00     0.028 H 
ATOM     76  H17 XNC d          29.910   1.486  36.444  0.00  0.00     0.028 H 
ENDBRANCH  13  73
TORSDOF 9
ENDMDL
