MODEL 1
REMARK VINA RESULT:      -5.2      0.000      0.000
REMARK WARNING: 32 MAX_TORS EXCEEDED!!!
REMARK  34 active torsions:
REMARK  status: ('A' for Active; 'I' for Inactive)
REMARK    1  A    between atoms: N_1  and  CA_2 
REMARK    2  A    between atoms: CA_2  and  CB_3 
REMARK    3  A    between atoms: CA_2  and  C_6 
REMARK    4  A    between atoms: CB_3  and  CG1_4 
REMARK    5  A    between atoms: CB_3  and  CG2_5 
REMARK       I    between atoms: C_6  and  N_8 
REMARK    6  A    between atoms: CA_9  and  C_13 
REMARK       I    between atoms: C_13  and  N_15 
REMARK    7  A    between atoms: N_15  and  CA_16 
REMARK    8  A    between atoms: CA_16  and  C_17 
REMARK       I    between atoms: C_17  and  N_19 
REMARK    9  A    between atoms: N_19  and  CA_20 
REMARK   10  A    between atoms: CA_20  and  C_21 
REMARK   11  A    between atoms: CA_20  and  CB_23 
REMARK       I    between atoms: C_21  and  N_25 
REMARK   12  A    between atoms: CB_23  and  OG_24 
REMARK   13  A    between atoms: N_25  and  CA_26 
REMARK   14  A    between atoms: CA_26  and  C_27 
REMARK   15  A    between atoms: CA_26  and  CB_29 
REMARK       I    between atoms: C_27  and  N_34 
REMARK   16  A    between atoms: CB_29  and  CG_30 
REMARK   17  A    between atoms: CG_30  and  CD_31 
REMARK       I    between atoms: CD_31  and  NE2_33 
REMARK   18  A    between atoms: N_34  and  CA_35 
REMARK   19  A    between atoms: CA_35  and  C_36 
REMARK   20  A    between atoms: CA_35  and  CB_38 
REMARK       I    between atoms: C_36  and  N_44 
REMARK   21  A    between atoms: CB_38  and  CG_39 
REMARK   22  A    between atoms: N_44  and  CA_45 
REMARK   23  A    between atoms: CA_45  and  C_46 
REMARK   24  A    between atoms: CA_45  and  CB_48 
REMARK       I    between atoms: C_46  and  N_56 
REMARK   25  A    between atoms: CB_48  and  CG_49 
REMARK   26  A    between atoms: CZ_54  and  OH_55 
REMARK   27  A    between atoms: N_56  and  CA_57 
REMARK   28  A    between atoms: CA_57  and  C_58 
REMARK   29  A    between atoms: CA_57  and  CB_60 
REMARK       I    between atoms: C_58  and  N_64 
REMARK   30  A    between atoms: CB_60  and  CG_61 
REMARK   31  A    between atoms: N_64  and  CA_65 
REMARK   32  A    between atoms: CA_65  and  C_66 
REMARK   33  A    between atoms: CA_65  and  CB_69 
REMARK   34  A    between atoms: CB_69  and  OG_70 
ROOT
ATOM      1  CA  DVA d          46.103  51.676  90.737  0.00  0.00     0.090 C 
ATOM      2  H28 DVA d          45.131  51.291  90.395  0.00  0.00     0.087 H 
ENDROOT
BRANCH   1   3
ATOM      3  N   DVA d          46.138  51.639  92.190  0.00  0.00    -0.346 N 
ATOM      4  C   DVA d          45.155  52.198  92.872  0.00  0.00     0.243 C 
ATOM      5  O   DVA d          44.204  52.736  92.327  0.00  0.00    -0.271 OA
ATOM      6  H27 DVA d          46.897  51.195  92.667  0.00  0.00     0.163 HD
BRANCH   4   7
ATOM      7  CA  DVA d          45.261  52.172  94.385  0.00  0.00     0.109 C 
ATOM      8  H23 DVA d          45.956  51.388  94.718  0.00  0.00     0.090 H 
BRANCH   7   9
ATOM      9  N   DVA d          43.938  51.928  94.913  0.00  0.00    -0.344 N 
ATOM     10  C   DVA d          43.652  50.839  95.608  0.00  0.00     0.236 C 
ATOM     11  O   DVA d          44.480  49.963  95.860  0.00  0.00    -0.272 OA
ATOM     12  H22 DVA d          43.217  52.602  94.748  0.00  0.00     0.163 HD
BRANCH  10  13
ATOM     13  CA  DVA d          42.232  50.714  96.095  0.00  0.00     0.069 C 
ATOM     14  H20 DVA d          41.940  49.654  96.137  0.00  0.00     0.078 H 
ATOM     15  H21 DVA d          42.136  51.161  97.094  0.00  0.00     0.078 H 
BRANCH  13  16
ATOM     16  N   DVA d          41.394  51.419  95.156  0.00  0.00    -0.351 N 
ATOM     17  C   DVA d          40.266  51.998  95.544  0.00  0.00     0.241 C 
ATOM     18  O   DVA d          39.866  51.988  96.713  0.00  0.00    -0.271 OA
ATOM     19  H19 DVA d          41.668  51.473  94.195  0.00  0.00     0.163 HD
BRANCH  17  20
ATOM     20  CA  DVA d          39.486  52.702  94.436  0.00  0.00     0.091 C 
ATOM     21  N   DVA d          38.404  53.518  95.008  0.00  0.00    -0.337 N 
ATOM     22  C   DVA d          38.357  54.721  95.637  0.00  0.00     0.251 C 
ATOM     23  CD  DVA d          37.110  52.834  94.821  0.00  0.00    -0.001 C 
ATOM     24  O   DVA d          37.292  55.180  96.067  0.00  0.00    -0.271 OA
ATOM     25  CG  DVA d          37.526  51.442  94.384  0.00  0.00    -0.048 C 
ATOM     26  H17 DVA d          36.508  53.329  94.045  0.00  0.00     0.064 H 
ATOM     27  H18 DVA d          36.540  52.800  95.762  0.00  0.00     0.064 H 
ATOM     28  CB  DVA d          38.735  51.711  93.558  0.00  0.00    -0.036 C 
ATOM     29  H15 DVA d          37.769  50.809  95.250  0.00  0.00     0.035 H 
ATOM     30  H16 DVA d          36.737  50.960  93.788  0.00  0.00     0.035 H 
ATOM     31  H13 DVA d          39.321  50.795  93.394  0.00  0.00     0.036 H 
ATOM     32  H14 DVA d          38.468  52.155  92.588  0.00  0.00     0.036 H 
ATOM     33  H12 DVA d          40.175  53.316  93.837  0.00  0.00     0.087 H 
BRANCH  22  34
ATOM     34  CA  DVA d          39.665  55.517  95.861  0.00  0.00     0.178 C 
ATOM     35  H4  DVA d          40.495  54.893  95.499  0.00  0.00     0.099 H 
BRANCH  34  36
ATOM     36  N   DVA d          39.853  55.743  97.322  0.00  0.00    -0.066 N 
ATOM     37  H1  DVA d          39.153  56.387  97.655  0.00  0.00     0.275 HD
ATOM     38  H2  DVA d          40.770  56.129  97.487  0.00  0.00     0.275 HD
ATOM     39  H3  DVA d          39.764  54.867  97.811  0.00  0.00     0.275 HD
ENDBRANCH  34  36
BRANCH  34  40
ATOM     40  CB  DVA d          39.740  56.859  95.106  0.00  0.00    -0.025 C 
ATOM     41  H5  DVA d          38.750  57.338  95.119  0.00  0.00     0.042 H 
BRANCH  40  42
ATOM     42  CG1 DVA d          40.746  57.783  95.772  0.00  0.00    -0.071 C 
ATOM     43  H6  DVA d          40.645  57.711  96.864  0.00  0.00     0.028 H 
ATOM     44  H7  DVA d          40.558  58.820  95.455  0.00  0.00     0.028 H 
ATOM     45  H8  DVA d          41.765  57.490  95.478  0.00  0.00     0.028 H 
ENDBRANCH  40  42
BRANCH  40  46
ATOM     46  CG2 DVA d          40.151  56.588  93.656  0.00  0.00    -0.071 C 
ATOM     47  H9  DVA d          40.221  55.502  93.491  0.00  0.00     0.028 H 
ATOM     48  H10 DVA d          41.128  57.053  93.459  0.00  0.00     0.028 H 
ATOM     49  H11 DVA d          39.399  57.014  92.977  0.00  0.00     0.028 H 
ENDBRANCH  40  46
ENDBRANCH  34  40
ENDBRANCH  22  34
ENDBRANCH  17  20
ENDBRANCH  13  16
ENDBRANCH  10  13
ENDBRANCH   7   9
BRANCH   7  50
ATOM     50  CB  DVA d          45.755  53.546  94.825  0.00  0.00     0.044 C 
ATOM     51  H24 DVA d          46.561  53.876  94.152  0.00  0.00     0.077 H 
ATOM     52  H25 DVA d          46.140  53.482  95.854  0.00  0.00     0.077 H 
BRANCH  50  53
ATOM     53  OG  DVA d          44.693  54.484  94.778  0.00  0.00    -0.398 OA
ATOM     54  H26 DVA d          43.931  54.119  95.213  0.00  0.00     0.209 HD
ENDBRANCH  50  53
ENDBRANCH   7  50
ENDBRANCH   4   7
ENDBRANCH   1   3
BRANCH   1  55
ATOM     55  C   DVA d          46.265  53.108  90.234  0.00  0.00     0.241 C 
ATOM     56  O   DVA d          47.372  53.655  90.240  0.00  0.00    -0.271 OA
ATOM     57  N   DVA d          45.158  53.713  89.799  0.00  0.00    -0.346 N 
ATOM     58  H35 DVA d          44.296  53.205  89.793  0.00  0.00     0.163 HD
BRANCH  57  59
ATOM     59  CA  DVA d          45.173  55.114  89.325  0.00  0.00     0.094 C 
ATOM     60  H36 DVA d          46.197  55.497  89.442  0.00  0.00     0.088 H 
BRANCH  59  61
ATOM     61  C   DVA d          44.743  55.278  87.896  0.00  0.00     0.241 C 
ATOM     62  O   DVA d          45.461  55.898  87.099  0.00  0.00    -0.271 OA
ATOM     63  N   DVA d          43.562  54.756  87.584  0.00  0.00    -0.346 N 
ATOM     64  H42 DVA d          43.070  54.203  88.257  0.00  0.00     0.163 HD
BRANCH  63  65
ATOM     65  CA  DVA d          42.977  54.983  86.264  0.00  0.00     0.093 C 
ATOM     66  H43 DVA d          43.437  55.893  85.852  0.00  0.00     0.088 H 
BRANCH  65  67
ATOM     67  C   DVA d          43.195  53.872  85.244  0.00  0.00     0.241 C 
ATOM     68  O   DVA d          43.203  52.693  85.610  0.00  0.00    -0.271 OA
ATOM     69  N   DVA d          43.383  54.256  83.983  0.00  0.00    -0.345 N 
ATOM     70  H51 DVA d          43.378  55.232  83.767  0.00  0.00     0.163 HD
BRANCH  69  71
ATOM     71  CA  DVA d          43.596  53.289  82.897  0.00  0.00     0.098 C 
ATOM     72  H52 DVA d          43.868  53.857  81.994  0.00  0.00     0.088 H 
BRANCH  71  73
ATOM     73  C   DVA d          44.702  52.273  83.173  0.00  0.00     0.241 C 
ATOM     74  O   DVA d          45.895  52.605  83.190  0.00  0.00    -0.271 OA
ATOM     75  N   DVA d          44.253  51.038  83.407  0.00  0.00    -0.343 N 
ATOM     76  H55 DVA d          43.265  50.900  83.349  0.00  0.00     0.163 HD
BRANCH  75  77
ATOM     77  CA  DVA d          45.065  49.866  83.740  0.00  0.00     0.116 C 
ATOM     78  H56 DVA d          45.849  49.797  82.970  0.00  0.00     0.093 H 
BRANCH  77  79
ATOM     79  C   DVA d          45.772  49.969  85.084  0.00  0.00     0.198 C 
ATOM     80  O   DVA d          47.018  50.026  85.099  0.00  0.00    -0.646 OA
ATOM     81  OXT DVA d          45.052  49.998  86.108  0.00  0.00    -0.646 OA
ENDBRANCH  77  79
BRANCH  77  82
ATOM     82  CB  DVA d          44.242  48.574  83.673  0.00  0.00     0.045 C 
ATOM     83  H57 DVA d          44.820  47.755  84.127  0.00  0.00     0.077 H 
ATOM     84  H58 DVA d          44.033  48.335  82.619  0.00  0.00     0.077 H 
BRANCH  82  85
ATOM     85  OG  DVA d          43.011  48.716  84.370  0.00  0.00    -0.398 OA
ATOM     86  H59 DVA d          42.296  48.750  83.745  0.00  0.00     0.209 HD
ENDBRANCH  82  85
ENDBRANCH  77  82
ENDBRANCH  75  77
ENDBRANCH  71  73
BRANCH  71  87
ATOM     87  CB  DVA d          42.313  52.502  82.621  0.00  0.00     0.043 C 
ATOM     88  H53 DVA d          42.060  51.916  83.516  0.00  0.00     0.052 H 
ATOM     89  H54 DVA d          42.492  51.822  81.775  0.00  0.00     0.052 H 
BRANCH  87  90
ATOM     90  CG  DVA d          41.147  53.394  82.283  0.00  0.00     0.175 C 
ATOM     91  OD1 DVA d          40.462  53.860  83.219  0.00  0.00    -0.648 OA
ATOM     92  OD2 DVA d          40.923  53.644  81.087  0.00  0.00    -0.648 OA
ENDBRANCH  87  90
ENDBRANCH  71  87
ENDBRANCH  69  71
ENDBRANCH  65  67
BRANCH  65  93
ATOM     93  CB  DVA d          41.477  55.235  86.448  0.00  0.00    -0.014 C 
ATOM     94  H44 DVA d          40.981  54.274  86.648  0.00  0.00     0.043 H 
ATOM     95  H45 DVA d          41.077  55.667  85.519  0.00  0.00     0.043 H 
BRANCH  93  96
ATOM     96  CG  DVA d          41.176  56.186  87.596  0.00  0.00    -0.056 A 
ATOM     97  CD1 DVA d          40.858  55.698  88.867  0.00  0.00    -0.074 A 
ATOM     98  CE1 DVA d          40.543  56.557  89.933  0.00  0.00    -0.051 A 
ATOM     99  H46 DVA d          40.854  54.626  89.034  0.00  0.00     0.084 H 
ATOM    100  CZ  DVA d          40.557  57.947  89.708  0.00  0.00     0.065 A 
ATOM    101  H48 DVA d          40.295  56.158  90.910  0.00  0.00     0.087 H 
ATOM    102  CE2 DVA d          40.869  58.451  88.454  0.00  0.00    -0.051 A 
ATOM    103  CD2 DVA d          41.177  57.574  87.398  0.00  0.00    -0.074 A 
ATOM    104  H49 DVA d          40.876  59.522  88.287  0.00  0.00     0.087 H 
ATOM    105  H47 DVA d          41.419  57.976  86.421  0.00  0.00     0.084 H 
BRANCH 100 106
ATOM    106  OH  DVA d          40.278  58.827  90.730  0.00  0.00    -0.361 OA
ATOM    107  H50 DVA d          40.645  58.495  91.541  0.00  0.00     0.217 HD
ENDBRANCH 100 106
ENDBRANCH  93  96
ENDBRANCH  65  93
ENDBRANCH  63  65
ENDBRANCH  59  61
BRANCH  59 108
ATOM    108  CB  DVA d          44.201  55.994  90.113  0.00  0.00     0.004 C 
ATOM    109  H37 DVA d          43.305  55.398  90.342  0.00  0.00     0.046 H 
ATOM    110  H38 DVA d          43.920  56.849  89.480  0.00  0.00     0.046 H 
BRANCH 108 111
ATOM    111  CG  DVA d          44.752  56.526  91.401  0.00  0.00     0.053 A 
ATOM    112  ND1 DVA d          44.100  57.481  92.158  0.00  0.00    -0.247 NA
ATOM    113  CE1 DVA d          44.810  57.733  93.249  0.00  0.00     0.064 A 
ATOM    114  NE2 DVA d          45.901  56.977  93.222  0.00  0.00    -0.359 N 
ATOM    115  H40 DVA d          44.543  58.439  94.034  0.00  0.00     0.143 H 
ATOM    116  CD2 DVA d          45.886  56.216  92.074  0.00  0.00     0.002 A 
ATOM    117  H41 DVA d          46.638  56.962  93.941  0.00  0.00     0.166 HD
ATOM    118  H39 DVA d          46.644  55.499  91.764  0.00  0.00     0.114 H 
ENDBRANCH 108 111
ENDBRANCH  59 108
ENDBRANCH  57  59
ENDBRANCH   1  55
BRANCH   1 119
ATOM    119  CB  DVA d          47.216  50.783  90.173  0.00  0.00    -0.030 C 
ATOM    120  H29 DVA d          47.930  51.408  89.617  0.00  0.00     0.037 H 
ATOM    121  H30 DVA d          46.771  50.041  89.494  0.00  0.00     0.037 H 
BRANCH 119 122
ATOM    122  CG  DVA d          47.966  50.045  91.309  0.00  0.00     0.011 C 
ATOM    123  H31 DVA d          47.848  48.963  91.154  0.00  0.00     0.047 H 
ATOM    124  H32 DVA d          47.508  50.330  92.268  0.00  0.00     0.047 H 
BRANCH 122 125
ATOM    125  CD  DVA d          49.471  50.361  91.381  0.00  0.00     0.215 C 
ATOM    126  OE1 DVA d          50.216  49.746  92.166  0.00  0.00    -0.274 OA
ATOM    127  NE2 DVA d          49.915  51.298  90.569  0.00  0.00    -0.370 N 
ATOM    128  H33 DVA d          50.885  51.544  90.573  0.00  0.00     0.159 HD
ATOM    129  H34 DVA d          49.284  51.762  89.949  0.00  0.00     0.159 HD
ENDBRANCH 122 125
ENDBRANCH 119 122
ENDBRANCH   1 119
TORSDOF 34
ENDMDL
MODEL 2
REMARK VINA RESULT:      -5.1      2.866     10.566
REMARK WARNING: 32 MAX_TORS EXCEEDED!!!
REMARK  34 active torsions:
REMARK  status: ('A' for Active; 'I' for Inactive)
REMARK    1  A    between atoms: N_1  and  CA_2 
REMARK    2  A    between atoms: CA_2  and  CB_3 
REMARK    3  A    between atoms: CA_2  and  C_6 
REMARK    4  A    between atoms: CB_3  and  CG1_4 
REMARK    5  A    between atoms: CB_3  and  CG2_5 
REMARK       I    between atoms: C_6  and  N_8 
REMARK    6  A    between atoms: CA_9  and  C_13 
REMARK       I    between atoms: C_13  and  N_15 
REMARK    7  A    between atoms: N_15  and  CA_16 
REMARK    8  A    between atoms: CA_16  and  C_17 
REMARK       I    between atoms: C_17  and  N_19 
REMARK    9  A    between atoms: N_19  and  CA_20 
REMARK   10  A    between atoms: CA_20  and  C_21 
REMARK   11  A    between atoms: CA_20  and  CB_23 
REMARK       I    between atoms: C_21  and  N_25 
REMARK   12  A    between atoms: CB_23  and  OG_24 
REMARK   13  A    between atoms: N_25  and  CA_26 
REMARK   14  A    between atoms: CA_26  and  C_27 
REMARK   15  A    between atoms: CA_26  and  CB_29 
REMARK       I    between atoms: C_27  and  N_34 
REMARK   16  A    between atoms: CB_29  and  CG_30 
REMARK   17  A    between atoms: CG_30  and  CD_31 
REMARK       I    between atoms: CD_31  and  NE2_33 
REMARK   18  A    between atoms: N_34  and  CA_35 
REMARK   19  A    between atoms: CA_35  and  C_36 
REMARK   20  A    between atoms: CA_35  and  CB_38 
REMARK       I    between atoms: C_36  and  N_44 
REMARK   21  A    between atoms: CB_38  and  CG_39 
REMARK   22  A    between atoms: N_44  and  CA_45 
REMARK   23  A    between atoms: CA_45  and  C_46 
REMARK   24  A    between atoms: CA_45  and  CB_48 
REMARK       I    between atoms: C_46  and  N_56 
REMARK   25  A    between atoms: CB_48  and  CG_49 
REMARK   26  A    between atoms: CZ_54  and  OH_55 
REMARK   27  A    between atoms: N_56  and  CA_57 
REMARK   28  A    between atoms: CA_57  and  C_58 
REMARK   29  A    between atoms: CA_57  and  CB_60 
REMARK       I    between atoms: C_58  and  N_64 
REMARK   30  A    between atoms: CB_60  and  CG_61 
REMARK   31  A    between atoms: N_64  and  CA_65 
REMARK   32  A    between atoms: CA_65  and  C_66 
REMARK   33  A    between atoms: CA_65  and  CB_69 
REMARK   34  A    between atoms: CB_69  and  OG_70 
ROOT
ATOM      1  CA  DVA d          45.162  50.721  87.383  0.00  0.00     0.090 C 
ATOM      2  H28 DVA d          45.111  49.742  87.883  0.00  0.00     0.087 H 
ENDROOT
BRANCH   1   3
ATOM      3  N   DVA d          46.557  51.099  87.232  0.00  0.00    -0.346 N 
ATOM      4  C   DVA d          47.491  50.349  87.789  0.00  0.00     0.243 C 
ATOM      5  O   DVA d          47.228  49.336  88.416  0.00  0.00    -0.271 OA
ATOM      6  H27 DVA d          46.806  51.917  86.713  0.00  0.00     0.163 HD
BRANCH   4   7
ATOM      7  CA  DVA d          48.928  50.812  87.641  0.00  0.00     0.109 C 
ATOM      8  H23 DVA d          49.161  51.608  88.364  0.00  0.00     0.090 H 
BRANCH   7   9
ATOM      9  N   DVA d          49.097  51.295  86.289  0.00  0.00    -0.344 N 
ATOM     10  C   DVA d          48.993  52.579  85.987  0.00  0.00     0.236 C 
ATOM     11  O   DVA d          48.752  53.451  86.822  0.00  0.00    -0.272 OA
ATOM     12  H22 DVA d          49.298  50.639  85.562  0.00  0.00     0.163 HD
BRANCH  10  13
ATOM     13  CA  DVA d          49.190  52.938  84.537  0.00  0.00     0.069 C 
ATOM     14  H20 DVA d          50.091  53.559  84.422  0.00  0.00     0.078 H 
ATOM     15  H21 DVA d          49.297  52.024  83.934  0.00  0.00     0.078 H 
BRANCH  13  16
ATOM     16  N   DVA d          48.024  53.675  84.115  0.00  0.00    -0.351 N 
ATOM     17  C   DVA d          48.138  54.789  83.405  0.00  0.00     0.241 C 
ATOM     18  O   DVA d          49.223  55.258  83.048  0.00  0.00    -0.271 OA
ATOM     19  H19 DVA d          47.115  53.340  84.362  0.00  0.00     0.163 HD
BRANCH  17  20
ATOM     20  CA  DVA d          46.816  55.458  83.038  0.00  0.00     0.091 C 
ATOM     21  N   DVA d          45.693  54.776  83.700  0.00  0.00    -0.337 N 
ATOM     22  C   DVA d          45.199  54.774  84.965  0.00  0.00     0.251 C 
ATOM     23  CD  DVA d          44.979  53.927  82.725  0.00  0.00    -0.001 C 
ATOM     24  O   DVA d          44.239  54.061  85.279  0.00  0.00    -0.271 OA
ATOM     25  CG  DVA d          45.923  53.914  81.537  0.00  0.00    -0.048 C 
ATOM     26  H17 DVA d          44.008  54.366  82.454  0.00  0.00     0.064 H 
ATOM     27  H18 DVA d          44.826  52.912  83.121  0.00  0.00     0.064 H 
ATOM     28  CB  DVA d          46.490  55.290  81.560  0.00  0.00    -0.036 C 
ATOM     29  H15 DVA d          46.711  53.157  81.663  0.00  0.00     0.035 H 
ATOM     30  H16 DVA d          45.379  53.725  80.600  0.00  0.00     0.035 H 
ATOM     31  H13 DVA d          47.395  55.362  80.939  0.00  0.00     0.036 H 
ATOM     32  H14 DVA d          45.753  56.035  81.224  0.00  0.00     0.036 H 
ATOM     33  H12 DVA d          46.854  56.522  83.314  0.00  0.00     0.087 H 
BRANCH  22  34
ATOM     34  CA  DVA d          45.875  55.647  86.049  0.00  0.00     0.178 C 
ATOM     35  H4  DVA d          46.870  55.926  85.673  0.00  0.00     0.099 H 
BRANCH  34  36
ATOM     36  N   DVA d          46.055  54.835  87.285  0.00  0.00    -0.066 N 
ATOM     37  H1  DVA d          45.167  54.732  87.752  0.00  0.00     0.275 HD
ATOM     38  H2  DVA d          46.705  55.300  87.901  0.00  0.00     0.275 HD
ATOM     39  H3  DVA d          46.414  53.926  87.041  0.00  0.00     0.275 HD
ENDBRANCH  34  36
BRANCH  34  40
ATOM     40  CB  DVA d          45.130  56.955  86.380  0.00  0.00    -0.025 C 
ATOM     41  H5  DVA d          44.072  56.851  86.097  0.00  0.00     0.042 H 
BRANCH  40  42
ATOM     42  CG1 DVA d          45.216  57.249  87.869  0.00  0.00    -0.071 C 
ATOM     43  H6  DVA d          44.527  56.588  88.414  0.00  0.00     0.028 H 
ATOM     44  H7  DVA d          44.939  58.298  88.053  0.00  0.00     0.028 H 
ATOM     45  H8  DVA d          46.245  57.075  88.219  0.00  0.00     0.028 H 
ENDBRANCH  40  42
BRANCH  40  46
ATOM     46  CG2 DVA d          45.758  58.099  85.579  0.00  0.00    -0.071 C 
ATOM     47  H9  DVA d          46.333  58.748  86.256  0.00  0.00     0.028 H 
ATOM     48  H10 DVA d          44.964  58.685  85.094  0.00  0.00     0.028 H 
ATOM     49  H11 DVA d          46.427  57.684  84.812  0.00  0.00     0.028 H 
ENDBRANCH  40  46
ENDBRANCH  34  40
ENDBRANCH  22  34
ENDBRANCH  17  20
ENDBRANCH  13  16
ENDBRANCH  10  13
ENDBRANCH   7   9
BRANCH   7  50
ATOM     50  CB  DVA d          49.819  49.598  87.880  0.00  0.00     0.044 C 
ATOM     51  H24 DVA d          49.741  49.290  88.933  0.00  0.00     0.077 H 
ATOM     52  H25 DVA d          50.862  49.861  87.652  0.00  0.00     0.077 H 
BRANCH  50  53
ATOM     53  OG  DVA d          49.413  48.525  87.047  0.00  0.00    -0.398 OA
ATOM     54  H26 DVA d          49.743  48.666  86.167  0.00  0.00     0.209 HD
ENDBRANCH  50  53
ENDBRANCH   7  50
ENDBRANCH   4   7
ENDBRANCH   1   3
BRANCH   1  55
ATOM     55  C   DVA d          44.418  51.744  88.237  0.00  0.00     0.241 C 
ATOM     56  O   DVA d          45.004  52.358  89.133  0.00  0.00    -0.271 OA
ATOM     57  N   DVA d          43.126  51.924  87.955  0.00  0.00    -0.346 N 
ATOM     58  H35 DVA d          42.717  51.417  87.197  0.00  0.00     0.163 HD
BRANCH  57  59
ATOM     59  CA  DVA d          42.284  52.856  88.737  0.00  0.00     0.094 C 
ATOM     60  H36 DVA d          41.304  52.918  88.241  0.00  0.00     0.088 H 
BRANCH  59  61
ATOM     61  C   DVA d          42.090  52.448  90.168  0.00  0.00     0.241 C 
ATOM     62  O   DVA d          41.236  51.600  90.462  0.00  0.00    -0.271 OA
ATOM     63  N   DVA d          42.855  53.074  91.056  0.00  0.00    -0.346 N 
ATOM     64  H42 DVA d          43.575  53.692  90.742  0.00  0.00     0.163 HD
BRANCH  63  65
ATOM     65  CA  DVA d          42.650  52.866  92.489  0.00  0.00     0.093 C 
ATOM     66  H43 DVA d          42.218  51.863  92.617  0.00  0.00     0.088 H 
BRANCH  65  67
ATOM     67  C   DVA d          43.904  52.925  93.351  0.00  0.00     0.241 C 
ATOM     68  O   DVA d          44.987  53.231  92.843  0.00  0.00    -0.271 OA
ATOM     69  N   DVA d          43.752  52.621  94.639  0.00  0.00    -0.345 N 
ATOM     70  H51 DVA d          42.844  52.367  94.972  0.00  0.00     0.163 HD
BRANCH  69  71
ATOM     71  CA  DVA d          44.876  52.646  95.585  0.00  0.00     0.098 C 
ATOM     72  H52 DVA d          45.804  52.712  94.997  0.00  0.00     0.088 H 
BRANCH  71  73
ATOM     73  C   DVA d          44.844  53.821  96.560  0.00  0.00     0.241 C 
ATOM     74  O   DVA d          45.876  54.237  97.104  0.00  0.00    -0.271 OA
ATOM     75  N   DVA d          43.629  54.342  96.737  0.00  0.00    -0.343 N 
ATOM     76  H55 DVA d          42.875  53.902  96.249  0.00  0.00     0.163 HD
BRANCH  75  77
ATOM     77  CA  DVA d          43.289  55.493  97.576  0.00  0.00     0.116 C 
ATOM     78  H56 DVA d          44.184  56.133  97.609  0.00  0.00     0.093 H 
BRANCH  77  79
ATOM     79  C   DVA d          42.156  56.344  97.022  0.00  0.00     0.198 C 
ATOM     80  O   DVA d          41.653  56.026  95.925  0.00  0.00    -0.646 OA
ATOM     81  OXT DVA d          41.786  57.323  97.711  0.00  0.00    -0.646 OA
ENDBRANCH  77  79
BRANCH  77  82
ATOM     82  CB  DVA d          42.976  55.068  99.016  0.00  0.00     0.045 C 
ATOM     83  H57 DVA d          43.264  55.879  99.701  0.00  0.00     0.077 H 
ATOM     84  H58 DVA d          43.551  54.161  99.257  0.00  0.00     0.077 H 
BRANCH  82  85
ATOM     85  OG  DVA d          41.589  54.794  99.177  0.00  0.00    -0.398 OA
ATOM     86  H59 DVA d          41.255  54.383  98.388  0.00  0.00     0.209 HD
ENDBRANCH  82  85
ENDBRANCH  77  82
ENDBRANCH  75  77
ENDBRANCH  71  73
BRANCH  71  87
ATOM     87  CB  DVA d          44.904  51.363  96.417  0.00  0.00     0.043 C 
ATOM     88  H53 DVA d          45.233  51.612  97.437  0.00  0.00     0.052 H 
ATOM     89  H54 DVA d          45.620  50.663  95.961  0.00  0.00     0.052 H 
BRANCH  87  90
ATOM     90  CG  DVA d          43.558  50.692  96.494  0.00  0.00     0.175 C 
ATOM     91  OD1 DVA d          42.665  51.224  97.190  0.00  0.00    -0.648 OA
ATOM     92  OD2 DVA d          43.384  49.644  95.850  0.00  0.00    -0.648 OA
ENDBRANCH  87  90
ENDBRANCH  71  87
ENDBRANCH  69  71
ENDBRANCH  65  67
BRANCH  65  93
ATOM     93  CB  DVA d          41.632  53.902  92.977  0.00  0.00    -0.014 C 
ATOM     94  H44 DVA d          41.446  54.621  92.166  0.00  0.00     0.043 H 
ATOM     95  H45 DVA d          42.055  54.428  93.845  0.00  0.00     0.043 H 
BRANCH  93  96
ATOM     96  CG  DVA d          40.306  53.277  93.385  0.00  0.00    -0.056 A 
ATOM     97  CD1 DVA d          39.159  54.063  93.535  0.00  0.00    -0.074 A 
ATOM     98  CE1 DVA d          37.933  53.513  93.945  0.00  0.00    -0.051 A 
ATOM     99  H46 DVA d          39.218  55.126  93.330  0.00  0.00     0.084 H 
ATOM    100  CZ  DVA d          37.864  52.130  94.203  0.00  0.00     0.065 A 
ATOM    101  H48 DVA d          37.056  54.141  94.060  0.00  0.00     0.087 H 
ATOM    102  CE2 DVA d          38.991  51.334  94.061  0.00  0.00    -0.051 A 
ATOM    103  CD2 DVA d          40.211  51.905  93.654  0.00  0.00    -0.074 A 
ATOM    104  H49 DVA d          38.932  50.271  94.264  0.00  0.00     0.087 H 
ATOM    105  H47 DVA d          41.087  51.275  93.547  0.00  0.00     0.084 H 
BRANCH 100 106
ATOM    106  OH  DVA d          36.677  51.545  94.584  0.00  0.00    -0.361 OA
ATOM    107  H50 DVA d          36.269  52.072  95.261  0.00  0.00     0.217 HD
ENDBRANCH 100 106
ENDBRANCH  93  96
ENDBRANCH  65  93
ENDBRANCH  63  65
ENDBRANCH  59  61
BRANCH  59 108
ATOM    108  CB  DVA d          42.905  54.251  88.825  0.00  0.00     0.004 C 
ATOM    109  H37 DVA d          43.605  54.370  87.985  0.00  0.00     0.046 H 
ATOM    110  H38 DVA d          43.456  54.324  89.774  0.00  0.00     0.046 H 
BRANCH 108 111
ATOM    111  CG  DVA d          41.915  55.375  88.771  0.00  0.00     0.053 A 
ATOM    112  ND1 DVA d          41.775  56.200  87.672  0.00  0.00    -0.247 NA
ATOM    113  CE1 DVA d          40.809  57.077  87.903  0.00  0.00     0.064 A 
ATOM    114  NE2 DVA d          40.322  56.852  89.118  0.00  0.00    -0.359 N 
ATOM    115  H40 DVA d          40.472  57.851  87.215  0.00  0.00     0.143 H 
ATOM    116  CD2 DVA d          41.001  55.793  89.679  0.00  0.00     0.002 A 
ATOM    117  H41 DVA d          39.562  57.382  89.567  0.00  0.00     0.166 HD
ATOM    118  H39 DVA d          40.834  55.370  90.668  0.00  0.00     0.114 H 
ENDBRANCH 108 111
ENDBRANCH  59 108
ENDBRANCH  57  59
ENDBRANCH   1  55
BRANCH   1 119
ATOM    119  CB  DVA d          44.509  50.604  85.999  0.00  0.00    -0.030 C 
ATOM    120  H29 DVA d          44.724  51.515  85.422  0.00  0.00     0.037 H 
ATOM    121  H30 DVA d          43.421  50.496  86.124  0.00  0.00     0.037 H 
BRANCH 119 122
ATOM    122  CG  DVA d          45.054  49.376  85.229  0.00  0.00     0.011 C 
ATOM    123  H31 DVA d          45.175  48.547  85.941  0.00  0.00     0.047 H 
ATOM    124  H32 DVA d          46.035  49.642  84.806  0.00  0.00     0.047 H 
BRANCH 122 125
ATOM    125  CD  DVA d          44.147  48.898  84.081  0.00  0.00     0.215 C 
ATOM    126  OE1 DVA d          43.177  48.150  84.302  0.00  0.00    -0.274 OA
ATOM    127  NE2 DVA d          44.450  49.328  82.873  0.00  0.00    -0.370 N 
ATOM    128  H33 DVA d          43.895  49.048  82.090  0.00  0.00     0.159 HD
ATOM    129  H34 DVA d          45.234  49.933  82.740  0.00  0.00     0.159 HD
ENDBRANCH 122 125
ENDBRANCH 119 122
ENDBRANCH   1 119
TORSDOF 34
ENDMDL
MODEL 3
REMARK VINA RESULT:      -4.8      2.795     10.778
REMARK WARNING: 32 MAX_TORS EXCEEDED!!!
REMARK  34 active torsions:
REMARK  status: ('A' for Active; 'I' for Inactive)
REMARK    1  A    between atoms: N_1  and  CA_2 
REMARK    2  A    between atoms: CA_2  and  CB_3 
REMARK    3  A    between atoms: CA_2  and  C_6 
REMARK    4  A    between atoms: CB_3  and  CG1_4 
REMARK    5  A    between atoms: CB_3  and  CG2_5 
REMARK       I    between atoms: C_6  and  N_8 
REMARK    6  A    between atoms: CA_9  and  C_13 
REMARK       I    between atoms: C_13  and  N_15 
REMARK    7  A    between atoms: N_15  and  CA_16 
REMARK    8  A    between atoms: CA_16  and  C_17 
REMARK       I    between atoms: C_17  and  N_19 
REMARK    9  A    between atoms: N_19  and  CA_20 
REMARK   10  A    between atoms: CA_20  and  C_21 
REMARK   11  A    between atoms: CA_20  and  CB_23 
REMARK       I    between atoms: C_21  and  N_25 
REMARK   12  A    between atoms: CB_23  and  OG_24 
REMARK   13  A    between atoms: N_25  and  CA_26 
REMARK   14  A    between atoms: CA_26  and  C_27 
REMARK   15  A    between atoms: CA_26  and  CB_29 
REMARK       I    between atoms: C_27  and  N_34 
REMARK   16  A    between atoms: CB_29  and  CG_30 
REMARK   17  A    between atoms: CG_30  and  CD_31 
REMARK       I    between atoms: CD_31  and  NE2_33 
REMARK   18  A    between atoms: N_34  and  CA_35 
REMARK   19  A    between atoms: CA_35  and  C_36 
REMARK   20  A    between atoms: CA_35  and  CB_38 
REMARK       I    between atoms: C_36  and  N_44 
REMARK   21  A    between atoms: CB_38  and  CG_39 
REMARK   22  A    between atoms: N_44  and  CA_45 
REMARK   23  A    between atoms: CA_45  and  C_46 
REMARK   24  A    between atoms: CA_45  and  CB_48 
REMARK       I    between atoms: C_46  and  N_56 
REMARK   25  A    between atoms: CB_48  and  CG_49 
REMARK   26  A    between atoms: CZ_54  and  OH_55 
REMARK   27  A    between atoms: N_56  and  CA_57 
REMARK   28  A    between atoms: CA_57  and  C_58 
REMARK   29  A    between atoms: CA_57  and  CB_60 
REMARK       I    between atoms: C_58  and  N_64 
REMARK   30  A    between atoms: CB_60  and  CG_61 
REMARK   31  A    between atoms: N_64  and  CA_65 
REMARK   32  A    between atoms: CA_65  and  C_66 
REMARK   33  A    between atoms: CA_65  and  CB_69 
REMARK   34  A    between atoms: CB_69  and  OG_70 
ROOT
ATOM      1  CA  DVA d          41.836  52.239  89.486  0.00  0.00     0.090 C 
ATOM      2  H28 DVA d          41.341  51.265  89.621  0.00  0.00     0.087 H 
ENDROOT
BRANCH   1   3
ATOM      3  N   DVA d          41.329  52.857  88.272  0.00  0.00    -0.346 N 
ATOM      4  C   DVA d          41.903  53.958  87.821  0.00  0.00     0.243 C 
ATOM      5  O   DVA d          42.859  54.472  88.380  0.00  0.00    -0.271 OA
ATOM      6  H27 DVA d          40.554  52.454  87.784  0.00  0.00     0.163 HD
BRANCH   4   7
ATOM      7  CA  DVA d          41.308  54.589  86.577  0.00  0.00     0.109 C 
ATOM      8  H23 DVA d          40.219  54.435  86.540  0.00  0.00     0.090 H 
BRANCH   7   9
ATOM      9  N   DVA d          41.941  53.980  85.430  0.00  0.00    -0.344 N 
ATOM     10  C   DVA d          41.323  53.871  84.265  0.00  0.00     0.236 C 
ATOM     11  O   DVA d          40.178  54.279  84.068  0.00  0.00    -0.272 OA
ATOM     12  H22 DVA d          42.874  53.629  85.519  0.00  0.00     0.163 HD
BRANCH  10  13
ATOM     13  CA  DVA d          42.103  53.211  83.158  0.00  0.00     0.069 C 
ATOM     14  H20 DVA d          41.772  52.169  83.033  0.00  0.00     0.078 H 
ATOM     15  H21 DVA d          41.954  53.758  82.215  0.00  0.00     0.078 H 
BRANCH  13  16
ATOM     16  N   DVA d          43.495  53.245  83.534  0.00  0.00    -0.351 N 
ATOM     17  C   DVA d          44.434  53.575  82.658  0.00  0.00     0.241 C 
ATOM     18  O   DVA d          44.191  53.884  81.488  0.00  0.00    -0.271 OA
ATOM     19  H19 DVA d          43.756  53.017  84.473  0.00  0.00     0.163 HD
BRANCH  17  20
ATOM     20  CA  DVA d          45.860  53.562  83.204  0.00  0.00     0.091 C 
ATOM     21  N   DVA d          45.847  53.476  84.673  0.00  0.00    -0.337 N 
ATOM     22  C   DVA d          45.629  52.471  85.561  0.00  0.00     0.251 C 
ATOM     23  CD  DVA d          46.152  54.799  85.253  0.00  0.00    -0.001 C 
ATOM     24  O   DVA d          45.639  52.679  86.780  0.00  0.00    -0.271 OA
ATOM     25  CG  DVA d          46.044  55.724  84.055  0.00  0.00    -0.048 C 
ATOM     26  H17 DVA d          47.165  54.820  85.680  0.00  0.00     0.064 H 
ATOM     27  H18 DVA d          45.420  55.069  86.030  0.00  0.00     0.064 H 
ATOM     28  CB  DVA d          46.574  54.881  82.949  0.00  0.00    -0.036 C 
ATOM     29  H15 DVA d          44.999  56.013  83.870  0.00  0.00     0.035 H 
ATOM     30  H16 DVA d          46.655  56.627  84.195  0.00  0.00     0.035 H 
ATOM     31  H13 DVA d          46.309  55.297  81.965  0.00  0.00     0.036 H 
ATOM     32  H14 DVA d          47.666  54.768  83.017  0.00  0.00     0.036 H 
ATOM     33  H12 DVA d          46.414  52.721  82.761  0.00  0.00     0.087 H 
BRANCH  22  34
ATOM     34  CA  DVA d          45.318  51.048  85.041  0.00  0.00     0.178 C 
ATOM     35  H4  DVA d          44.870  51.153  84.042  0.00  0.00     0.099 H 
BRANCH  34  36
ATOM     36  N   DVA d          44.314  50.410  85.938  0.00  0.00    -0.066 N 
ATOM     37  H1  DVA d          44.760  50.134  86.799  0.00  0.00     0.275 HD
ATOM     38  H2  DVA d          43.926  49.598  85.485  0.00  0.00     0.275 HD
ATOM     39  H3  DVA d          43.577  51.068  86.138  0.00  0.00     0.275 HD
ENDBRANCH  34  36
BRANCH  34  40
ATOM     40  CB  DVA d          46.550  50.133  84.894  0.00  0.00    -0.025 C 
ATOM     41  H5  DVA d          46.423  49.248  85.536  0.00  0.00     0.042 H 
BRANCH  40  42
ATOM     42  CG1 DVA d          46.701  49.679  83.451  0.00  0.00    -0.071 C 
ATOM     43  H6  DVA d          45.870  49.008  83.188  0.00  0.00     0.028 H 
ATOM     44  H7  DVA d          47.655  49.144  83.332  0.00  0.00     0.028 H 
ATOM     45  H8  DVA d          46.687  50.556  82.787  0.00  0.00     0.028 H 
ENDBRANCH  40  42
BRANCH  40  46
ATOM     46  CG2 DVA d          47.795  50.904  85.337  0.00  0.00    -0.071 C 
ATOM     47  H9  DVA d          47.562  51.490  86.239  0.00  0.00     0.028 H 
ATOM     48  H10 DVA d          48.114  51.581  84.531  0.00  0.00     0.028 H 
ATOM     49  H11 DVA d          48.605  50.195  85.561  0.00  0.00     0.028 H 
ENDBRANCH  40  46
ENDBRANCH  34  40
ENDBRANCH  22  34
ENDBRANCH  17  20
ENDBRANCH  13  16
ENDBRANCH  10  13
ENDBRANCH   7   9
BRANCH   7  50
ATOM     50  CB  DVA d          41.635  56.078  86.627  0.00  0.00     0.044 C 
ATOM     51  H24 DVA d          41.474  56.520  85.633  0.00  0.00     0.077 H 
ATOM     52  H25 DVA d          42.687  56.210  86.922  0.00  0.00     0.077 H 
BRANCH  50  53
ATOM     53  OG  DVA d          40.799  56.729  87.570  0.00  0.00    -0.398 OA
ATOM     54  H26 DVA d          40.890  57.669  87.476  0.00  0.00     0.209 HD
ENDBRANCH  50  53
ENDBRANCH   7  50
ENDBRANCH   4   7
ENDBRANCH   1   3
BRANCH   1  55
ATOM     55  C   DVA d          43.342  52.011  89.382  0.00  0.00     0.241 C 
ATOM     56  O   DVA d          43.799  51.189  88.582  0.00  0.00    -0.271 OA
ATOM     57  N   DVA d          44.109  52.739  90.195  0.00  0.00    -0.346 N 
ATOM     58  H35 DVA d          43.679  53.409  90.801  0.00  0.00     0.163 HD
BRANCH  57  59
ATOM     59  CA  DVA d          45.579  52.582  90.222  0.00  0.00     0.094 C 
ATOM     60  H36 DVA d          45.889  52.155  89.257  0.00  0.00     0.088 H 
BRANCH  59  61
ATOM     61  C   DVA d          46.324  53.864  90.459  0.00  0.00     0.241 C 
ATOM     62  O   DVA d          46.594  54.611  89.507  0.00  0.00    -0.271 OA
ATOM     63  N   DVA d          46.686  54.098  91.716  0.00  0.00    -0.346 N 
ATOM     64  H42 DVA d          46.370  53.491  92.444  0.00  0.00     0.163 HD
BRANCH  63  65
ATOM     65  CA  DVA d          47.542  55.238  92.040  0.00  0.00     0.093 C 
ATOM     66  H43 DVA d          47.897  55.665  91.090  0.00  0.00     0.088 H 
BRANCH  65  67
ATOM     67  C   DVA d          46.873  56.367  92.814  0.00  0.00     0.241 C 
ATOM     68  O   DVA d          47.519  57.376  93.112  0.00  0.00    -0.271 OA
ATOM     69  N   DVA d          45.596  56.184  93.142  0.00  0.00    -0.345 N 
ATOM     70  H51 DVA d          45.145  55.331  92.878  0.00  0.00     0.163 HD
BRANCH  69  71
ATOM     71  CA  DVA d          44.827  57.196  93.880  0.00  0.00     0.098 C 
ATOM     72  H52 DVA d          45.532  57.752  94.515  0.00  0.00     0.088 H 
BRANCH  71  73
ATOM     73  C   DVA d          44.096  58.198  92.988  0.00  0.00     0.241 C 
ATOM     74  O   DVA d          44.668  59.199  92.538  0.00  0.00    -0.271 OA
ATOM     75  N   DVA d          42.825  57.873  92.742  0.00  0.00    -0.343 N 
ATOM     76  H55 DVA d          42.480  57.043  93.180  0.00  0.00     0.163 HD
BRANCH  75  77
ATOM     77  CA  DVA d          41.887  58.612  91.895  0.00  0.00     0.116 C 
ATOM     78  H56 DVA d          42.449  59.453  91.462  0.00  0.00     0.093 H 
BRANCH  77  79
ATOM     79  C   DVA d          41.339  57.799  90.730  0.00  0.00     0.198 C 
ATOM     80  O   DVA d          40.222  58.103  90.265  0.00  0.00    -0.646 OA
ATOM     81  OXT DVA d          42.054  56.865  90.298  0.00  0.00    -0.646 OA
ENDBRANCH  77  79
BRANCH  77  82
ATOM     82  CB  DVA d          40.734  59.204  92.715  0.00  0.00     0.045 C 
ATOM     83  H57 DVA d          40.142  59.873  92.072  0.00  0.00     0.077 H 
ATOM     84  H58 DVA d          41.149  59.778  93.557  0.00  0.00     0.077 H 
BRANCH  82  85
ATOM     85  OG  DVA d          39.889  58.179  93.222  0.00  0.00    -0.398 OA
ATOM     86  H59 DVA d          39.995  57.394  92.697  0.00  0.00     0.209 HD
ENDBRANCH  82  85
ENDBRANCH  77  82
ENDBRANCH  75  77
ENDBRANCH  71  73
BRANCH  71  87
ATOM     87  CB  DVA d          43.777  56.527  94.769  0.00  0.00     0.043 C 
ATOM     88  H53 DVA d          43.917  55.437  94.720  0.00  0.00     0.052 H 
ATOM     89  H54 DVA d          42.778  56.786  94.390  0.00  0.00     0.052 H 
BRANCH  87  90
ATOM     90  CG  DVA d          43.874  56.961  96.208  0.00  0.00     0.175 C 
ATOM     91  OD1 DVA d          44.332  56.153  97.045  0.00  0.00    -0.648 OA
ATOM     92  OD2 DVA d          43.510  58.112  96.502  0.00  0.00    -0.648 OA
ENDBRANCH  87  90
ENDBRANCH  71  87
ENDBRANCH  69  71
ENDBRANCH  65  67
BRANCH  65  93
ATOM     93  CB  DVA d          48.752  54.715  92.821  0.00  0.00    -0.014 C 
ATOM     94  H44 DVA d          49.075  55.491  93.530  0.00  0.00     0.043 H 
ATOM     95  H45 DVA d          49.565  54.506  92.111  0.00  0.00     0.043 H 
BRANCH  93  96
ATOM     96  CG  DVA d          48.446  53.444  93.598  0.00  0.00    -0.056 A 
ATOM     97  CD1 DVA d          47.514  53.447  94.640  0.00  0.00    -0.074 A 
ATOM     98  CE1 DVA d          47.240  52.292  95.393  0.00  0.00    -0.051 A 
ATOM     99  H46 DVA d          46.987  54.365  94.873  0.00  0.00     0.084 H 
ATOM    100  CZ  DVA d          47.924  51.102  95.079  0.00  0.00     0.065 A 
ATOM    101  H48 DVA d          46.517  52.317  96.200  0.00  0.00     0.087 H 
ATOM    102  CE2 DVA d          48.854  51.079  94.049  0.00  0.00    -0.051 A 
ATOM    103  CD2 DVA d          49.116  52.247  93.310  0.00  0.00    -0.074 A 
ATOM    104  H49 DVA d          49.378  50.160  93.814  0.00  0.00     0.087 H 
ATOM    105  H47 DVA d          49.845  52.220  92.507  0.00  0.00     0.084 H 
BRANCH 100 106
ATOM    106  OH  DVA d          47.671  49.941  95.775  0.00  0.00    -0.361 OA
ATOM    107  H50 DVA d          47.129  49.368  95.247  0.00  0.00     0.217 HD
ENDBRANCH 100 106
ENDBRANCH  93  96
ENDBRANCH  65  93
ENDBRANCH  63  65
ENDBRANCH  59  61
BRANCH  59 108
ATOM    108  CB  DVA d          46.036  51.667  91.360  0.00  0.00     0.004 C 
ATOM    109  H37 DVA d          45.141  51.259  91.853  0.00  0.00     0.046 H 
ATOM    110  H38 DVA d          46.607  52.271  92.080  0.00  0.00     0.046 H 
BRANCH 108 111
ATOM    111  CG  DVA d          46.896  50.519  90.925  0.00  0.00     0.053 A 
ATOM    112  ND1 DVA d          46.916  49.306  91.585  0.00  0.00    -0.247 NA
ATOM    113  CE1 DVA d          47.745  48.482  90.959  0.00  0.00     0.064 A 
ATOM    114  NE2 DVA d          48.265  49.122  89.919  0.00  0.00    -0.359 N 
ATOM    115  H40 DVA d          47.962  47.454  91.248  0.00  0.00     0.143 H 
ATOM    116  CD2 DVA d          47.748  50.399  89.880  0.00  0.00     0.002 A 
ATOM    117  H41 DVA d          48.942  48.730  89.250  0.00  0.00     0.166 HD
ATOM    118  H39 DVA d          47.983  51.168  89.146  0.00  0.00     0.114 H 
ENDBRANCH 108 111
ENDBRANCH  59 108
ENDBRANCH  57  59
ENDBRANCH   1  55
BRANCH   1 119
ATOM    119  CB  DVA d          41.512  53.131  90.691  0.00  0.00    -0.030 C 
ATOM    120  H29 DVA d          40.842  53.941  90.368  0.00  0.00     0.037 H 
ATOM    121  H30 DVA d          42.447  53.561  91.081  0.00  0.00     0.037 H 
BRANCH 119 122
ATOM    122  CG  DVA d          40.821  52.320  91.814  0.00  0.00     0.011 C 
ATOM    123  H31 DVA d          41.374  52.486  92.750  0.00  0.00     0.047 H 
ATOM    124  H32 DVA d          40.864  51.253  91.546  0.00  0.00     0.047 H 
BRANCH 122 125
ATOM    125  CD  DVA d          39.348  52.698  92.051  0.00  0.00     0.215 C 
ATOM    126  OE1 DVA d          38.874  52.735  93.201  0.00  0.00    -0.274 OA
ATOM    127  NE2 DVA d          38.634  52.985  90.981  0.00  0.00    -0.370 N 
ATOM    128  H33 DVA d          37.671  53.238  91.076  0.00  0.00     0.159 HD
ATOM    129  H34 DVA d          39.055  52.950  90.075  0.00  0.00     0.159 HD
ENDBRANCH 122 125
ENDBRANCH 119 122
ENDBRANCH   1 119
TORSDOF 34
ENDMDL
MODEL 4
REMARK VINA RESULT:      -4.7      2.506      9.928
REMARK WARNING: 32 MAX_TORS EXCEEDED!!!
REMARK  34 active torsions:
REMARK  status: ('A' for Active; 'I' for Inactive)
REMARK    1  A    between atoms: N_1  and  CA_2 
REMARK    2  A    between atoms: CA_2  and  CB_3 
REMARK    3  A    between atoms: CA_2  and  C_6 
REMARK    4  A    between atoms: CB_3  and  CG1_4 
REMARK    5  A    between atoms: CB_3  and  CG2_5 
REMARK       I    between atoms: C_6  and  N_8 
REMARK    6  A    between atoms: CA_9  and  C_13 
REMARK       I    between atoms: C_13  and  N_15 
REMARK    7  A    between atoms: N_15  and  CA_16 
REMARK    8  A    between atoms: CA_16  and  C_17 
REMARK       I    between atoms: C_17  and  N_19 
REMARK    9  A    between atoms: N_19  and  CA_20 
REMARK   10  A    between atoms: CA_20  and  C_21 
REMARK   11  A    between atoms: CA_20  and  CB_23 
REMARK       I    between atoms: C_21  and  N_25 
REMARK   12  A    between atoms: CB_23  and  OG_24 
REMARK   13  A    between atoms: N_25  and  CA_26 
REMARK   14  A    between atoms: CA_26  and  C_27 
REMARK   15  A    between atoms: CA_26  and  CB_29 
REMARK       I    between atoms: C_27  and  N_34 
REMARK   16  A    between atoms: CB_29  and  CG_30 
REMARK   17  A    between atoms: CG_30  and  CD_31 
REMARK       I    between atoms: CD_31  and  NE2_33 
REMARK   18  A    between atoms: N_34  and  CA_35 
REMARK   19  A    between atoms: CA_35  and  C_36 
REMARK   20  A    between atoms: CA_35  and  CB_38 
REMARK       I    between atoms: C_36  and  N_44 
REMARK   21  A    between atoms: CB_38  and  CG_39 
REMARK   22  A    between atoms: N_44  and  CA_45 
REMARK   23  A    between atoms: CA_45  and  C_46 
REMARK   24  A    between atoms: CA_45  and  CB_48 
REMARK       I    between atoms: C_46  and  N_56 
REMARK   25  A    between atoms: CB_48  and  CG_49 
REMARK   26  A    between atoms: CZ_54  and  OH_55 
REMARK   27  A    between atoms: N_56  and  CA_57 
REMARK   28  A    between atoms: CA_57  and  C_58 
REMARK   29  A    between atoms: CA_57  and  CB_60 
REMARK       I    between atoms: C_58  and  N_64 
REMARK   30  A    between atoms: CB_60  and  CG_61 
REMARK   31  A    between atoms: N_64  and  CA_65 
REMARK   32  A    between atoms: CA_65  and  C_66 
REMARK   33  A    between atoms: CA_65  and  CB_69 
REMARK   34  A    between atoms: CB_69  and  OG_70 
ROOT
ATOM      1  CA  DVA d          41.337  53.874  90.538  0.00  0.00     0.090 C 
ATOM      2  H28 DVA d          41.717  52.964  90.050  0.00  0.00     0.087 H 
ENDROOT
BRANCH   1   3
ATOM      3  N   DVA d          41.737  55.030  89.752  0.00  0.00    -0.346 N 
ATOM      4  C   DVA d          42.181  54.849  88.522  0.00  0.00     0.243 C 
ATOM      5  O   DVA d          42.255  53.743  88.009  0.00  0.00    -0.271 OA
ATOM      6  H27 DVA d          41.677  55.950  90.139  0.00  0.00     0.163 HD
BRANCH   4   7
ATOM      7  CA  DVA d          42.630  56.081  87.760  0.00  0.00     0.109 C 
ATOM      8  H23 DVA d          41.895  56.357  86.990  0.00  0.00     0.090 H 
BRANCH   7   9
ATOM      9  N   DVA d          43.906  55.781  87.152  0.00  0.00    -0.344 N 
ATOM     10  C   DVA d          44.568  56.676  86.436  0.00  0.00     0.236 C 
ATOM     11  O   DVA d          44.156  57.820  86.239  0.00  0.00    -0.272 OA
ATOM     12  H22 DVA d          44.301  54.871  87.276  0.00  0.00     0.163 HD
BRANCH  10  13
ATOM     13  CA  DVA d          45.885  56.224  85.860  0.00  0.00     0.069 C 
ATOM     14  H20 DVA d          46.517  57.096  85.637  0.00  0.00     0.078 H 
ATOM     15  H21 DVA d          46.403  55.569  86.575  0.00  0.00     0.078 H 
BRANCH  13  16
ATOM     16  N   DVA d          45.595  55.501  84.646  0.00  0.00    -0.351 N 
ATOM     17  C   DVA d          45.664  54.177  84.605  0.00  0.00     0.241 C 
ATOM     18  O   DVA d          45.958  53.482  85.582  0.00  0.00    -0.271 OA
ATOM     19  H19 DVA d          45.339  56.006  83.822  0.00  0.00     0.163 HD
BRANCH  17  20
ATOM     20  CA  DVA d          45.334  53.555  83.250  0.00  0.00     0.091 C 
ATOM     21  N   DVA d          44.688  52.246  83.429  0.00  0.00    -0.337 N 
ATOM     22  C   DVA d          43.437  51.847  83.777  0.00  0.00     0.251 C 
ATOM     23  CD  DVA d          45.656  51.168  83.146  0.00  0.00    -0.001 C 
ATOM     24  O   DVA d          43.155  50.649  83.896  0.00  0.00    -0.271 OA
ATOM     25  CG  DVA d          46.978  51.911  83.089  0.00  0.00    -0.048 C 
ATOM     26  H17 DVA d          45.435  50.679  82.186  0.00  0.00     0.064 H 
ATOM     27  H18 DVA d          45.658  50.417  83.949  0.00  0.00     0.064 H 
ATOM     28  CB  DVA d          46.593  53.208  82.468  0.00  0.00    -0.036 C 
ATOM     29  H15 DVA d          47.393  52.060  84.096  0.00  0.00     0.035 H 
ATOM     30  H16 DVA d          47.709  51.374  82.466  0.00  0.00     0.035 H 
ATOM     31  H13 DVA d          47.376  53.968  82.608  0.00  0.00     0.036 H 
ATOM     32  H14 DVA d          46.381  53.092  81.394  0.00  0.00     0.036 H 
ATOM     33  H12 DVA d          44.692  54.242  82.678  0.00  0.00     0.087 H 
BRANCH  22  34
ATOM     34  CA  DVA d          42.353  52.910  84.076  0.00  0.00     0.178 C 
ATOM     35  H4  DVA d          42.861  53.881  84.168  0.00  0.00     0.099 H 
BRANCH  34  36
ATOM     36  N   DVA d          41.709  52.595  85.382  0.00  0.00    -0.066 N 
ATOM     37  H1  DVA d          41.076  51.819  85.267  0.00  0.00     0.275 HD
ATOM     38  H2  DVA d          41.198  53.401  85.708  0.00  0.00     0.275 HD
ATOM     39  H3  DVA d          42.418  52.352  86.056  0.00  0.00     0.275 HD
ENDBRANCH  34  36
BRANCH  34  40
ATOM     40  CB  DVA d          41.278  53.059  82.981  0.00  0.00    -0.025 C 
ATOM     41  H5  DVA d          40.855  52.070  82.750  0.00  0.00     0.042 H 
BRANCH  40  42
ATOM     42  CG1 DVA d          40.162  53.975  83.458  0.00  0.00    -0.071 C 
ATOM     43  H6  DVA d          40.358  54.282  84.496  0.00  0.00     0.028 H 
ATOM     44  H7  DVA d          39.202  53.439  83.410  0.00  0.00     0.028 H 
ATOM     45  H8  DVA d          40.117  54.865  82.814  0.00  0.00     0.028 H 
ENDBRANCH  40  42
BRANCH  40  46
ATOM     46  CG2 DVA d          41.931  53.635  81.722  0.00  0.00    -0.071 C 
ATOM     47  H9  DVA d          42.842  54.186  82.001  0.00  0.00     0.028 H 
ATOM     48  H10 DVA d          41.227  54.318  81.223  0.00  0.00     0.028 H 
ATOM     49  H11 DVA d          42.194  52.816  81.038  0.00  0.00     0.028 H 
ENDBRANCH  40  46
ENDBRANCH  34  40
ENDBRANCH  22  34
ENDBRANCH  17  20
ENDBRANCH  13  16
ENDBRANCH  10  13
ENDBRANCH   7   9
BRANCH   7  50
ATOM     50  CB  DVA d          42.785  57.207  88.777  0.00  0.00     0.044 C 
ATOM     51  H24 DVA d          43.854  57.419  88.925  0.00  0.00     0.077 H 
ATOM     52  H25 DVA d          42.336  56.899  89.733  0.00  0.00     0.077 H 
BRANCH  50  53
ATOM     53  OG  DVA d          42.136  58.378  88.310  0.00  0.00    -0.398 OA
ATOM     54  H26 DVA d          41.763  58.847  89.047  0.00  0.00     0.209 HD
ENDBRANCH  50  53
ENDBRANCH   7  50
ENDBRANCH   4   7
ENDBRANCH   1   3
BRANCH   1  55
ATOM     55  C   DVA d          41.922  53.954  91.946  0.00  0.00     0.241 C 
ATOM     56  O   DVA d          42.862  53.225  92.277  0.00  0.00    -0.271 OA
ATOM     57  N   DVA d          41.363  54.841  92.771  0.00  0.00    -0.346 N 
ATOM     58  H35 DVA d          40.623  55.423  92.433  0.00  0.00     0.163 HD
BRANCH  57  59
ATOM     59  CA  DVA d          41.810  54.986  94.173  0.00  0.00     0.094 C 
ATOM     60  H36 DVA d          40.978  55.417  94.748  0.00  0.00     0.088 H 
BRANCH  59  61
ATOM     61  C   DVA d          42.239  53.698  94.813  0.00  0.00     0.241 C 
ATOM     62  O   DVA d          41.390  52.877  95.188  0.00  0.00    -0.271 OA
ATOM     63  N   DVA d          43.549  53.538  94.967  0.00  0.00    -0.346 N 
ATOM     64  H42 DVA d          44.181  54.205  94.573  0.00  0.00     0.163 HD
BRANCH  63  65
ATOM     65  CA  DVA d          44.073  52.392  95.710  0.00  0.00     0.093 C 
ATOM     66  H43 DVA d          43.238  51.960  96.282  0.00  0.00     0.088 H 
BRANCH  65  67
ATOM     67  C   DVA d          44.661  51.270  94.864  0.00  0.00     0.241 C 
ATOM     68  O   DVA d          44.309  50.103  95.058  0.00  0.00    -0.271 OA
ATOM     69  N   DVA d          45.557  51.628  93.946  0.00  0.00    -0.345 N 
ATOM     70  H51 DVA d          45.803  52.593  93.860  0.00  0.00     0.163 HD
BRANCH  69  71
ATOM     71  CA  DVA d          46.196  50.649  93.056  0.00  0.00     0.098 C 
ATOM     72  H52 DVA d          45.657  49.696  93.166  0.00  0.00     0.088 H 
BRANCH  71  73
ATOM     73  C   DVA d          46.175  51.040  91.579  0.00  0.00     0.241 C 
ATOM     74  O   DVA d          46.720  50.339  90.717  0.00  0.00    -0.271 OA
ATOM     75  N   DVA d          45.511  52.171  91.331  0.00  0.00    -0.343 N 
ATOM     76  H55 DVA d          45.129  52.651  92.121  0.00  0.00     0.163 HD
BRANCH  75  77
ATOM     77  CA  DVA d          45.286  52.777  90.017  0.00  0.00     0.116 C 
ATOM     78  H56 DVA d          44.337  53.329  90.084  0.00  0.00     0.093 H 
BRANCH  77  79
ATOM     79  C   DVA d          46.356  53.780  89.612  0.00  0.00     0.198 C 
ATOM     80  O   DVA d          46.014  54.778  88.945  0.00  0.00    -0.646 OA
ATOM     81  OXT DVA d          47.530  53.546  89.981  0.00  0.00    -0.646 OA
ENDBRANCH  77  79
BRANCH  77  82
ATOM     82  CB  DVA d          45.120  51.711  88.927  0.00  0.00     0.045 C 
ATOM     83  H57 DVA d          44.199  51.917  88.360  0.00  0.00     0.077 H 
ATOM     84  H58 DVA d          45.046  50.720  89.400  0.00  0.00     0.077 H 
BRANCH  82  85
ATOM     85  OG  DVA d          46.226  51.718  88.033  0.00  0.00    -0.398 OA
ATOM     86  H59 DVA d          46.102  51.048  87.372  0.00  0.00     0.209 HD
ENDBRANCH  82  85
ENDBRANCH  77  82
ENDBRANCH  75  77
ENDBRANCH  71  73
BRANCH  71  87
ATOM     87  CB  DVA d          47.660  50.441  93.451  0.00  0.00     0.043 C 
ATOM     88  H53 DVA d          47.878  51.063  94.331  0.00  0.00     0.052 H 
ATOM     89  H54 DVA d          48.299  50.753  92.613  0.00  0.00     0.052 H 
BRANCH  87  90
ATOM     90  CG  DVA d          47.971  49.006  93.786  0.00  0.00     0.175 C 
ATOM     91  OD1 DVA d          48.400  48.261  92.878  0.00  0.00    -0.648 OA
ATOM     92  OD2 DVA d          47.804  48.624  94.956  0.00  0.00    -0.648 OA
ENDBRANCH  87  90
ENDBRANCH  71  87
ENDBRANCH  69  71
ENDBRANCH  65  67
BRANCH  65  93
ATOM     93  CB  DVA d          45.125  52.908  96.696  0.00  0.00    -0.014 C 
ATOM     94  H44 DVA d          46.065  53.080  96.150  0.00  0.00     0.043 H 
ATOM     95  H45 DVA d          45.286  52.143  97.471  0.00  0.00     0.043 H 
BRANCH  93  96
ATOM     96  CG  DVA d          44.711  54.205  97.374  0.00  0.00    -0.056 A 
ATOM     97  CD1 DVA d          43.600  54.248  98.222  0.00  0.00    -0.074 A 
ATOM     98  CE1 DVA d          43.180  55.443  98.831  0.00  0.00    -0.051 A 
ATOM     99  H46 DVA d          43.049  53.335  98.415  0.00  0.00     0.084 H 
ATOM    100  CZ  DVA d          43.906  56.623  98.580  0.00  0.00     0.065 A 
ATOM    101  H48 DVA d          42.312  55.455  99.482  0.00  0.00     0.087 H 
ATOM    102  CE2 DVA d          45.010  56.600  97.741  0.00  0.00    -0.051 A 
ATOM    103  CD2 DVA d          45.413  55.395  97.137  0.00  0.00    -0.074 A 
ATOM    104  H49 DVA d          45.564  57.513  97.551  0.00  0.00     0.087 H 
ATOM    105  H47 DVA d          46.277  55.388  96.482  0.00  0.00     0.084 H 
BRANCH 100 106
ATOM    106  OH  DVA d          43.543  57.811  99.175  0.00  0.00    -0.361 OA
ATOM    107  H50 DVA d          44.296  58.185  99.618  0.00  0.00     0.217 HD
ENDBRANCH 100 106
ENDBRANCH  93  96
ENDBRANCH  65  93
ENDBRANCH  63  65
ENDBRANCH  59  61
BRANCH  59 108
ATOM    108  CB  DVA d          43.038  55.891  94.291  0.00  0.00     0.004 C 
ATOM    109  H37 DVA d          43.915  55.329  93.938  0.00  0.00     0.046 H 
ATOM    110  H38 DVA d          43.173  56.153  95.351  0.00  0.00     0.046 H 
BRANCH 108 111
ATOM    111  CG  DVA d          42.949  57.163  93.502  0.00  0.00     0.053 A 
ATOM    112  ND1 DVA d          41.774  57.874  93.357  0.00  0.00    -0.247 NA
ATOM    113  CE1 DVA d          42.008  58.961  92.636  0.00  0.00     0.064 A 
ATOM    114  NE2 DVA d          43.294  58.975  92.305  0.00  0.00    -0.359 N 
ATOM    115  H40 DVA d          41.271  59.715  92.361  0.00  0.00     0.143 H 
ATOM    116  CD2 DVA d          43.901  57.859  92.836  0.00  0.00     0.002 A 
ATOM    117  H41 DVA d          43.761  59.702  91.744  0.00  0.00     0.166 HD
ATOM    118  H39 DVA d          44.950  57.586  92.737  0.00  0.00     0.114 H 
ENDBRANCH 108 111
ENDBRANCH  59 108
ENDBRANCH  57  59
ENDBRANCH   1  55
BRANCH   1 119
ATOM    119  CB  DVA d          39.806  53.800  90.600  0.00  0.00    -0.030 C 
ATOM    120  H29 DVA d          39.399  53.915  89.584  0.00  0.00     0.037 H 
ATOM    121  H30 DVA d          39.432  54.613  91.240  0.00  0.00     0.037 H 
BRANCH 119 122
ATOM    122  CG  DVA d          39.337  52.443  91.181  0.00  0.00     0.011 C 
ATOM    123  H31 DVA d          40.212  51.781  91.260  0.00  0.00     0.047 H 
ATOM    124  H32 DVA d          38.607  52.003  90.485  0.00  0.00     0.047 H 
BRANCH 122 125
ATOM    125  CD  DVA d          38.681  52.544  92.569  0.00  0.00     0.215 C 
ATOM    126  OE1 DVA d          38.634  53.629  93.177  0.00  0.00    -0.274 OA
ATOM    127  NE2 DVA d          38.171  51.433  93.061  0.00  0.00    -0.370 N 
ATOM    128  H33 DVA d          37.733  51.440  93.960  0.00  0.00     0.159 HD
ATOM    129  H34 DVA d          38.224  50.584  92.537  0.00  0.00     0.159 HD
ENDBRANCH 122 125
ENDBRANCH 119 122
ENDBRANCH   1 119
TORSDOF 34
ENDMDL
MODEL 5
REMARK VINA RESULT:      -4.6      2.198      3.019
REMARK WARNING: 32 MAX_TORS EXCEEDED!!!
REMARK  34 active torsions:
REMARK  status: ('A' for Active; 'I' for Inactive)
REMARK    1  A    between atoms: N_1  and  CA_2 
REMARK    2  A    between atoms: CA_2  and  CB_3 
REMARK    3  A    between atoms: CA_2  and  C_6 
REMARK    4  A    between atoms: CB_3  and  CG1_4 
REMARK    5  A    between atoms: CB_3  and  CG2_5 
REMARK       I    between atoms: C_6  and  N_8 
REMARK    6  A    between atoms: CA_9  and  C_13 
REMARK       I    between atoms: C_13  and  N_15 
REMARK    7  A    between atoms: N_15  and  CA_16 
REMARK    8  A    between atoms: CA_16  and  C_17 
REMARK       I    between atoms: C_17  and  N_19 
REMARK    9  A    between atoms: N_19  and  CA_20 
REMARK   10  A    between atoms: CA_20  and  C_21 
REMARK   11  A    between atoms: CA_20  and  CB_23 
REMARK       I    between atoms: C_21  and  N_25 
REMARK   12  A    between atoms: CB_23  and  OG_24 
REMARK   13  A    between atoms: N_25  and  CA_26 
REMARK   14  A    between atoms: CA_26  and  C_27 
REMARK   15  A    between atoms: CA_26  and  CB_29 
REMARK       I    between atoms: C_27  and  N_34 
REMARK   16  A    between atoms: CB_29  and  CG_30 
REMARK   17  A    between atoms: CG_30  and  CD_31 
REMARK       I    between atoms: CD_31  and  NE2_33 
REMARK   18  A    between atoms: N_34  and  CA_35 
REMARK   19  A    between atoms: CA_35  and  C_36 
REMARK   20  A    between atoms: CA_35  and  CB_38 
REMARK       I    between atoms: C_36  and  N_44 
REMARK   21  A    between atoms: CB_38  and  CG_39 
REMARK   22  A    between atoms: N_44  and  CA_45 
REMARK   23  A    between atoms: CA_45  and  C_46 
REMARK   24  A    between atoms: CA_45  and  CB_48 
REMARK       I    between atoms: C_46  and  N_56 
REMARK   25  A    between atoms: CB_48  and  CG_49 
REMARK   26  A    between atoms: CZ_54  and  OH_55 
REMARK   27  A    between atoms: N_56  and  CA_57 
REMARK   28  A    between atoms: CA_57  and  C_58 
REMARK   29  A    between atoms: CA_57  and  CB_60 
REMARK       I    between atoms: C_58  and  N_64 
REMARK   30  A    between atoms: CB_60  and  CG_61 
REMARK   31  A    between atoms: N_64  and  CA_65 
REMARK   32  A    between atoms: CA_65  and  C_66 
REMARK   33  A    between atoms: CA_65  and  CB_69 
REMARK   34  A    between atoms: CB_69  and  OG_70 
ROOT
ATOM      1  CA  DVA d          47.686  52.081  89.886  0.00  0.00     0.090 C 
ATOM      2  H28 DVA d          46.815  51.452  89.645  0.00  0.00     0.087 H 
ENDROOT
BRANCH   1   3
ATOM      3  N   DVA d          47.985  51.945  91.302  0.00  0.00    -0.346 N 
ATOM      4  C   DVA d          47.286  51.093  92.029  0.00  0.00     0.243 C 
ATOM      5  O   DVA d          46.402  50.399  91.553  0.00  0.00    -0.271 OA
ATOM      6  H27 DVA d          48.712  52.491  91.720  0.00  0.00     0.163 HD
BRANCH   4   7
ATOM      7  CA  DVA d          47.606  51.022  93.510  0.00  0.00     0.109 C 
ATOM      8  H23 DVA d          48.355  50.243  93.714  0.00  0.00     0.090 H 
BRANCH   7   9
ATOM      9  N   DVA d          46.376  50.733  94.211  0.00  0.00    -0.344 N 
ATOM     10  C   DVA d          46.265  49.703  95.034  0.00  0.00     0.236 C 
ATOM     11  O   DVA d          47.190  48.923  95.268  0.00  0.00    -0.272 OA
ATOM     12  H22 DVA d          45.585  51.329  94.070  0.00  0.00     0.163 HD
BRANCH  10  13
ATOM     13  CA  DVA d          44.923  49.521  95.694  0.00  0.00     0.069 C 
ATOM     14  H20 DVA d          44.524  48.521  95.467  0.00  0.00     0.078 H 
ATOM     15  H21 DVA d          45.020  49.637  96.783  0.00  0.00     0.078 H 
BRANCH  13  16
ATOM     16  N   DVA d          44.045  50.536  95.166  0.00  0.00    -0.351 N 
ATOM     17  C   DVA d          42.893  50.820  95.758  0.00  0.00     0.241 C 
ATOM     18  O   DVA d          42.503  50.263  96.788  0.00  0.00    -0.271 OA
ATOM     19  H19 DVA d          44.309  51.033  94.339  0.00  0.00     0.163 HD
BRANCH  17  20
ATOM     20  CA  DVA d          42.071  51.914  95.079  0.00  0.00     0.091 C 
ATOM     21  N   DVA d          42.272  53.204  95.756  0.00  0.00    -0.337 N 
ATOM     22  C   DVA d          43.270  54.126  95.759  0.00  0.00     0.251 C 
ATOM     23  CD  DVA d          41.100  53.515  96.597  0.00  0.00    -0.001 C 
ATOM     24  O   DVA d          43.206  55.138  96.468  0.00  0.00    -0.271 OA
ATOM     25  CG  DVA d          40.339  52.203  96.611  0.00  0.00    -0.048 C 
ATOM     26  H17 DVA d          40.494  54.318  96.151  0.00  0.00     0.064 H 
ATOM     27  H18 DVA d          41.406  53.807  97.612  0.00  0.00     0.064 H 
ATOM     28  CB  DVA d          40.576  51.677  95.239  0.00  0.00    -0.036 C 
ATOM     29  H15 DVA d          40.740  51.519  97.374  0.00  0.00     0.035 H 
ATOM     30  H16 DVA d          39.267  52.367  96.794  0.00  0.00     0.035 H 
ATOM     31  H13 DVA d          40.329  50.607  95.171  0.00  0.00     0.036 H 
ATOM     32  H14 DVA d          39.997  52.236  94.489  0.00  0.00     0.036 H 
ATOM     33  H12 DVA d          42.348  51.974  94.016  0.00  0.00     0.087 H 
BRANCH  22  34
ATOM     34  CA  DVA d          44.531  53.890  94.895  0.00  0.00     0.178 C 
ATOM     35  H4  DVA d          44.624  52.805  94.740  0.00  0.00     0.099 H 
BRANCH  34  36
ATOM     36  N   DVA d          45.730  54.359  95.644  0.00  0.00    -0.066 N 
ATOM     37  H1  DVA d          45.573  54.247  96.633  0.00  0.00     0.275 HD
ATOM     38  H2  DVA d          45.896  55.332  95.438  0.00  0.00     0.275 HD
ATOM     39  H3  DVA d          46.532  53.815  95.367  0.00  0.00     0.275 HD
ENDBRANCH  34  36
BRANCH  34  40
ATOM     40  CB  DVA d          44.489  54.547  93.501  0.00  0.00    -0.025 C 
ATOM     41  H5  DVA d          43.493  54.986  93.337  0.00  0.00     0.042 H 
BRANCH  40  42
ATOM     42  CG1 DVA d          45.536  55.645  93.403  0.00  0.00    -0.071 C 
ATOM     43  H6  DVA d          46.358  55.431  94.101  0.00  0.00     0.028 H 
ATOM     44  H7  DVA d          45.078  56.612  93.662  0.00  0.00     0.028 H 
ATOM     45  H8  DVA d          45.928  55.688  92.376  0.00  0.00     0.028 H 
ENDBRANCH  40  42
BRANCH  40  46
ATOM     46  CG2 DVA d          44.749  53.474  92.440  0.00  0.00    -0.071 C 
ATOM     47  H9  DVA d          43.968  52.701  92.500  0.00  0.00     0.028 H 
ATOM     48  H10 DVA d          45.734  53.016  92.616  0.00  0.00     0.028 H 
ATOM     49  H11 DVA d          44.733  53.935  91.442  0.00  0.00     0.028 H 
ENDBRANCH  40  46
ENDBRANCH  34  40
ENDBRANCH  22  34
ENDBRANCH  17  20
ENDBRANCH  13  16
ENDBRANCH  10  13
ENDBRANCH   7   9
BRANCH   7  50
ATOM     50  CB  DVA d          48.135  52.392  93.922  0.00  0.00     0.044 C 
ATOM     51  H24 DVA d          47.376  53.157  93.702  0.00  0.00     0.077 H 
ATOM     52  H25 DVA d          49.053  52.612  93.357  0.00  0.00     0.077 H 
BRANCH  50  53
ATOM     53  OG  DVA d          48.424  52.404  95.310  0.00  0.00    -0.398 OA
ATOM     54  H26 DVA d          48.910  51.621  95.539  0.00  0.00     0.209 HD
ENDBRANCH  50  53
ENDBRANCH   7  50
ENDBRANCH   4   7
ENDBRANCH   1   3
BRANCH   1  55
ATOM     55  C   DVA d          47.350  53.531  89.545  0.00  0.00     0.241 C 
ATOM     56  O   DVA d          48.042  54.455  89.984  0.00  0.00    -0.271 OA
ATOM     57  N   DVA d          46.288  53.725  88.762  0.00  0.00    -0.346 N 
ATOM     58  H35 DVA d          45.786  52.932  88.415  0.00  0.00     0.163 HD
BRANCH  57  59
ATOM     59  CA  DVA d          45.833  55.083  88.394  0.00  0.00     0.094 C 
ATOM     60  H36 DVA d          46.726  55.700  88.217  0.00  0.00     0.088 H 
BRANCH  59  61
ATOM     61  C   DVA d          44.956  55.123  87.176  0.00  0.00     0.241 C 
ATOM     62  O   DVA d          45.449  55.351  86.062  0.00  0.00    -0.271 OA
ATOM     63  N   DVA d          43.658  54.937  87.393  0.00  0.00    -0.346 N 
ATOM     64  H42 DVA d          43.339  54.683  88.306  0.00  0.00     0.163 HD
BRANCH  63  65
ATOM     65  CA  DVA d          42.694  55.101  86.306  0.00  0.00     0.093 C 
ATOM     66  H43 DVA d          42.882  56.081  85.844  0.00  0.00     0.088 H 
BRANCH  65  67
ATOM     67  C   DVA d          42.770  54.062  85.193  0.00  0.00     0.241 C 
ATOM     68  O   DVA d          42.676  52.862  85.464  0.00  0.00    -0.271 OA
ATOM     69  N   DVA d          42.952  54.530  83.959  0.00  0.00    -0.345 N 
ATOM     70  H51 DVA d          43.036  55.517  83.823  0.00  0.00     0.163 HD
BRANCH  69  71
ATOM     71  CA  DVA d          43.035  53.640  82.793  0.00  0.00     0.098 C 
ATOM     72  H52 DVA d          43.143  54.273  81.899  0.00  0.00     0.088 H 
BRANCH  71  73
ATOM     73  C   DVA d          44.210  52.665  82.832  0.00  0.00     0.241 C 
ATOM     74  O   DVA d          45.336  52.993  82.437  0.00  0.00    -0.271 OA
ATOM     75  N   DVA d          43.901  51.471  83.342  0.00  0.00    -0.343 N 
ATOM     76  H55 DVA d          42.949  51.329  83.612  0.00  0.00     0.163 HD
BRANCH  75  77
ATOM     77  CA  DVA d          44.819  50.348  83.545  0.00  0.00     0.116 C 
ATOM     78  H56 DVA d          45.272  50.131  82.566  0.00  0.00     0.093 H 
BRANCH  77  79
ATOM     79  C   DVA d          45.961  50.654  84.504  0.00  0.00     0.198 C 
ATOM     80  O   DVA d          46.994  49.956  84.442  0.00  0.00    -0.646 OA
ATOM     81  OXT DVA d          45.798  51.605  85.304  0.00  0.00    -0.646 OA
ENDBRANCH  77  79
BRANCH  77  82
ATOM     82  CB  DVA d          44.074  49.086  83.997  0.00  0.00     0.045 C 
ATOM     83  H57 DVA d          44.532  48.208  83.518  0.00  0.00     0.077 H 
ATOM     84  H58 DVA d          43.019  49.162  83.692  0.00  0.00     0.077 H 
BRANCH  82  85
ATOM     85  OG  DVA d          44.139  48.933  85.409  0.00  0.00    -0.398 OA
ATOM     86  H59 DVA d          43.397  49.371  85.809  0.00  0.00     0.209 HD
ENDBRANCH  82  85
ENDBRANCH  77  82
ENDBRANCH  75  77
ENDBRANCH  71  73
BRANCH  71  87
ATOM     87  CB  DVA d          41.757  52.809  82.661  0.00  0.00     0.043 C 
ATOM     88  H53 DVA d          41.250  52.787  83.637  0.00  0.00     0.052 H 
ATOM     89  H54 DVA d          42.031  51.786  82.367  0.00  0.00     0.052 H 
BRANCH  87  90
ATOM     90  CG  DVA d          40.805  53.367  81.636  0.00  0.00     0.175 C 
ATOM     91  OD1 DVA d          39.629  53.609  81.983  0.00  0.00    -0.648 OA
ATOM     92  OD2 DVA d          41.233  53.580  80.489  0.00  0.00    -0.648 OA
ENDBRANCH  87  90
ENDBRANCH  71  87
ENDBRANCH  69  71
ENDBRANCH  65  67
BRANCH  65  93
ATOM     93  CB  DVA d          41.289  55.110  86.916  0.00  0.00    -0.014 C 
ATOM     94  H44 DVA d          40.688  54.331  86.425  0.00  0.00     0.043 H 
ATOM     95  H45 DVA d          40.834  56.095  86.734  0.00  0.00     0.043 H 
BRANCH  93  96
ATOM     96  CG  DVA d          41.296  54.847  88.414  0.00  0.00    -0.056 A 
ATOM     97  CD1 DVA d          41.326  53.541  88.913  0.00  0.00    -0.074 A 
ATOM     98  CE1 DVA d          41.299  53.274  90.292  0.00  0.00    -0.051 A 
ATOM     99  H46 DVA d          41.372  52.711  88.216  0.00  0.00     0.084 H 
ATOM    100  CZ  DVA d          41.246  54.357  91.190  0.00  0.00     0.065 A 
ATOM    101  H48 DVA d          41.318  52.253  90.658  0.00  0.00     0.087 H 
ATOM    102  CE2 DVA d          41.214  55.660  90.714  0.00  0.00    -0.051 A 
ATOM    103  CD2 DVA d          41.238  55.907  89.330  0.00  0.00    -0.074 A 
ATOM    104  H49 DVA d          41.171  56.490  91.411  0.00  0.00     0.087 H 
ATOM    105  H47 DVA d          41.212  56.928  88.967  0.00  0.00     0.084 H 
BRANCH 100 106
ATOM    106  OH  DVA d          41.241  54.143  92.550  0.00  0.00    -0.361 OA
ATOM    107  H50 DVA d          42.090  54.372  92.909  0.00  0.00     0.217 HD
ENDBRANCH 100 106
ENDBRANCH  93  96
ENDBRANCH  65  93
ENDBRANCH  63  65
ENDBRANCH  59  61
BRANCH  59 108
ATOM    108  CB  DVA d          44.979  55.718  89.493  0.00  0.00     0.004 C 
ATOM    109  H37 DVA d          45.060  55.095  90.395  0.00  0.00     0.046 H 
ATOM    110  H38 DVA d          43.933  55.733  89.151  0.00  0.00     0.046 H 
BRANCH 108 111
ATOM    111  CG  DVA d          45.373  57.119  89.853  0.00  0.00     0.053 A 
ATOM    112  ND1 DVA d          46.589  57.670  89.500  0.00  0.00    -0.247 NA
ATOM    113  CE1 DVA d          46.643  58.922  89.929  0.00  0.00     0.064 A 
ATOM    114  NE2 DVA d          45.504  59.200  90.553  0.00  0.00    -0.359 N 
ATOM    115  H40 DVA d          47.479  59.608  89.794  0.00  0.00     0.143 H 
ATOM    116  CD2 DVA d          44.696  58.085  90.519  0.00  0.00     0.002 A 
ATOM    117  H41 DVA d          45.264  60.101  90.991  0.00  0.00     0.166 HD
ATOM    118  H39 DVA d          43.699  57.996  90.947  0.00  0.00     0.114 H 
ENDBRANCH 108 111
ENDBRANCH  59 108
ENDBRANCH  57  59
ENDBRANCH   1  55
BRANCH   1 119
ATOM    119  CB  DVA d          48.886  51.602  89.058  0.00  0.00    -0.030 C 
ATOM    120  H29 DVA d          49.513  50.947  89.681  0.00  0.00     0.037 H 
ATOM    121  H30 DVA d          49.473  52.476  88.737  0.00  0.00     0.037 H 
BRANCH 119 122
ATOM    122  CG  DVA d          48.421  50.817  87.807  0.00  0.00     0.011 C 
ATOM    123  H31 DVA d          49.299  50.323  87.365  0.00  0.00     0.047 H 
ATOM    124  H32 DVA d          48.002  51.534  87.086  0.00  0.00     0.047 H 
BRANCH 122 125
ATOM    125  CD  DVA d          47.357  49.743  88.095  0.00  0.00     0.215 C 
ATOM    126  OE1 DVA d          47.568  48.840  88.925  0.00  0.00    -0.274 OA
ATOM    127  NE2 DVA d          46.225  49.842  87.428  0.00  0.00    -0.370 N 
ATOM    128  H33 DVA d          45.498  49.172  87.575  0.00  0.00     0.159 HD
ATOM    129  H34 DVA d          46.094  50.588  86.775  0.00  0.00     0.159 HD
ENDBRANCH 122 125
ENDBRANCH 119 122
ENDBRANCH   1 119
TORSDOF 34
ENDMDL
MODEL 6
REMARK VINA RESULT:      -4.6      2.551     10.218
REMARK WARNING: 32 MAX_TORS EXCEEDED!!!
REMARK  34 active torsions:
REMARK  status: ('A' for Active; 'I' for Inactive)
REMARK    1  A    between atoms: N_1  and  CA_2 
REMARK    2  A    between atoms: CA_2  and  CB_3 
REMARK    3  A    between atoms: CA_2  and  C_6 
REMARK    4  A    between atoms: CB_3  and  CG1_4 
REMARK    5  A    between atoms: CB_3  and  CG2_5 
REMARK       I    between atoms: C_6  and  N_8 
REMARK    6  A    between atoms: CA_9  and  C_13 
REMARK       I    between atoms: C_13  and  N_15 
REMARK    7  A    between atoms: N_15  and  CA_16 
REMARK    8  A    between atoms: CA_16  and  C_17 
REMARK       I    between atoms: C_17  and  N_19 
REMARK    9  A    between atoms: N_19  and  CA_20 
REMARK   10  A    between atoms: CA_20  and  C_21 
REMARK   11  A    between atoms: CA_20  and  CB_23 
REMARK       I    between atoms: C_21  and  N_25 
REMARK   12  A    between atoms: CB_23  and  OG_24 
REMARK   13  A    between atoms: N_25  and  CA_26 
REMARK   14  A    between atoms: CA_26  and  C_27 
REMARK   15  A    between atoms: CA_26  and  CB_29 
REMARK       I    between atoms: C_27  and  N_34 
REMARK   16  A    between atoms: CB_29  and  CG_30 
REMARK   17  A    between atoms: CG_30  and  CD_31 
REMARK       I    between atoms: CD_31  and  NE2_33 
REMARK   18  A    between atoms: N_34  and  CA_35 
REMARK   19  A    between atoms: CA_35  and  C_36 
REMARK   20  A    between atoms: CA_35  and  CB_38 
REMARK       I    between atoms: C_36  and  N_44 
REMARK   21  A    between atoms: CB_38  and  CG_39 
REMARK   22  A    between atoms: N_44  and  CA_45 
REMARK   23  A    between atoms: CA_45  and  C_46 
REMARK   24  A    between atoms: CA_45  and  CB_48 
REMARK       I    between atoms: C_46  and  N_56 
REMARK   25  A    between atoms: CB_48  and  CG_49 
REMARK   26  A    between atoms: CZ_54  and  OH_55 
REMARK   27  A    between atoms: N_56  and  CA_57 
REMARK   28  A    between atoms: CA_57  and  C_58 
REMARK   29  A    between atoms: CA_57  and  CB_60 
REMARK       I    between atoms: C_58  and  N_64 
REMARK   30  A    between atoms: CB_60  and  CG_61 
REMARK   31  A    between atoms: N_64  and  CA_65 
REMARK   32  A    between atoms: CA_65  and  C_66 
REMARK   33  A    between atoms: CA_65  and  CB_69 
REMARK   34  A    between atoms: CB_69  and  OG_70 
ROOT
ATOM      1  CA  DVA d          41.949  53.316  90.773  0.00  0.00     0.090 C 
ATOM      2  H28 DVA d          42.334  52.456  90.203  0.00  0.00     0.087 H 
ENDROOT
BRANCH   1   3
ATOM      3  N   DVA d          42.284  54.538  90.060  0.00  0.00    -0.346 N 
ATOM      4  C   DVA d          42.679  54.462  88.802  0.00  0.00     0.243 C 
ATOM      5  O   DVA d          42.760  53.401  88.205  0.00  0.00    -0.271 OA
ATOM      6  H27 DVA d          42.217  55.425  90.518  0.00  0.00     0.163 HD
BRANCH   4   7
ATOM      7  CA  DVA d          43.061  55.761  88.118  0.00  0.00     0.109 C 
ATOM      8  H23 DVA d          42.247  56.119  87.470  0.00  0.00     0.090 H 
BRANCH   7   9
ATOM      9  N   DVA d          44.252  55.512  87.338  0.00  0.00    -0.344 N 
ATOM     10  C   DVA d          44.723  56.400  86.477  0.00  0.00     0.236 C 
ATOM     11  O   DVA d          44.193  57.494  86.279  0.00  0.00    -0.272 OA
ATOM     12  H22 DVA d          44.734  54.643  87.452  0.00  0.00     0.163 HD
BRANCH  10  13
ATOM     13  CA  DVA d          45.970  56.005  85.730  0.00  0.00     0.069 C 
ATOM     14  H20 DVA d          46.555  56.901  85.473  0.00  0.00     0.078 H 
ATOM     15  H21 DVA d          46.582  55.333  86.350  0.00  0.00     0.078 H 
BRANCH  13  16
ATOM     16  N   DVA d          45.554  55.325  84.528  0.00  0.00    -0.351 N 
ATOM     17  C   DVA d          45.704  54.015  84.395  0.00  0.00     0.241 C 
ATOM     18  O   DVA d          46.186  53.294  85.274  0.00  0.00    -0.271 OA
ATOM     19  H19 DVA d          45.144  55.851  83.783  0.00  0.00     0.163 HD
BRANCH  17  20
ATOM     20  CA  DVA d          45.220  53.441  83.066  0.00  0.00     0.091 C 
ATOM     21  N   DVA d          44.556  52.146  83.276  0.00  0.00    -0.337 N 
ATOM     22  C   DVA d          43.335  51.772  83.741  0.00  0.00     0.251 C 
ATOM     23  CD  DVA d          45.456  51.050  82.869  0.00  0.00    -0.001 C 
ATOM     24  O   DVA d          43.030  50.579  83.858  0.00  0.00    -0.271 OA
ATOM     25  CG  DVA d          46.788  51.757  82.695  0.00  0.00    -0.048 C 
ATOM     26  H17 DVA d          45.125  50.594  81.924  0.00  0.00     0.064 H 
ATOM     27  H18 DVA d          45.517  50.276  83.648  0.00  0.00     0.064 H 
ATOM     28  CB  DVA d          46.381  53.081  82.150  0.00  0.00    -0.036 C 
ATOM     29  H15 DVA d          47.308  51.866  83.658  0.00  0.00     0.035 H 
ATOM     30  H16 DVA d          47.435  51.218  81.988  0.00  0.00     0.035 H 
ATOM     31  H13 DVA d          47.197  53.815  82.228  0.00  0.00     0.036 H 
ATOM     32  H14 DVA d          46.057  53.002  81.101  0.00  0.00     0.036 H 
ATOM     33  H12 DVA d          44.544  54.161  82.580  0.00  0.00     0.087 H 
BRANCH  22  34
ATOM     34  CA  DVA d          42.320  52.855  84.177  0.00  0.00     0.178 C 
ATOM     35  H4  DVA d          42.870  53.803  84.268  0.00  0.00     0.099 H 
BRANCH  34  36
ATOM     36  N   DVA d          41.774  52.501  85.517  0.00  0.00    -0.066 N 
ATOM     37  H1  DVA d          40.847  52.886  85.615  0.00  0.00     0.275 HD
ATOM     38  H2  DVA d          42.373  52.879  86.234  0.00  0.00     0.275 HD
ATOM     39  H3  DVA d          41.732  51.498  85.608  0.00  0.00     0.275 HD
ENDBRANCH  34  36
BRANCH  34  40
ATOM     40  CB  DVA d          41.165  53.092  83.183  0.00  0.00    -0.025 C 
ATOM     41  H5  DVA d          40.633  52.145  83.012  0.00  0.00     0.042 H 
BRANCH  40  42
ATOM     42  CG1 DVA d          40.189  54.114  83.743  0.00  0.00    -0.071 C 
ATOM     43  H6  DVA d          39.880  54.802  82.942  0.00  0.00     0.028 H 
ATOM     44  H7  DVA d          40.675  54.684  84.548  0.00  0.00     0.028 H 
ATOM     45  H8  DVA d          39.304  53.596  84.143  0.00  0.00     0.028 H 
ENDBRANCH  40  42
BRANCH  40  46
ATOM     46  CG2 DVA d          41.748  53.590  81.857  0.00  0.00    -0.071 C 
ATOM     47  H9  DVA d          40.932  53.763  81.140  0.00  0.00     0.028 H 
ATOM     48  H10 DVA d          42.438  52.835  81.454  0.00  0.00     0.028 H 
ATOM     49  H11 DVA d          42.292  54.530  82.027  0.00  0.00     0.028 H 
ENDBRANCH  40  46
ENDBRANCH  34  40
ENDBRANCH  22  34
ENDBRANCH  17  20
ENDBRANCH  13  16
ENDBRANCH  10  13
ENDBRANCH   7   9
BRANCH   7  50
ATOM     50  CB  DVA d          43.356  56.778  89.215  0.00  0.00     0.044 C 
ATOM     51  H24 DVA d          42.471  56.887  89.859  0.00  0.00     0.077 H 
ATOM     52  H25 DVA d          43.598  57.748  88.757  0.00  0.00     0.077 H 
BRANCH  50  53
ATOM     53  OG  DVA d          44.455  56.343  90.000  0.00  0.00    -0.398 OA
ATOM     54  H26 DVA d          44.194  56.305  90.912  0.00  0.00     0.209 HD
ENDBRANCH  50  53
ENDBRANCH   7  50
ENDBRANCH   4   7
ENDBRANCH   1   3
BRANCH   1  55
ATOM     55  C   DVA d          42.590  53.310  92.158  0.00  0.00     0.241 C 
ATOM     56  O   DVA d          43.404  52.435  92.469  0.00  0.00    -0.271 OA
ATOM     57  N   DVA d          42.220  54.287  92.987  0.00  0.00    -0.346 N 
ATOM     58  H35 DVA d          41.578  54.983  92.665  0.00  0.00     0.163 HD
BRANCH  57  59
ATOM     59  CA  DVA d          42.737  54.368  94.371  0.00  0.00     0.094 C 
ATOM     60  H36 DVA d          42.090  55.060  94.930  0.00  0.00     0.088 H 
BRANCH  59  61
ATOM     61  C   DVA d          42.781  53.048  95.083  0.00  0.00     0.241 C 
ATOM     62  O   DVA d          41.728  52.473  95.395  0.00  0.00    -0.271 OA
ATOM     63  N   DVA d          43.994  52.588  95.370  0.00  0.00    -0.346 N 
ATOM     64  H42 DVA d          44.801  53.064  95.023  0.00  0.00     0.163 HD
BRANCH  63  65
ATOM     65  CA  DVA d          44.156  51.388  96.191  0.00  0.00     0.093 C 
ATOM     66  H43 DVA d          43.160  51.107  96.564  0.00  0.00     0.088 H 
BRANCH  65  67
ATOM     67  C   DVA d          44.724  50.169  95.474  0.00  0.00     0.241 C 
ATOM     68  O   DVA d          44.210  49.060  95.644  0.00  0.00    -0.271 OA
ATOM     69  N   DVA d          45.782  50.382  94.694  0.00  0.00    -0.345 N 
ATOM     70  H51 DVA d          46.152  51.308  94.620  0.00  0.00     0.163 HD
BRANCH  69  71
ATOM     71  CA  DVA d          46.424  49.298  93.937  0.00  0.00     0.098 C 
ATOM     72  H52 DVA d          45.740  48.435  93.946  0.00  0.00     0.088 H 
BRANCH  71  73
ATOM     73  C   DVA d          46.731  49.648  92.482  0.00  0.00     0.241 C 
ATOM     74  O   DVA d          46.798  48.774  91.608  0.00  0.00    -0.271 OA
ATOM     75  N   DVA d          46.893  50.955  92.266  0.00  0.00    -0.343 N 
ATOM     76  H55 DVA d          46.827  51.555  93.063  0.00  0.00     0.163 HD
BRANCH  75  77
ATOM     77  CA  DVA d          47.155  51.597  90.976  0.00  0.00     0.116 C 
ATOM     78  H56 DVA d          46.793  50.905  90.201  0.00  0.00     0.093 H 
BRANCH  77  79
ATOM     79  C   DVA d          46.411  52.910  90.780  0.00  0.00     0.198 C 
ATOM     80  O   DVA d          46.632  53.844  91.578  0.00  0.00    -0.646 OA
ATOM     81  OXT DVA d          45.616  52.979  89.815  0.00  0.00    -0.646 OA
ENDBRANCH  77  79
BRANCH  77  82
ATOM     82  CB  DVA d          48.657  51.800  90.744  0.00  0.00     0.045 C 
ATOM     83  H57 DVA d          48.801  52.547  89.949  0.00  0.00     0.077 H 
ATOM     84  H58 DVA d          49.107  50.844  90.436  0.00  0.00     0.077 H 
BRANCH  82  85
ATOM     85  OG  DVA d          49.300  52.254  91.929  0.00  0.00    -0.398 OA
ATOM     86  H59 DVA d          48.883  53.055  92.227  0.00  0.00     0.209 HD
ENDBRANCH  82  85
ENDBRANCH  77  82
ENDBRANCH  75  77
ENDBRANCH  71  73
BRANCH  71  87
ATOM     87  CB  DVA d          47.744  48.893  94.597  0.00  0.00     0.043 C 
ATOM     88  H53 DVA d          48.437  48.549  93.815  0.00  0.00     0.052 H 
ATOM     89  H54 DVA d          47.547  48.071  95.301  0.00  0.00     0.052 H 
BRANCH  87  90
ATOM     90  CG  DVA d          48.388  50.028  95.348  0.00  0.00     0.175 C 
ATOM     91  OD1 DVA d          48.373  50.001  96.599  0.00  0.00    -0.648 OA
ATOM     92  OD2 DVA d          48.925  50.938  94.695  0.00  0.00    -0.648 OA
ENDBRANCH  87  90
ENDBRANCH  71  87
ENDBRANCH  69  71
ENDBRANCH  65  67
BRANCH  65  93
ATOM     93  CB  DVA d          45.042  51.749  97.388  0.00  0.00    -0.014 C 
ATOM     94  H44 DVA d          45.839  50.996  97.475  0.00  0.00     0.043 H 
ATOM     95  H45 DVA d          44.424  51.736  98.298  0.00  0.00     0.043 H 
BRANCH  93  96
ATOM     96  CG  DVA d          45.681  53.122  97.255  0.00  0.00    -0.056 A 
ATOM     97  CD1 DVA d          46.843  53.301  96.497  0.00  0.00    -0.074 A 
ATOM     98  CE1 DVA d          47.470  54.554  96.388  0.00  0.00    -0.051 A 
ATOM     99  H46 DVA d          47.272  52.450  95.980  0.00  0.00     0.084 H 
ATOM    100  CZ  DVA d          46.902  55.656  97.057  0.00  0.00     0.065 A 
ATOM    101  H48 DVA d          48.373  54.671  95.799  0.00  0.00     0.087 H 
ATOM    102  CE2 DVA d          45.751  55.498  97.814  0.00  0.00    -0.051 A 
ATOM    103  CD2 DVA d          45.140  54.234  97.915  0.00  0.00    -0.074 A 
ATOM    104  H49 DVA d          45.320  56.349  98.329  0.00  0.00     0.087 H 
ATOM    105  H47 DVA d          44.241  54.120  98.510  0.00  0.00     0.084 H 
BRANCH 100 106
ATOM    106  OH  DVA d          47.470  56.906  96.959  0.00  0.00    -0.361 OA
ATOM    107  H50 DVA d          48.364  56.873  97.278  0.00  0.00     0.217 HD
ENDBRANCH 100 106
ENDBRANCH  93  96
ENDBRANCH  65  93
ENDBRANCH  63  65
ENDBRANCH  59  61
BRANCH  59 108
ATOM    108  CB  DVA d          44.182  54.867  94.413  0.00  0.00     0.004 C 
ATOM    109  H37 DVA d          44.819  54.121  93.915  0.00  0.00     0.046 H 
ATOM    110  H38 DVA d          44.483  54.961  95.467  0.00  0.00     0.046 H 
BRANCH 108 111
ATOM    111  CG  DVA d          44.401  56.191  93.745  0.00  0.00     0.053 A 
ATOM    112  ND1 DVA d          45.658  56.690  93.463  0.00  0.00    -0.247 NA
ATOM    113  CE1 DVA d          45.537  57.858  92.849  0.00  0.00     0.064 A 
ATOM    114  NE2 DVA d          44.244  58.135  92.728  0.00  0.00    -0.359 N 
ATOM    115  H40 DVA d          46.358  58.485  92.503  0.00  0.00     0.143 H 
ATOM    116  CD2 DVA d          43.516  57.106  93.284  0.00  0.00     0.002 A 
ATOM    117  H41 DVA d          43.850  58.980  92.292  0.00  0.00     0.166 HD
ATOM    118  H39 DVA d          42.430  57.041  93.342  0.00  0.00     0.114 H 
ENDBRANCH 108 111
ENDBRANCH  59 108
ENDBRANCH  57  59
ENDBRANCH   1  55
BRANCH   1 119
ATOM    119  CB  DVA d          40.425  53.191  90.889  0.00  0.00    -0.030 C 
ATOM    120  H29 DVA d          40.002  53.003  89.891  0.00  0.00     0.037 H 
ATOM    121  H30 DVA d          40.016  54.131  91.290  0.00  0.00     0.037 H 
BRANCH 119 122
ATOM    122  CG  DVA d          40.032  52.026  91.832  0.00  0.00     0.011 C 
ATOM    123  H31 DVA d          40.848  51.878  92.555  0.00  0.00     0.047 H 
ATOM    124  H32 DVA d          39.911  51.117  91.225  0.00  0.00     0.047 H 
BRANCH 122 125
ATOM    125  CD  DVA d          38.729  52.261  92.616  0.00  0.00     0.215 C 
ATOM    126  OE1 DVA d          38.014  51.304  92.967  0.00  0.00    -0.274 OA
ATOM    127  NE2 DVA d          38.427  53.511  92.897  0.00  0.00    -0.370 N 
ATOM    128  H33 DVA d          37.592  53.722  93.404  0.00  0.00     0.159 HD
ATOM    129  H34 DVA d          39.033  54.250  92.602  0.00  0.00     0.159 HD
ENDBRANCH 122 125
ENDBRANCH 119 122
ENDBRANCH   1 119
TORSDOF 34
ENDMDL
MODEL 7
REMARK VINA RESULT:      -4.3      2.810     10.425
REMARK WARNING: 32 MAX_TORS EXCEEDED!!!
REMARK  34 active torsions:
REMARK  status: ('A' for Active; 'I' for Inactive)
REMARK    1  A    between atoms: N_1  and  CA_2 
REMARK    2  A    between atoms: CA_2  and  CB_3 
REMARK    3  A    between atoms: CA_2  and  C_6 
REMARK    4  A    between atoms: CB_3  and  CG1_4 
REMARK    5  A    between atoms: CB_3  and  CG2_5 
REMARK       I    between atoms: C_6  and  N_8 
REMARK    6  A    between atoms: CA_9  and  C_13 
REMARK       I    between atoms: C_13  and  N_15 
REMARK    7  A    between atoms: N_15  and  CA_16 
REMARK    8  A    between atoms: CA_16  and  C_17 
REMARK       I    between atoms: C_17  and  N_19 
REMARK    9  A    between atoms: N_19  and  CA_20 
REMARK   10  A    between atoms: CA_20  and  C_21 
REMARK   11  A    between atoms: CA_20  and  CB_23 
REMARK       I    between atoms: C_21  and  N_25 
REMARK   12  A    between atoms: CB_23  and  OG_24 
REMARK   13  A    between atoms: N_25  and  CA_26 
REMARK   14  A    between atoms: CA_26  and  C_27 
REMARK   15  A    between atoms: CA_26  and  CB_29 
REMARK       I    between atoms: C_27  and  N_34 
REMARK   16  A    between atoms: CB_29  and  CG_30 
REMARK   17  A    between atoms: CG_30  and  CD_31 
REMARK       I    between atoms: CD_31  and  NE2_33 
REMARK   18  A    between atoms: N_34  and  CA_35 
REMARK   19  A    between atoms: CA_35  and  C_36 
REMARK   20  A    between atoms: CA_35  and  CB_38 
REMARK       I    between atoms: C_36  and  N_44 
REMARK   21  A    between atoms: CB_38  and  CG_39 
REMARK   22  A    between atoms: N_44  and  CA_45 
REMARK   23  A    between atoms: CA_45  and  C_46 
REMARK   24  A    between atoms: CA_45  and  CB_48 
REMARK       I    between atoms: C_46  and  N_56 
REMARK   25  A    between atoms: CB_48  and  CG_49 
REMARK   26  A    between atoms: CZ_54  and  OH_55 
REMARK   27  A    between atoms: N_56  and  CA_57 
REMARK   28  A    between atoms: CA_57  and  C_58 
REMARK   29  A    between atoms: CA_57  and  CB_60 
REMARK       I    between atoms: C_58  and  N_64 
REMARK   30  A    between atoms: CB_60  and  CG_61 
REMARK   31  A    between atoms: N_64  and  CA_65 
REMARK   32  A    between atoms: CA_65  and  C_66 
REMARK   33  A    between atoms: CA_65  and  CB_69 
REMARK   34  A    between atoms: CB_69  and  OG_70 
ROOT
ATOM      1  CA  DVA d          45.169  51.109  87.317  0.00  0.00     0.090 C 
ATOM      2  H28 DVA d          44.950  50.135  87.780  0.00  0.00     0.087 H 
ENDROOT
BRANCH   1   3
ATOM      3  N   DVA d          46.609  51.305  87.295  0.00  0.00    -0.346 N 
ATOM      4  C   DVA d          47.393  50.377  87.811  0.00  0.00     0.243 C 
ATOM      5  O   DVA d          46.954  49.346  88.296  0.00  0.00    -0.271 OA
ATOM      6  H27 DVA d          47.001  52.134  86.894  0.00  0.00     0.163 HD
BRANCH   4   7
ATOM      7  CA  DVA d          48.885  50.650  87.805  0.00  0.00     0.109 C 
ATOM      8  H23 DVA d          49.146  51.430  88.535  0.00  0.00     0.090 H 
BRANCH   7   9
ATOM      9  N   DVA d          49.249  51.067  86.471  0.00  0.00    -0.344 N 
ATOM     10  C   DVA d          49.384  52.344  86.149  0.00  0.00     0.236 C 
ATOM     11  O   DVA d          49.216  53.263  86.952  0.00  0.00    -0.272 OA
ATOM     12  H22 DVA d          49.404  50.371  85.769  0.00  0.00     0.163 HD
BRANCH  10  13
ATOM     13  CA  DVA d          49.764  52.634  84.720  0.00  0.00     0.069 C 
ATOM     14  H20 DVA d          50.788  53.033  84.677  0.00  0.00     0.078 H 
ATOM     15  H21 DVA d          49.704  51.713  84.122  0.00  0.00     0.078 H 
BRANCH  13  16
ATOM     16  N   DVA d          48.830  53.611  84.218  0.00  0.00    -0.351 N 
ATOM     17  C   DVA d          48.029  53.333  83.199  0.00  0.00     0.241 C 
ATOM     18  O   DVA d          48.012  52.238  82.628  0.00  0.00    -0.271 OA
ATOM     19  H19 DVA d          48.786  54.515  84.645  0.00  0.00     0.163 HD
BRANCH  17  20
ATOM     20  CA  DVA d          47.100  54.470  82.778  0.00  0.00     0.091 C 
ATOM     21  N   DVA d          45.879  54.465  83.597  0.00  0.00    -0.337 N 
ATOM     22  C   DVA d          45.586  54.860  84.864  0.00  0.00     0.251 C 
ATOM     23  CD  DVA d          44.756  53.906  82.818  0.00  0.00    -0.001 C 
ATOM     24  O   DVA d          44.455  54.707  85.339  0.00  0.00    -0.271 OA
ATOM     25  CG  DVA d          45.452  53.306  81.611  0.00  0.00    -0.048 C 
ATOM     26  H17 DVA d          44.051  54.695  82.517  0.00  0.00     0.064 H 
ATOM     27  H18 DVA d          44.222  53.134  83.392  0.00  0.00     0.064 H 
ATOM     28  CB  DVA d          46.563  54.267  81.368  0.00  0.00    -0.036 C 
ATOM     29  H15 DVA d          45.838  52.301  81.833  0.00  0.00     0.035 H 
ATOM     30  H16 DVA d          44.775  53.257  80.746  0.00  0.00     0.035 H 
ATOM     31  H13 DVA d          47.328  53.837  80.705  0.00  0.00     0.036 H 
ATOM     32  H14 DVA d          46.193  55.210  80.939  0.00  0.00     0.036 H 
ATOM     33  H12 DVA d          47.633  55.429  82.862  0.00  0.00     0.087 H 
BRANCH  22  34
ATOM     34  CA  DVA d          46.698  55.472  85.748  0.00  0.00     0.178 C 
ATOM     35  H4  DVA d          47.664  55.190  85.304  0.00  0.00     0.099 H 
BRANCH  34  36
ATOM     36  N   DVA d          46.620  54.877  87.111  0.00  0.00    -0.066 N 
ATOM     37  H1  DVA d          45.858  54.218  87.147  0.00  0.00     0.275 HD
ATOM     38  H2  DVA d          46.466  55.607  87.789  0.00  0.00     0.275 HD
ATOM     39  H3  DVA d          47.484  54.402  87.320  0.00  0.00     0.275 HD
ENDBRANCH  34  36
BRANCH  34  40
ATOM     40  CB  DVA d          46.672  57.011  85.843  0.00  0.00    -0.025 C 
ATOM     41  H5  DVA d          47.638  57.367  86.232  0.00  0.00     0.042 H 
BRANCH  40  42
ATOM     42  CG1 DVA d          46.438  57.620  84.469  0.00  0.00    -0.071 C 
ATOM     43  H6  DVA d          47.268  57.349  83.801  0.00  0.00     0.028 H 
ATOM     44  H7  DVA d          46.381  58.715  84.558  0.00  0.00     0.028 H 
ATOM     45  H8  DVA d          45.493  57.237  84.054  0.00  0.00     0.028 H 
ENDBRANCH  40  42
BRANCH  40  46
ATOM     46  CG2 DVA d          45.556  57.429  86.803  0.00  0.00    -0.071 C 
ATOM     47  H9  DVA d          44.938  58.208  86.331  0.00  0.00     0.028 H 
ATOM     48  H10 DVA d          45.998  57.822  87.730  0.00  0.00     0.028 H 
ATOM     49  H11 DVA d          44.929  56.557  87.038  0.00  0.00     0.028 H 
ENDBRANCH  40  46
ENDBRANCH  34  40
ENDBRANCH  22  34
ENDBRANCH  17  20
ENDBRANCH  13  16
ENDBRANCH  10  13
ENDBRANCH   7   9
BRANCH   7  50
ATOM     50  CB  DVA d          49.584  49.339  88.154  0.00  0.00     0.044 C 
ATOM     51  H24 DVA d          49.164  48.940  89.089  0.00  0.00     0.077 H 
ATOM     52  H25 DVA d          50.661  49.525  88.285  0.00  0.00     0.077 H 
BRANCH  50  53
ATOM     53  OG  DVA d          49.394  48.395  87.113  0.00  0.00    -0.398 OA
ATOM     54  H26 DVA d          48.465  48.233  87.000  0.00  0.00     0.209 HD
ENDBRANCH  50  53
ENDBRANCH   7  50
ENDBRANCH   4   7
ENDBRANCH   1   3
BRANCH   1  55
ATOM     55  C   DVA d          44.491  52.203  88.138  0.00  0.00     0.241 C 
ATOM     56  O   DVA d          45.130  52.844  88.978  0.00  0.00    -0.271 OA
ATOM     57  N   DVA d          43.197  52.412  87.893  0.00  0.00    -0.346 N 
ATOM     58  H35 DVA d          42.743  51.879  87.179  0.00  0.00     0.163 HD
BRANCH  57  59
ATOM     59  CA  DVA d          42.415  53.414  88.651  0.00  0.00     0.094 C 
ATOM     60  H36 DVA d          41.422  53.487  88.185  0.00  0.00     0.088 H 
BRANCH  59  61
ATOM     61  C   DVA d          42.256  53.088  90.107  0.00  0.00     0.241 C 
ATOM     62  O   DVA d          41.884  51.958  90.454  0.00  0.00    -0.271 OA
ATOM     63  N   DVA d          42.501  54.084  90.952  0.00  0.00    -0.346 N 
ATOM     64  H42 DVA d          42.870  54.947  90.608  0.00  0.00     0.163 HD
BRANCH  63  65
ATOM     65  CA  DVA d          42.236  53.925  92.381  0.00  0.00     0.093 C 
ATOM     66  H43 DVA d          42.731  54.758  92.903  0.00  0.00     0.088 H 
BRANCH  65  67
ATOM     67  C   DVA d          40.768  53.955  92.788  0.00  0.00     0.241 C 
ATOM     68  O   DVA d          39.898  53.624  91.978  0.00  0.00    -0.271 OA
ATOM     69  N   DVA d          40.506  54.362  94.029  0.00  0.00    -0.345 N 
ATOM     70  H51 DVA d          41.266  54.630  94.621  0.00  0.00     0.163 HD
BRANCH  69  71
ATOM     71  CA  DVA d          39.136  54.431  94.555  0.00  0.00     0.098 C 
ATOM     72  H52 DVA d          38.449  54.440  93.694  0.00  0.00     0.088 H 
BRANCH  71  73
ATOM     73  C   DVA d          38.754  53.259  95.458  0.00  0.00     0.241 C 
ATOM     74  O   DVA d          37.590  52.842  95.517  0.00  0.00    -0.271 OA
ATOM     75  N   DVA d          39.782  52.743  96.134  0.00  0.00    -0.343 N 
ATOM     76  H55 DVA d          40.671  53.184  96.007  0.00  0.00     0.163 HD
BRANCH  75  77
ATOM     77  CA  DVA d          39.738  51.596  97.042  0.00  0.00     0.116 C 
ATOM     78  H56 DVA d          38.805  51.056  96.822  0.00  0.00     0.093 H 
BRANCH  77  79
ATOM     79  C   DVA d          40.879  50.609  96.843  0.00  0.00     0.198 C 
ATOM     80  O   DVA d          41.833  50.631  97.647  0.00  0.00    -0.646 OA
ATOM     81  OXT DVA d          40.789  49.819  95.875  0.00  0.00    -0.646 OA
ENDBRANCH  77  79
BRANCH  77  82
ATOM     82  CB  DVA d          39.675  52.042  98.509  0.00  0.00     0.045 C 
ATOM     83  H57 DVA d          39.850  51.170  99.157  0.00  0.00     0.077 H 
ATOM     84  H58 DVA d          38.678  52.459  98.715  0.00  0.00     0.077 H 
BRANCH  82  85
ATOM     85  OG  DVA d          40.659  53.031  98.784  0.00  0.00    -0.398 OA
ATOM     86  H59 DVA d          41.522  52.635  98.756  0.00  0.00     0.209 HD
ENDBRANCH  82  85
ENDBRANCH  77  82
ENDBRANCH  75  77
ENDBRANCH  71  73
BRANCH  71  87
ATOM     87  CB  DVA d          38.936  55.714  95.363  0.00  0.00     0.043 C 
ATOM     88  H53 DVA d          39.065  55.481  96.431  0.00  0.00     0.052 H 
ATOM     89  H54 DVA d          37.915  56.084  95.189  0.00  0.00     0.052 H 
BRANCH  87  90
ATOM     90  CG  DVA d          39.912  56.796  94.984  0.00  0.00     0.175 C 
ATOM     91  OD1 DVA d          39.735  57.410  93.909  0.00  0.00    -0.648 OA
ATOM     92  OD2 DVA d          40.846  57.047  95.764  0.00  0.00    -0.648 OA
ENDBRANCH  87  90
ENDBRANCH  71  87
ENDBRANCH  69  71
ENDBRANCH  65  67
BRANCH  65  93
ATOM     93  CB  DVA d          42.878  52.612  92.839  0.00  0.00    -0.014 C 
ATOM     94  H44 DVA d          42.798  51.878  92.024  0.00  0.00     0.043 H 
ATOM     95  H45 DVA d          42.332  52.242  93.720  0.00  0.00     0.043 H 
BRANCH  93  96
ATOM     96  CG  DVA d          44.345  52.771  93.209  0.00  0.00    -0.056 A 
ATOM     97  CD1 DVA d          44.725  53.499  94.341  0.00  0.00    -0.074 A 
ATOM     98  CE1 DVA d          46.074  53.687  94.682  0.00  0.00    -0.051 A 
ATOM     99  H46 DVA d          43.956  53.929  94.973  0.00  0.00     0.084 H 
ATOM    100  CZ  DVA d          47.066  53.118  93.859  0.00  0.00     0.065 A 
ATOM    101  H48 DVA d          46.348  54.259  95.562  0.00  0.00     0.087 H 
ATOM    102  CE2 DVA d          46.709  52.393  92.731  0.00  0.00    -0.051 A 
ATOM    103  CD2 DVA d          45.352  52.220  92.405  0.00  0.00    -0.074 A 
ATOM    104  H49 DVA d          47.477  51.960  92.101  0.00  0.00     0.087 H 
ATOM    105  H47 DVA d          45.083  51.653  91.520  0.00  0.00     0.084 H 
BRANCH 100 106
ATOM    106  OH  DVA d          48.401  53.257  94.168  0.00  0.00    -0.361 OA
ATOM    107  H50 DVA d          48.550  52.965  95.060  0.00  0.00     0.217 HD
ENDBRANCH 100 106
ENDBRANCH  93  96
ENDBRANCH  65  93
ENDBRANCH  63  65
ENDBRANCH  59  61
BRANCH  59 108
ATOM    108  CB  DVA d          43.088  54.788  88.645  0.00  0.00     0.004 C 
ATOM    109  H37 DVA d          43.737  54.850  87.758  0.00  0.00     0.046 H 
ATOM    110  H38 DVA d          43.701  54.875  89.554  0.00  0.00     0.046 H 
BRANCH 108 111
ATOM    111  CG  DVA d          42.136  55.945  88.610  0.00  0.00     0.053 A 
ATOM    112  ND1 DVA d          40.785  55.812  88.864  0.00  0.00    -0.247 NA
ATOM    113  CE1 DVA d          40.206  57.002  88.788  0.00  0.00     0.064 A 
ATOM    114  NE2 DVA d          41.136  57.901  88.489  0.00  0.00    -0.359 N 
ATOM    115  H40 DVA d          39.148  57.208  88.945  0.00  0.00     0.143 H 
ATOM    116  CD2 DVA d          42.350  57.260  88.371  0.00  0.00     0.002 A 
ATOM    117  H41 DVA d          40.977  58.910  88.366  0.00  0.00     0.166 HD
ATOM    118  H39 DVA d          43.305  57.726  88.131  0.00  0.00     0.114 H 
ENDBRANCH 108 111
ENDBRANCH  59 108
ENDBRANCH  57  59
ENDBRANCH   1  55
BRANCH   1 119
ATOM    119  CB  DVA d          44.629  51.107  85.881  0.00  0.00    -0.030 C 
ATOM    120  H29 DVA d          45.115  51.914  85.313  0.00  0.00     0.037 H 
ATOM    121  H30 DVA d          43.542  51.279  85.906  0.00  0.00     0.037 H 
BRANCH 119 122
ATOM    122  CG  DVA d          44.912  49.755  85.182  0.00  0.00     0.011 C 
ATOM    123  H31 DVA d          43.948  49.285  84.938  0.00  0.00     0.047 H 
ATOM    124  H32 DVA d          45.466  49.113  85.883  0.00  0.00     0.047 H 
BRANCH 122 125
ATOM    125  CD  DVA d          45.732  49.875  83.885  0.00  0.00     0.215 C 
ATOM    126  OE1 DVA d          45.173  50.085  82.793  0.00  0.00    -0.274 OA
ATOM    127  NE2 DVA d          47.038  49.753  84.001  0.00  0.00    -0.370 N 
ATOM    128  H33 DVA d          47.620  49.822  83.191  0.00  0.00     0.159 HD
ATOM    129  H34 DVA d          47.447  49.592  84.898  0.00  0.00     0.159 HD
ENDBRANCH 122 125
ENDBRANCH 119 122
ENDBRANCH   1 119
TORSDOF 34
ENDMDL
MODEL 8
REMARK VINA RESULT:      -4.3      2.615      9.598
REMARK WARNING: 32 MAX_TORS EXCEEDED!!!
REMARK  34 active torsions:
REMARK  status: ('A' for Active; 'I' for Inactive)
REMARK    1  A    between atoms: N_1  and  CA_2 
REMARK    2  A    between atoms: CA_2  and  CB_3 
REMARK    3  A    between atoms: CA_2  and  C_6 
REMARK    4  A    between atoms: CB_3  and  CG1_4 
REMARK    5  A    between atoms: CB_3  and  CG2_5 
REMARK       I    between atoms: C_6  and  N_8 
REMARK    6  A    between atoms: CA_9  and  C_13 
REMARK       I    between atoms: C_13  and  N_15 
REMARK    7  A    between atoms: N_15  and  CA_16 
REMARK    8  A    between atoms: CA_16  and  C_17 
REMARK       I    between atoms: C_17  and  N_19 
REMARK    9  A    between atoms: N_19  and  CA_20 
REMARK   10  A    between atoms: CA_20  and  C_21 
REMARK   11  A    between atoms: CA_20  and  CB_23 
REMARK       I    between atoms: C_21  and  N_25 
REMARK   12  A    between atoms: CB_23  and  OG_24 
REMARK   13  A    between atoms: N_25  and  CA_26 
REMARK   14  A    between atoms: CA_26  and  C_27 
REMARK   15  A    between atoms: CA_26  and  CB_29 
REMARK       I    between atoms: C_27  and  N_34 
REMARK   16  A    between atoms: CB_29  and  CG_30 
REMARK   17  A    between atoms: CG_30  and  CD_31 
REMARK       I    between atoms: CD_31  and  NE2_33 
REMARK   18  A    between atoms: N_34  and  CA_35 
REMARK   19  A    between atoms: CA_35  and  C_36 
REMARK   20  A    between atoms: CA_35  and  CB_38 
REMARK       I    between atoms: C_36  and  N_44 
REMARK   21  A    between atoms: CB_38  and  CG_39 
REMARK   22  A    between atoms: N_44  and  CA_45 
REMARK   23  A    between atoms: CA_45  and  C_46 
REMARK   24  A    between atoms: CA_45  and  CB_48 
REMARK       I    between atoms: C_46  and  N_56 
REMARK   25  A    between atoms: CB_48  and  CG_49 
REMARK   26  A    between atoms: CZ_54  and  OH_55 
REMARK   27  A    between atoms: N_56  and  CA_57 
REMARK   28  A    between atoms: CA_57  and  C_58 
REMARK   29  A    between atoms: CA_57  and  CB_60 
REMARK       I    between atoms: C_58  and  N_64 
REMARK   30  A    between atoms: CB_60  and  CG_61 
REMARK   31  A    between atoms: N_64  and  CA_65 
REMARK   32  A    between atoms: CA_65  and  C_66 
REMARK   33  A    between atoms: CA_65  and  CB_69 
REMARK   34  A    between atoms: CB_69  and  OG_70 
ROOT
ATOM      1  CA  DVA d          40.103  52.633  91.641  0.00  0.00     0.090 C 
ATOM      2  H28 DVA d          40.431  51.656  91.255  0.00  0.00     0.087 H 
ENDROOT
BRANCH   1   3
ATOM      3  N   DVA d          39.944  53.549  90.524  0.00  0.00    -0.346 N 
ATOM      4  C   DVA d          40.817  53.514  89.533  0.00  0.00     0.243 C 
ATOM      5  O   DVA d          41.750  52.727  89.512  0.00  0.00    -0.271 OA
ATOM      6  H27 DVA d          39.183  54.198  90.506  0.00  0.00     0.163 HD
BRANCH   4   7
ATOM      7  CA  DVA d          40.634  54.521  88.414  0.00  0.00     0.109 C 
ATOM      8  H23 DVA d          39.576  54.804  88.309  0.00  0.00     0.090 H 
BRANCH   7   9
ATOM      9  N   DVA d          41.114  53.912  87.194  0.00  0.00    -0.344 N 
ATOM     10  C   DVA d          41.214  54.595  86.064  0.00  0.00     0.236 C 
ATOM     11  O   DVA d          40.913  55.785  85.966  0.00  0.00    -0.272 OA
ATOM     12  H22 DVA d          41.379  52.948  87.203  0.00  0.00     0.163 HD
BRANCH  10  13
ATOM     13  CA  DVA d          41.727  53.832  84.870  0.00  0.00     0.069 C 
ATOM     14  H20 DVA d          41.653  52.750  85.055  0.00  0.00     0.078 H 
ATOM     15  H21 DVA d          41.140  54.092  83.977  0.00  0.00     0.078 H 
BRANCH  13  16
ATOM     16  N   DVA d          43.106  54.208  84.682  0.00  0.00    -0.351 N 
ATOM     17  C   DVA d          44.084  53.550  85.289  0.00  0.00     0.241 C 
ATOM     18  O   DVA d          43.893  52.580  86.029  0.00  0.00    -0.271 OA
ATOM     19  H19 DVA d          43.329  54.978  84.084  0.00  0.00     0.163 HD
BRANCH  17  20
ATOM     20  CA  DVA d          45.491  54.067  84.995  0.00  0.00     0.091 C 
ATOM     21  N   DVA d          46.448  52.952  84.940  0.00  0.00    -0.337 N 
ATOM     22  C   DVA d          46.739  51.999  84.016  0.00  0.00     0.251 C 
ATOM     23  CD  DVA d          47.244  52.915  86.182  0.00  0.00    -0.001 C 
ATOM     24  O   DVA d          47.588  51.128  84.239  0.00  0.00    -0.271 OA
ATOM     25  CG  DVA d          46.496  53.875  87.088  0.00  0.00    -0.048 C 
ATOM     26  H17 DVA d          48.273  53.259  86.004  0.00  0.00     0.064 H 
ATOM     27  H18 DVA d          47.264  51.901  86.609  0.00  0.00     0.064 H 
ATOM     28  CB  DVA d          46.028  54.919  86.136  0.00  0.00    -0.036 C 
ATOM     29  H15 DVA d          45.648  53.378  87.582  0.00  0.00     0.035 H 
ATOM     30  H16 DVA d          47.164  54.303  87.850  0.00  0.00     0.035 H 
ATOM     31  H13 DVA d          45.237  55.542  86.580  0.00  0.00     0.036 H 
ATOM     32  H14 DVA d          46.858  55.561  85.803  0.00  0.00     0.036 H 
ATOM     33  H12 DVA d          45.483  54.633  84.051  0.00  0.00     0.087 H 
BRANCH  22  34
ATOM     34  CA  DVA d          45.965  51.972  82.677  0.00  0.00     0.178 C 
ATOM     35  H4  DVA d          44.910  52.182  82.903  0.00  0.00     0.099 H 
BRANCH  34  36
ATOM     36  N   DVA d          46.053  50.605  82.091  0.00  0.00    -0.066 N 
ATOM     37  H1  DVA d          45.640  49.940  82.726  0.00  0.00     0.275 HD
ATOM     38  H2  DVA d          47.021  50.367  81.938  0.00  0.00     0.275 HD
ATOM     39  H3  DVA d          45.559  50.584  81.213  0.00  0.00     0.275 HD
ENDBRANCH  34  36
BRANCH  34  40
ATOM     40  CB  DVA d          46.428  53.019  81.645  0.00  0.00    -0.025 C 
ATOM     41  H5  DVA d          47.192  53.666  82.102  0.00  0.00     0.042 H 
BRANCH  40  42
ATOM     42  CG1 DVA d          47.025  52.332  80.427  0.00  0.00    -0.071 C 
ATOM     43  H6  DVA d          47.282  51.294  80.681  0.00  0.00     0.028 H 
ATOM     44  H7  DVA d          47.934  52.868  80.112  0.00  0.00     0.028 H 
ATOM     45  H8  DVA d          46.293  52.339  79.606  0.00  0.00     0.028 H 
ENDBRANCH  40  42
BRANCH  40  46
ATOM     46  CG2 DVA d          45.225  53.872  81.232  0.00  0.00    -0.071 C 
ATOM     47  H9  DVA d          45.203  54.791  81.836  0.00  0.00     0.028 H 
ATOM     48  H10 DVA d          44.298  53.302  81.396  0.00  0.00     0.028 H 
ATOM     49  H11 DVA d          45.310  54.135  80.168  0.00  0.00     0.028 H 
ENDBRANCH  40  46
ENDBRANCH  34  40
ENDBRANCH  22  34
ENDBRANCH  17  20
ENDBRANCH  13  16
ENDBRANCH  10  13
ENDBRANCH   7   9
BRANCH   7  50
ATOM     50  CB  DVA d          41.482  55.740  88.761  0.00  0.00     0.044 C 
ATOM     51  H24 DVA d          40.823  56.567  89.064  0.00  0.00     0.077 H 
ATOM     52  H25 DVA d          42.066  56.040  87.879  0.00  0.00     0.077 H 
BRANCH  50  53
ATOM     53  OG  DVA d          42.365  55.430  89.826  0.00  0.00    -0.398 OA
ATOM     54  H26 DVA d          42.444  56.184  90.399  0.00  0.00     0.209 HD
ENDBRANCH  50  53
ENDBRANCH   7  50
ENDBRANCH   4   7
ENDBRANCH   1   3
BRANCH   1  55
ATOM     55  C   DVA d          41.159  53.152  92.614  0.00  0.00     0.241 C 
ATOM     56  O   DVA d          40.900  54.082  93.383  0.00  0.00    -0.271 OA
ATOM     57  N   DVA d          42.348  52.548  92.577  0.00  0.00    -0.346 N 
ATOM     58  H35 DVA d          42.485  51.780  91.951  0.00  0.00     0.163 HD
BRANCH  57  59
ATOM     59  CA  DVA d          43.468  52.984  93.439  0.00  0.00     0.094 C 
ATOM     60  H36 DVA d          44.248  52.210  93.393  0.00  0.00     0.088 H 
BRANCH  59  61
ATOM     61  C   DVA d          44.059  54.307  93.047  0.00  0.00     0.241 C 
ATOM     62  O   DVA d          44.226  54.583  91.850  0.00  0.00    -0.271 OA
ATOM     63  N   DVA d          44.406  55.105  94.051  0.00  0.00    -0.346 N 
ATOM     64  H42 DVA d          44.173  54.852  94.989  0.00  0.00     0.163 HD
BRANCH  63  65
ATOM     65  CA  DVA d          45.125  56.352  93.792  0.00  0.00     0.093 C 
ATOM     66  H43 DVA d          45.273  56.854  94.760  0.00  0.00     0.088 H 
BRANCH  65  67
ATOM     67  C   DVA d          46.500  56.201  93.153  0.00  0.00     0.241 C 
ATOM     68  O   DVA d          47.505  56.122  93.865  0.00  0.00    -0.271 OA
ATOM     69  N   DVA d          46.533  56.175  91.822  0.00  0.00    -0.345 N 
ATOM     70  H51 DVA d          45.676  56.260  91.313  0.00  0.00     0.163 HD
BRANCH  69  71
ATOM     71  CA  DVA d          47.791  56.025  91.076  0.00  0.00     0.098 C 
ATOM     72  H52 DVA d          48.617  56.243  91.769  0.00  0.00     0.088 H 
BRANCH  71  73
ATOM     73  C   DVA d          48.010  54.629  90.496  0.00  0.00     0.241 C 
ATOM     74  O   DVA d          49.018  54.356  89.831  0.00  0.00    -0.271 OA
ATOM     75  N   DVA d          47.038  53.764  90.792  0.00  0.00    -0.343 N 
ATOM     76  H55 DVA d          46.269  54.116  91.326  0.00  0.00     0.163 HD
BRANCH  75  77
ATOM     77  CA  DVA d          46.987  52.350  90.414  0.00  0.00     0.116 C 
ATOM     78  H56 DVA d          47.304  52.294  89.362  0.00  0.00     0.093 H 
BRANCH  77  79
ATOM     79  C   DVA d          47.937  51.466  91.210  0.00  0.00     0.198 C 
ATOM     80  O   DVA d          48.837  50.856  90.598  0.00  0.00    -0.646 OA
ATOM     81  OXT DVA d          47.761  51.407  92.449  0.00  0.00    -0.646 OA
ENDBRANCH  77  79
BRANCH  77  82
ATOM     82  CB  DVA d          45.559  51.798  90.493  0.00  0.00     0.045 C 
ATOM     83  H57 DVA d          45.262  51.717  91.550  0.00  0.00     0.077 H 
ATOM     84  H58 DVA d          45.532  50.801  90.028  0.00  0.00     0.077 H 
BRANCH  82  85
ATOM     85  OG  DVA d          44.643  52.651  89.817  0.00  0.00    -0.398 OA
ATOM     86  H59 DVA d          45.011  53.525  89.760  0.00  0.00     0.209 HD
ENDBRANCH  82  85
ENDBRANCH  77  82
ENDBRANCH  75  77
ENDBRANCH  71  73
BRANCH  71  87
ATOM     87  CB  DVA d          47.844  57.016  89.911  0.00  0.00     0.043 C 
ATOM     88  H53 DVA d          46.848  57.068  89.447  0.00  0.00     0.052 H 
ATOM     89  H54 DVA d          48.574  56.653  89.174  0.00  0.00     0.052 H 
BRANCH  87  90
ATOM     90  CG  DVA d          48.246  58.401  90.347  0.00  0.00     0.175 C 
ATOM     91  OD1 DVA d          49.303  58.887  89.888  0.00  0.00    -0.648 OA
ATOM     92  OD2 DVA d          47.501  59.011  91.131  0.00  0.00    -0.648 OA
ENDBRANCH  87  90
ENDBRANCH  71  87
ENDBRANCH  69  71
ENDBRANCH  65  67
BRANCH  65  93
ATOM     93  CB  DVA d          44.236  57.238  92.914  0.00  0.00    -0.014 C 
ATOM     94  H44 DVA d          43.965  56.677  92.008  0.00  0.00     0.043 H 
ATOM     95  H45 DVA d          44.804  58.137  92.633  0.00  0.00     0.043 H 
BRANCH  93  96
ATOM     96  CG  DVA d          42.958  57.671  93.617  0.00  0.00    -0.056 A 
ATOM     97  CD1 DVA d          41.708  57.468  93.023  0.00  0.00    -0.074 A 
ATOM     98  CE1 DVA d          40.518  57.890  93.638  0.00  0.00    -0.051 A 
ATOM     99  H46 DVA d          41.657  56.972  92.060  0.00  0.00     0.084 H 
ATOM    100  CZ  DVA d          40.594  58.528  94.892  0.00  0.00     0.065 A 
ATOM    101  H48 DVA d          39.560  57.728  93.158  0.00  0.00     0.087 H 
ATOM    102  CE2 DVA d          41.824  58.738  95.497  0.00  0.00    -0.051 A 
ATOM    103  CD2 DVA d          43.005  58.312  94.863  0.00  0.00    -0.074 A 
ATOM    104  H49 DVA d          41.876  59.232  96.461  0.00  0.00     0.087 H 
ATOM    105  H47 DVA d          43.962  58.482  95.343  0.00  0.00     0.084 H 
BRANCH 100 106
ATOM    106  OH  DVA d          39.451  58.937  95.542  0.00  0.00    -0.361 OA
ATOM    107  H50 DVA d          39.595  58.908  96.481  0.00  0.00     0.217 HD
ENDBRANCH 100 106
ENDBRANCH  93  96
ENDBRANCH  65  93
ENDBRANCH  63  65
ENDBRANCH  59  61
BRANCH  59 108
ATOM    108  CB  DVA d          43.027  53.185  94.891  0.00  0.00     0.004 C 
ATOM    109  H37 DVA d          41.977  52.871  94.978  0.00  0.00     0.046 H 
ATOM    110  H38 DVA d          43.111  54.255  95.131  0.00  0.00     0.046 H 
BRANCH 108 111
ATOM    111  CG  DVA d          43.832  52.416  95.894  0.00  0.00     0.053 A 
ATOM    112  ND1 DVA d          44.911  52.958  96.565  0.00  0.00    -0.247 NA
ATOM    113  CE1 DVA d          45.403  52.056  97.403  0.00  0.00     0.064 A 
ATOM    114  NE2 DVA d          44.681  50.947  97.294  0.00  0.00    -0.359 N 
ATOM    115  H40 DVA d          46.253  52.201  98.068  0.00  0.00     0.143 H 
ATOM    116  CD2 DVA d          43.695  51.149  96.354  0.00  0.00     0.002 A 
ATOM    117  H41 DVA d          44.835  50.077  97.824  0.00  0.00     0.166 HD
ATOM    118  H39 DVA d          42.944  50.426  96.039  0.00  0.00     0.114 H 
ENDBRANCH 108 111
ENDBRANCH  59 108
ENDBRANCH  57  59
ENDBRANCH   1  55
BRANCH   1 119
ATOM    119  CB  DVA d          38.758  52.457  92.357  0.00  0.00    -0.030 C 
ATOM    120  H29 DVA d          37.953  52.825  91.704  0.00  0.00     0.037 H 
ATOM    121  H30 DVA d          38.769  53.038  93.291  0.00  0.00     0.037 H 
BRANCH 119 122
ATOM    122  CG  DVA d          38.496  50.967  92.691  0.00  0.00     0.011 C 
ATOM    123  H31 DVA d          39.423  50.405  92.509  0.00  0.00     0.047 H 
ATOM    124  H32 DVA d          37.705  50.597  92.021  0.00  0.00     0.047 H 
BRANCH 122 125
ATOM    125  CD  DVA d          38.055  50.714  94.144  0.00  0.00     0.215 C 
ATOM    126  OE1 DVA d          36.849  50.690  94.451  0.00  0.00    -0.274 OA
ATOM    127  NE2 DVA d          39.015  50.519  95.024  0.00  0.00    -0.370 N 
ATOM    128  H33 DVA d          38.786  50.350  95.983  0.00  0.00     0.159 HD
ATOM    129  H34 DVA d          39.971  50.539  94.735  0.00  0.00     0.159 HD
ENDBRANCH 122 125
ENDBRANCH 119 122
ENDBRANCH   1 119
TORSDOF 34
ENDMDL
MODEL 9
REMARK VINA RESULT:      -4.0      3.289      9.555
REMARK WARNING: 32 MAX_TORS EXCEEDED!!!
REMARK  34 active torsions:
REMARK  status: ('A' for Active; 'I' for Inactive)
REMARK    1  A    between atoms: N_1  and  CA_2 
REMARK    2  A    between atoms: CA_2  and  CB_3 
REMARK    3  A    between atoms: CA_2  and  C_6 
REMARK    4  A    between atoms: CB_3  and  CG1_4 
REMARK    5  A    between atoms: CB_3  and  CG2_5 
REMARK       I    between atoms: C_6  and  N_8 
REMARK    6  A    between atoms: CA_9  and  C_13 
REMARK       I    between atoms: C_13  and  N_15 
REMARK    7  A    between atoms: N_15  and  CA_16 
REMARK    8  A    between atoms: CA_16  and  C_17 
REMARK       I    between atoms: C_17  and  N_19 
REMARK    9  A    between atoms: N_19  and  CA_20 
REMARK   10  A    between atoms: CA_20  and  C_21 
REMARK   11  A    between atoms: CA_20  and  CB_23 
REMARK       I    between atoms: C_21  and  N_25 
REMARK   12  A    between atoms: CB_23  and  OG_24 
REMARK   13  A    between atoms: N_25  and  CA_26 
REMARK   14  A    between atoms: CA_26  and  C_27 
REMARK   15  A    between atoms: CA_26  and  CB_29 
REMARK       I    between atoms: C_27  and  N_34 
REMARK   16  A    between atoms: CB_29  and  CG_30 
REMARK   17  A    between atoms: CG_30  and  CD_31 
REMARK       I    between atoms: CD_31  and  NE2_33 
REMARK   18  A    between atoms: N_34  and  CA_35 
REMARK   19  A    between atoms: CA_35  and  C_36 
REMARK   20  A    between atoms: CA_35  and  CB_38 
REMARK       I    between atoms: C_36  and  N_44 
REMARK   21  A    between atoms: CB_38  and  CG_39 
REMARK   22  A    between atoms: N_44  and  CA_45 
REMARK   23  A    between atoms: CA_45  and  C_46 
REMARK   24  A    between atoms: CA_45  and  CB_48 
REMARK       I    between atoms: C_46  and  N_56 
REMARK   25  A    between atoms: CB_48  and  CG_49 
REMARK   26  A    between atoms: CZ_54  and  OH_55 
REMARK   27  A    between atoms: N_56  and  CA_57 
REMARK   28  A    between atoms: CA_57  and  C_58 
REMARK   29  A    between atoms: CA_57  and  CB_60 
REMARK       I    between atoms: C_58  and  N_64 
REMARK   30  A    between atoms: CB_60  and  CG_61 
REMARK   31  A    between atoms: N_64  and  CA_65 
REMARK   32  A    between atoms: CA_65  and  C_66 
REMARK   33  A    between atoms: CA_65  and  CB_69 
REMARK   34  A    between atoms: CB_69  and  OG_70 
ROOT
ATOM      1  CA  DVA d          43.919  55.052  90.333  0.00  0.00     0.090 C 
ATOM      2  H28 DVA d          44.093  54.180  89.684  0.00  0.00     0.087 H 
ENDROOT
BRANCH   1   3
ATOM      3  N   DVA d          44.624  56.196  89.779  0.00  0.00    -0.346 N 
ATOM      4  C   DVA d          45.532  56.000  88.840  0.00  0.00     0.243 C 
ATOM      5  O   DVA d          45.794  54.890  88.405  0.00  0.00    -0.271 OA
ATOM      6  H27 DVA d          44.424  57.120  90.106  0.00  0.00     0.163 HD
BRANCH   4   7
ATOM      7  CA  DVA d          46.272  57.222  88.329  0.00  0.00     0.109 C 
ATOM      8  H23 DVA d          45.608  58.097  88.289  0.00  0.00     0.090 H 
BRANCH   7   9
ATOM      9  N   DVA d          46.772  56.910  87.009  0.00  0.00    -0.344 N 
ATOM     10  C   DVA d          46.198  57.381  85.914  0.00  0.00     0.236 C 
ATOM     11  O   DVA d          45.209  58.115  85.933  0.00  0.00    -0.272 OA
ATOM     12  H22 DVA d          47.576  56.321  86.921  0.00  0.00     0.163 HD
BRANCH  10  13
ATOM     13  CA  DVA d          46.824  56.972  84.606  0.00  0.00     0.069 C 
ATOM     14  H20 DVA d          47.027  57.862  83.991  0.00  0.00     0.078 H 
ATOM     15  H21 DVA d          47.764  56.433  84.792  0.00  0.00     0.078 H 
BRANCH  13  16
ATOM     16  N   DVA d          45.885  56.110  83.932  0.00  0.00    -0.351 N 
ATOM     17  C   DVA d          45.996  54.790  84.001  0.00  0.00     0.241 C 
ATOM     18  O   DVA d          46.880  54.216  84.643  0.00  0.00    -0.271 OA
ATOM     19  H19 DVA d          45.138  56.514  83.404  0.00  0.00     0.163 HD
BRANCH  17  20
ATOM     20  CA  DVA d          44.931  54.012  83.232  0.00  0.00     0.091 C 
ATOM     21  N   DVA d          44.957  52.591  83.612  0.00  0.00    -0.337 N 
ATOM     22  C   DVA d          44.516  51.891  84.689  0.00  0.00     0.251 C 
ATOM     23  CD  DVA d          45.611  51.802  82.550  0.00  0.00    -0.001 C 
ATOM     24  O   DVA d          44.703  50.672  84.783  0.00  0.00    -0.271 OA
ATOM     25  CG  DVA d          46.233  52.871  81.672  0.00  0.00    -0.048 C 
ATOM     26  H17 DVA d          44.875  51.207  81.989  0.00  0.00     0.064 H 
ATOM     27  H18 DVA d          46.380  51.136  82.968  0.00  0.00     0.064 H 
ATOM     28  CB  DVA d          45.230  53.969  81.740  0.00  0.00    -0.036 C 
ATOM     29  H15 DVA d          47.205  53.196  82.070  0.00  0.00     0.035 H 
ATOM     30  H16 DVA d          46.360  52.513  80.640  0.00  0.00     0.035 H 
ATOM     31  H13 DVA d          45.652  54.921  81.387  0.00  0.00     0.036 H 
ATOM     32  H14 DVA d          44.329  53.727  81.156  0.00  0.00     0.036 H 
ATOM     33  H12 DVA d          43.942  54.457  83.422  0.00  0.00     0.087 H 
BRANCH  22  34
ATOM     34  CA  DVA d          43.804  52.635  85.844  0.00  0.00     0.178 C 
ATOM     35  H4  DVA d          44.318  53.598  85.981  0.00  0.00     0.099 H 
BRANCH  34  36
ATOM     36  N   DVA d          43.952  51.844  87.098  0.00  0.00    -0.066 N 
ATOM     37  H1  DVA d          44.791  52.131  87.578  0.00  0.00     0.275 HD
ATOM     38  H2  DVA d          44.013  50.864  86.872  0.00  0.00     0.275 HD
ATOM     39  H3  DVA d          43.154  52.003  87.692  0.00  0.00     0.275 HD
ENDBRANCH  34  36
BRANCH  34  40
ATOM     40  CB  DVA d          42.316  52.946  85.590  0.00  0.00    -0.025 C 
ATOM     41  H5  DVA d          41.702  52.413  86.331  0.00  0.00     0.042 H 
BRANCH  40  42
ATOM     42  CG1 DVA d          42.059  54.439  85.717  0.00  0.00    -0.071 C 
ATOM     43  H6  DVA d          40.988  54.614  85.896  0.00  0.00     0.028 H 
ATOM     44  H7  DVA d          42.363  54.944  84.787  0.00  0.00     0.028 H 
ATOM     45  H8  DVA d          42.642  54.841  86.559  0.00  0.00     0.028 H 
ENDBRANCH  40  42
BRANCH  40  46
ATOM     46  CG2 DVA d          41.943  52.465  84.185  0.00  0.00    -0.071 C 
ATOM     47  H9  DVA d          42.803  52.594  83.512  0.00  0.00     0.028 H 
ATOM     48  H10 DVA d          41.092  53.052  83.810  0.00  0.00     0.028 H 
ATOM     49  H11 DVA d          41.665  51.402  84.224  0.00  0.00     0.028 H 
ENDBRANCH  40  46
ENDBRANCH  34  40
ENDBRANCH  22  34
ENDBRANCH  17  20
ENDBRANCH  13  16
ENDBRANCH  10  13
ENDBRANCH   7   9
BRANCH   7  50
ATOM     50  CB  DVA d          47.434  57.476  89.283  0.00  0.00     0.044 C 
ATOM     51  H24 DVA d          47.273  56.909  90.212  0.00  0.00     0.077 H 
ATOM     52  H25 DVA d          47.487  58.551  89.513  0.00  0.00     0.077 H 
BRANCH  50  53
ATOM     53  OG  DVA d          48.653  57.063  88.687  0.00  0.00    -0.398 OA
ATOM     54  H26 DVA d          48.484  56.754  87.805  0.00  0.00     0.209 HD
ENDBRANCH  50  53
ENDBRANCH   7  50
ENDBRANCH   4   7
ENDBRANCH   1   3
BRANCH   1  55
ATOM     55  C   DVA d          44.435  54.730  91.733  0.00  0.00     0.241 C 
ATOM     56  O   DVA d          45.535  54.190  91.888  0.00  0.00    -0.271 OA
ATOM     57  N   DVA d          43.638  55.061  92.750  0.00  0.00    -0.346 N 
ATOM     58  H35 DVA d          42.771  55.523  92.559  0.00  0.00     0.163 HD
BRANCH  57  59
ATOM     59  CA  DVA d          44.003  54.765  94.152  0.00  0.00     0.094 C 
ATOM     60  H36 DVA d          43.116  54.947  94.776  0.00  0.00     0.088 H 
BRANCH  59  61
ATOM     61  C   DVA d          44.484  53.359  94.372  0.00  0.00     0.241 C 
ATOM     62  O   DVA d          43.668  52.433  94.478  0.00  0.00    -0.271 OA
ATOM     63  N   DVA d          45.800  53.209  94.475  0.00  0.00    -0.346 N 
ATOM     64  H42 DVA d          46.404  53.987  94.305  0.00  0.00     0.163 HD
BRANCH  63  65
ATOM     65  CA  DVA d          46.371  51.912  94.837  0.00  0.00     0.093 C 
ATOM     66  H43 DVA d          45.744  51.487  95.635  0.00  0.00     0.088 H 
BRANCH  65  67
ATOM     67  C   DVA d          46.429  50.880  93.718  0.00  0.00     0.241 C 
ATOM     68  O   DVA d          46.363  49.677  93.985  0.00  0.00    -0.271 OA
ATOM     69  N   DVA d          46.565  51.356  92.481  0.00  0.00    -0.345 N 
ATOM     70  H51 DVA d          46.628  52.345  92.347  0.00  0.00     0.163 HD
BRANCH  69  71
ATOM     71  CA  DVA d          46.625  50.473  91.308  0.00  0.00     0.098 C 
ATOM     72  H52 DVA d          45.827  49.723  91.415  0.00  0.00     0.088 H 
BRANCH  71  73
ATOM     73  C   DVA d          46.429  51.192  89.975  0.00  0.00     0.241 C 
ATOM     74  O   DVA d          45.364  51.760  89.697  0.00  0.00    -0.271 OA
ATOM     75  N   DVA d          47.501  51.158  89.182  0.00  0.00    -0.343 N 
ATOM     76  H55 DVA d          48.295  50.652  89.519  0.00  0.00     0.163 HD
BRANCH  75  77
ATOM     77  CA  DVA d          47.631  51.788  87.867  0.00  0.00     0.116 C 
ATOM     78  H56 DVA d          46.668  52.276  87.655  0.00  0.00     0.093 H 
BRANCH  77  79
ATOM     79  C   DVA d          48.699  52.871  87.806  0.00  0.00     0.198 C 
ATOM     80  O   DVA d          49.079  53.393  88.874  0.00  0.00    -0.646 OA
ATOM     81  OXT DVA d          49.143  53.174  86.674  0.00  0.00    -0.646 OA
ENDBRANCH  77  79
BRANCH  77  82
ATOM     82  CB  DVA d          47.869  50.748  86.765  0.00  0.00     0.045 C 
ATOM     83  H57 DVA d          48.777  51.018  86.205  0.00  0.00     0.077 H 
ATOM     84  H58 DVA d          47.006  50.742  86.083  0.00  0.00     0.077 H 
BRANCH  82  85
ATOM     85  OG  DVA d          48.034  49.448  87.318  0.00  0.00    -0.398 OA
ATOM     86  H59 DVA d          47.203  49.144  87.663  0.00  0.00     0.209 HD
ENDBRANCH  82  85
ENDBRANCH  77  82
ENDBRANCH  75  77
ENDBRANCH  71  73
BRANCH  71  87
ATOM     87  CB  DVA d          47.976  49.757  91.246  0.00  0.00     0.043 C 
ATOM     88  H53 DVA d          48.411  49.738  92.256  0.00  0.00     0.052 H 
ATOM     89  H54 DVA d          48.640  50.317  90.571  0.00  0.00     0.052 H 
BRANCH  87  90
ATOM     90  CG  DVA d          47.859  48.343  90.743  0.00  0.00     0.175 C 
ATOM     91  OD1 DVA d          48.587  47.986  89.790  0.00  0.00    -0.648 OA
ATOM     92  OD2 DVA d          47.056  47.581  91.306  0.00  0.00    -0.648 OA
ENDBRANCH  87  90
ENDBRANCH  71  87
ENDBRANCH  69  71
ENDBRANCH  65  67
BRANCH  65  93
ATOM     93  CB  DVA d          47.776  52.153  95.398  0.00  0.00    -0.014 C 
ATOM     94  H44 DVA d          48.468  51.435  94.935  0.00  0.00     0.043 H 
ATOM     95  H45 DVA d          47.753  51.991  96.486  0.00  0.00     0.043 H 
BRANCH  93  96
ATOM     96  CG  DVA d          48.284  53.561  95.128  0.00  0.00    -0.056 A 
ATOM     97  CD1 DVA d          48.344  54.511  96.153  0.00  0.00    -0.074 A 
ATOM     98  CE1 DVA d          48.778  55.826  95.919  0.00  0.00    -0.051 A 
ATOM     99  H46 DVA d          48.048  54.224  97.156  0.00  0.00     0.084 H 
ATOM    100  CZ  DVA d          49.168  56.189  94.615  0.00  0.00     0.065 A 
ATOM    101  H48 DVA d          48.812  56.549  96.727  0.00  0.00     0.087 H 
ATOM    102  CE2 DVA d          49.114  55.261  93.585  0.00  0.00    -0.051 A 
ATOM    103  CD2 DVA d          48.673  53.950  93.839  0.00  0.00    -0.074 A 
ATOM    104  H49 DVA d          49.413  55.547  92.583  0.00  0.00     0.087 H 
ATOM    105  H47 DVA d          48.633  53.232  93.027  0.00  0.00     0.084 H 
BRANCH 100 106
ATOM    106  OH  DVA d          49.621  57.461  94.345  0.00  0.00    -0.361 OA
ATOM    107  H50 DVA d          50.108  57.787  95.093  0.00  0.00     0.217 HD
ENDBRANCH 100 106
ENDBRANCH  93  96
ENDBRANCH  65  93
ENDBRANCH  63  65
ENDBRANCH  59  61
BRANCH  59 108
ATOM    108  CB  DVA d          45.162  55.638  94.638  0.00  0.00     0.004 C 
ATOM    109  H37 DVA d          45.673  56.053  93.757  0.00  0.00     0.046 H 
ATOM    110  H38 DVA d          45.860  55.002  95.201  0.00  0.00     0.046 H 
BRANCH 108 111
ATOM    111  CG  DVA d          44.751  56.778  95.521  0.00  0.00     0.053 A 
ATOM    112  ND1 DVA d          45.535  57.243  96.558  0.00  0.00    -0.247 NA
ATOM    113  CE1 DVA d          44.928  58.268  97.139  0.00  0.00     0.064 A 
ATOM    114  NE2 DVA d          43.775  58.479  96.516  0.00  0.00    -0.359 N 
ATOM    115  H40 DVA d          45.310  58.840  97.983  0.00  0.00     0.143 H 
ATOM    116  CD2 DVA d          43.644  57.557  95.501  0.00  0.00     0.002 A 
ATOM    117  H41 DVA d          43.091  59.212  96.752  0.00  0.00     0.166 HD
ATOM    118  H39 DVA d          42.805  57.470  94.812  0.00  0.00     0.114 H 
ENDBRANCH 108 111
ENDBRANCH  59 108
ENDBRANCH  57  59
ENDBRANCH   1  55
BRANCH   1 119
ATOM    119  CB  DVA d          42.414  55.346  90.373  0.00  0.00    -0.030 C 
ATOM    120  H29 DVA d          42.217  56.285  89.835  0.00  0.00     0.037 H 
ATOM    121  H30 DVA d          42.096  55.449  91.422  0.00  0.00     0.037 H 
BRANCH 119 122
ATOM    122  CG  DVA d          41.606  54.204  89.709  0.00  0.00     0.011 C 
ATOM    123  H31 DVA d          41.326  53.481  90.489  0.00  0.00     0.047 H 
ATOM    124  H32 DVA d          42.251  53.712  88.966  0.00  0.00     0.047 H 
BRANCH 122 125
ATOM    125  CD  DVA d          40.322  54.670  89.000  0.00  0.00     0.215 C 
ATOM    126  OE1 DVA d          40.273  55.772  88.424  0.00  0.00    -0.274 OA
ATOM    127  NE2 DVA d          39.298  53.841  89.031  0.00  0.00    -0.370 N 
ATOM    128  H33 DVA d          38.438  54.092  88.587  0.00  0.00     0.159 HD
ATOM    129  H34 DVA d          39.381  52.962  89.499  0.00  0.00     0.159 HD
ENDBRANCH 122 125
ENDBRANCH 119 122
ENDBRANCH   1 119
TORSDOF 34
ENDMDL
MODEL 10
REMARK VINA RESULT:      -3.8      2.765     10.384
REMARK WARNING: 32 MAX_TORS EXCEEDED!!!
REMARK  34 active torsions:
REMARK  status: ('A' for Active; 'I' for Inactive)
REMARK    1  A    between atoms: N_1  and  CA_2 
REMARK    2  A    between atoms: CA_2  and  CB_3 
REMARK    3  A    between atoms: CA_2  and  C_6 
REMARK    4  A    between atoms: CB_3  and  CG1_4 
REMARK    5  A    between atoms: CB_3  and  CG2_5 
REMARK       I    between atoms: C_6  and  N_8 
REMARK    6  A    between atoms: CA_9  and  C_13 
REMARK       I    between atoms: C_13  and  N_15 
REMARK    7  A    between atoms: N_15  and  CA_16 
REMARK    8  A    between atoms: CA_16  and  C_17 
REMARK       I    between atoms: C_17  and  N_19 
REMARK    9  A    between atoms: N_19  and  CA_20 
REMARK   10  A    between atoms: CA_20  and  C_21 
REMARK   11  A    between atoms: CA_20  and  CB_23 
REMARK       I    between atoms: C_21  and  N_25 
REMARK   12  A    between atoms: CB_23  and  OG_24 
REMARK   13  A    between atoms: N_25  and  CA_26 
REMARK   14  A    between atoms: CA_26  and  C_27 
REMARK   15  A    between atoms: CA_26  and  CB_29 
REMARK       I    between atoms: C_27  and  N_34 
REMARK   16  A    between atoms: CB_29  and  CG_30 
REMARK   17  A    between atoms: CG_30  and  CD_31 
REMARK       I    between atoms: CD_31  and  NE2_33 
REMARK   18  A    between atoms: N_34  and  CA_35 
REMARK   19  A    between atoms: CA_35  and  C_36 
REMARK   20  A    between atoms: CA_35  and  CB_38 
REMARK       I    between atoms: C_36  and  N_44 
REMARK   21  A    between atoms: CB_38  and  CG_39 
REMARK   22  A    between atoms: N_44  and  CA_45 
REMARK   23  A    between atoms: CA_45  and  C_46 
REMARK   24  A    between atoms: CA_45  and  CB_48 
REMARK       I    between atoms: C_46  and  N_56 
REMARK   25  A    between atoms: CB_48  and  CG_49 
REMARK   26  A    between atoms: CZ_54  and  OH_55 
REMARK   27  A    between atoms: N_56  and  CA_57 
REMARK   28  A    between atoms: CA_57  and  C_58 
REMARK   29  A    between atoms: CA_57  and  CB_60 
REMARK       I    between atoms: C_58  and  N_64 
REMARK   30  A    between atoms: CB_60  and  CG_61 
REMARK   31  A    between atoms: N_64  and  CA_65 
REMARK   32  A    between atoms: CA_65  and  C_66 
REMARK   33  A    between atoms: CA_65  and  CB_69 
REMARK   34  A    between atoms: CB_69  and  OG_70 
ROOT
ATOM      1  CA  DVA d          40.312  52.623  91.757  0.00  0.00     0.090 C 
ATOM      2  H28 DVA d          40.655  51.629  91.430  0.00  0.00     0.087 H 
ENDROOT
BRANCH   1   3
ATOM      3  N   DVA d          40.166  53.476  90.589  0.00  0.00    -0.346 N 
ATOM      4  C   DVA d          40.890  53.224  89.513  0.00  0.00     0.243 C 
ATOM      5  O   DVA d          41.670  52.287  89.455  0.00  0.00    -0.271 OA
ATOM      6  H27 DVA d          39.526  54.244  90.600  0.00  0.00     0.163 HD
BRANCH   4   7
ATOM      7  CA  DVA d          40.734  54.170  88.338  0.00  0.00     0.109 C 
ATOM      8  H23 DVA d          39.692  54.197  87.989  0.00  0.00     0.090 H 
BRANCH   7   9
ATOM      9  N   DVA d          41.606  53.706  87.283  0.00  0.00    -0.344 N 
ATOM     10  C   DVA d          41.533  54.188  86.052  0.00  0.00     0.236 C 
ATOM     11  O   DVA d          40.731  55.060  85.716  0.00  0.00    -0.272 OA
ATOM     12  H22 DVA d          42.285  53.001  87.488  0.00  0.00     0.163 HD
BRANCH  10  13
ATOM     13  CA  DVA d          42.502  53.610  85.054  0.00  0.00     0.069 C 
ATOM     14  H20 DVA d          41.971  53.335  84.130  0.00  0.00     0.078 H 
ATOM     15  H21 DVA d          43.286  54.344  84.821  0.00  0.00     0.078 H 
BRANCH  13  16
ATOM     16  N   DVA d          43.087  52.436  85.654  0.00  0.00    -0.351 N 
ATOM     17  C   DVA d          44.275  51.990  85.270  0.00  0.00     0.241 C 
ATOM     18  O   DVA d          44.958  52.541  84.402  0.00  0.00    -0.271 OA
ATOM     19  H19 DVA d          42.588  51.950  86.372  0.00  0.00     0.163 HD
BRANCH  17  20
ATOM     20  CA  DVA d          44.759  50.736  85.995  0.00  0.00     0.091 C 
ATOM     21  N   DVA d          46.223  50.755  86.131  0.00  0.00    -0.337 N 
ATOM     22  C   DVA d          47.090  51.411  86.946  0.00  0.00     0.251 C 
ATOM     23  CD  DVA d          46.828  49.834  85.149  0.00  0.00    -0.001 C 
ATOM     24  O   DVA d          48.314  51.273  86.825  0.00  0.00    -0.271 OA
ATOM     25  CG  DVA d          45.664  49.509  84.232  0.00  0.00    -0.048 C 
ATOM     26  H17 DVA d          47.212  48.927  85.638  0.00  0.00     0.064 H 
ATOM     27  H18 DVA d          47.643  50.325  84.595  0.00  0.00     0.064 H 
ATOM     28  CB  DVA d          44.511  49.479  85.173  0.00  0.00    -0.036 C 
ATOM     29  H15 DVA d          45.531  50.287  83.466  0.00  0.00     0.035 H 
ATOM     30  H16 DVA d          45.803  48.534  83.744  0.00  0.00     0.035 H 
ATOM     31  H13 DVA d          43.553  49.532  84.637  0.00  0.00     0.036 H 
ATOM     32  H14 DVA d          44.530  48.577  85.803  0.00  0.00     0.036 H 
ATOM     33  H12 DVA d          44.268  50.668  86.977  0.00  0.00     0.087 H 
BRANCH  22  34
ATOM     34  CA  DVA d          46.544  52.384  88.017  0.00  0.00     0.178 C 
ATOM     35  H4  DVA d          47.329  52.511  88.777  0.00  0.00     0.099 H 
BRANCH  34  36
ATOM     36  N   DVA d          45.356  51.769  88.673  0.00  0.00    -0.066 N 
ATOM     37  H1  DVA d          44.525  52.274  88.405  0.00  0.00     0.275 HD
ATOM     38  H2  DVA d          45.465  51.810  89.674  0.00  0.00     0.275 HD
ATOM     39  H3  DVA d          45.272  50.808  88.383  0.00  0.00     0.275 HD
ENDBRANCH  34  36
BRANCH  34  40
ATOM     40  CB  DVA d          46.188  53.788  87.491  0.00  0.00    -0.025 C 
ATOM     41  H5  DVA d          45.971  53.727  86.414  0.00  0.00     0.042 H 
BRANCH  40  42
ATOM     42  CG1 DVA d          44.963  54.328  88.212  0.00  0.00    -0.071 C 
ATOM     43  H6  DVA d          45.248  54.659  89.221  0.00  0.00     0.028 H 
ATOM     44  H7  DVA d          44.203  53.536  88.287  0.00  0.00     0.028 H 
ATOM     45  H8  DVA d          44.551  55.179  87.649  0.00  0.00     0.028 H 
ENDBRANCH  40  42
BRANCH  40  46
ATOM     46  CG2 DVA d          47.384  54.718  87.714  0.00  0.00    -0.071 C 
ATOM     47  H9  DVA d          47.409  55.479  86.920  0.00  0.00     0.028 H 
ATOM     48  H10 DVA d          48.314  54.131  87.691  0.00  0.00     0.028 H 
ATOM     49  H11 DVA d          47.286  55.211  88.691  0.00  0.00     0.028 H 
ENDBRANCH  40  46
ENDBRANCH  34  40
ENDBRANCH  22  34
ENDBRANCH  17  20
ENDBRANCH  13  16
ENDBRANCH  10  13
ENDBRANCH   7   9
BRANCH   7  50
ATOM     50  CB  DVA d          41.174  55.552  88.812  0.00  0.00     0.044 C 
ATOM     51  H24 DVA d          42.164  55.783  88.392  0.00  0.00     0.077 H 
ATOM     52  H25 DVA d          41.230  55.559  89.910  0.00  0.00     0.077 H 
BRANCH  50  53
ATOM     53  OG  DVA d          40.244  56.532  88.382  0.00  0.00    -0.398 OA
ATOM     54  H26 DVA d          40.393  56.729  87.465  0.00  0.00     0.209 HD
ENDBRANCH  50  53
ENDBRANCH   7  50
ENDBRANCH   4   7
ENDBRANCH   1   3
BRANCH   1  55
ATOM     55  C   DVA d          41.346  53.203  92.719  0.00  0.00     0.241 C 
ATOM     56  O   DVA d          41.940  54.250  92.445  0.00  0.00    -0.271 OA
ATOM     57  N   DVA d          41.557  52.519  93.845  0.00  0.00    -0.346 N 
ATOM     58  H35 DVA d          41.022  51.692  94.021  0.00  0.00     0.163 HD
BRANCH  57  59
ATOM     59  CA  DVA d          42.563  52.952  94.839  0.00  0.00     0.094 C 
ATOM     60  H36 DVA d          42.438  52.329  95.736  0.00  0.00     0.088 H 
BRANCH  59  61
ATOM     61  C   DVA d          43.981  52.849  94.357  0.00  0.00     0.241 C 
ATOM     62  O   DVA d          44.486  51.737  94.148  0.00  0.00    -0.271 OA
ATOM     63  N   DVA d          44.628  54.001  94.216  0.00  0.00    -0.346 N 
ATOM     64  H42 DVA d          44.137  54.864  94.330  0.00  0.00     0.163 HD
BRANCH  63  65
ATOM     65  CA  DVA d          46.055  54.014  93.896  0.00  0.00     0.093 C 
ATOM     66  H43 DVA d          46.308  53.030  93.475  0.00  0.00     0.088 H 
BRANCH  65  67
ATOM     67  C   DVA d          46.494  55.060  92.880  0.00  0.00     0.241 C 
ATOM     68  O   DVA d          46.420  54.815  91.672  0.00  0.00    -0.271 OA
ATOM     69  N   DVA d          46.958  56.207  93.374  0.00  0.00    -0.345 N 
ATOM     70  H51 DVA d          47.003  56.324  94.366  0.00  0.00     0.163 HD
BRANCH  69  71
ATOM     71  CA  DVA d          47.407  57.305  92.507  0.00  0.00     0.098 C 
ATOM     72  H52 DVA d          47.924  56.858  91.644  0.00  0.00     0.088 H 
BRANCH  71  73
ATOM     73  C   DVA d          46.277  58.188  91.981  0.00  0.00     0.241 C 
ATOM     74  O   DVA d          46.505  59.168  91.259  0.00  0.00    -0.271 OA
ATOM     75  N   DVA d          45.061  57.787  92.357  0.00  0.00    -0.343 N 
ATOM     76  H55 DVA d          45.016  56.986  92.954  0.00  0.00     0.163 HD
BRANCH  75  77
ATOM     77  CA  DVA d          43.787  58.403  91.981  0.00  0.00     0.116 C 
ATOM     78  H56 DVA d          43.926  59.491  92.068  0.00  0.00     0.093 H 
BRANCH  77  79
ATOM     79  C   DVA d          43.369  58.123  90.545  0.00  0.00     0.198 C 
ATOM     80  O   DVA d          43.820  57.105  89.981  0.00  0.00    -0.646 OA
ATOM     81  OXT DVA d          42.582  58.937  90.009  0.00  0.00    -0.646 OA
ENDBRANCH  77  79
BRANCH  77  82
ATOM     82  CB  DVA d          42.664  58.006  92.946  0.00  0.00     0.045 C 
ATOM     83  H57 DVA d          42.143  58.914  93.286  0.00  0.00     0.077 H 
ATOM     84  H58 DVA d          43.100  57.487  93.813  0.00  0.00     0.077 H 
BRANCH  82  85
ATOM     85  OG  DVA d          41.727  57.144  92.312  0.00  0.00    -0.398 OA
ATOM     86  H59 DVA d          41.090  56.845  92.950  0.00  0.00     0.209 HD
ENDBRANCH  82  85
ENDBRANCH  77  82
ENDBRANCH  75  77
ENDBRANCH  71  73
BRANCH  71  87
ATOM     87  CB  DVA d          48.385  58.213  93.255  0.00  0.00     0.043 C 
ATOM     88  H53 DVA d          47.955  59.224  93.310  0.00  0.00     0.052 H 
ATOM     89  H54 DVA d          49.332  58.247  92.697  0.00  0.00     0.052 H 
BRANCH  87  90
ATOM     90  CG  DVA d          48.668  57.732  94.654  0.00  0.00     0.175 C 
ATOM     91  OD1 DVA d          47.892  58.078  95.572  0.00  0.00    -0.648 OA
ATOM     92  OD2 DVA d          49.652  56.996  94.837  0.00  0.00    -0.648 OA
ENDBRANCH  87  90
ENDBRANCH  71  87
ENDBRANCH  69  71
ENDBRANCH  65  67
BRANCH  65  93
ATOM     93  CB  DVA d          46.832  54.198  95.204  0.00  0.00    -0.014 C 
ATOM     94  H44 DVA d          46.189  54.726  95.924  0.00  0.00     0.043 H 
ATOM     95  H45 DVA d          47.727  54.804  94.999  0.00  0.00     0.043 H 
BRANCH  93  96
ATOM     96  CG  DVA d          47.269  52.878  95.820  0.00  0.00    -0.056 A 
ATOM     97  CD1 DVA d          47.923  51.910  95.051  0.00  0.00    -0.074 A 
ATOM     98  CE1 DVA d          48.305  50.670  95.591  0.00  0.00    -0.051 A 
ATOM     99  H46 DVA d          48.140  52.121  94.010  0.00  0.00     0.084 H 
ATOM    100  CZ  DVA d          48.025  50.406  96.946  0.00  0.00     0.065 A 
ATOM    101  H48 DVA d          48.807  49.931  94.976  0.00  0.00     0.087 H 
ATOM    102  CE2 DVA d          47.377  51.354  97.724  0.00  0.00    -0.051 A 
ATOM    103  CD2 DVA d          46.998  52.587  97.164  0.00  0.00    -0.074 A 
ATOM    104  H49 DVA d          47.162  51.144  98.766  0.00  0.00     0.087 H 
ATOM    105  H47 DVA d          46.491  53.322  97.780  0.00  0.00     0.084 H 
BRANCH 100 106
ATOM    106  OH  DVA d          48.403  49.214  97.522  0.00  0.00    -0.361 OA
ATOM    107  H50 DVA d          48.810  48.662  96.866  0.00  0.00     0.217 HD
ENDBRANCH 100 106
ENDBRANCH  93  96
ENDBRANCH  65  93
ENDBRANCH  63  65
ENDBRANCH  59  61
BRANCH  59 108
ATOM    108  CB  DVA d          42.400  54.427  95.212  0.00  0.00     0.004 C 
ATOM    109  H37 DVA d          41.367  54.728  94.983  0.00  0.00     0.046 H 
ATOM    110  H38 DVA d          43.097  55.017  94.599  0.00  0.00     0.046 H 
BRANCH 108 111
ATOM    111  CG  DVA d          42.668  54.736  96.654  0.00  0.00     0.053 A 
ATOM    112  ND1 DVA d          43.775  55.447  97.075  0.00  0.00    -0.247 NA
ATOM    113  CE1 DVA d          43.730  55.586  98.392  0.00  0.00     0.064 A 
ATOM    114  NE2 DVA d          42.633  54.985  98.839  0.00  0.00    -0.359 N 
ATOM    115  H40 DVA d          44.466  56.106  99.004  0.00  0.00     0.143 H 
ATOM    116  CD2 DVA d          41.956  54.445  97.768  0.00  0.00     0.002 A 
ATOM    117  H41 DVA d          42.338  54.931  99.824  0.00  0.00     0.166 HD
ATOM    118  H39 DVA d          41.022  53.887  97.810  0.00  0.00     0.114 H 
ENDBRANCH 108 111
ENDBRANCH  59 108
ENDBRANCH  57  59
ENDBRANCH   1  55
BRANCH   1 119
ATOM    119  CB  DVA d          38.956  52.473  92.457  0.00  0.00    -0.030 C 
ATOM    120  H29 DVA d          38.164  52.847  91.790  0.00  0.00     0.037 H 
ATOM    121  H30 DVA d          38.963  53.064  93.386  0.00  0.00     0.037 H 
BRANCH 119 122
ATOM    122  CG  DVA d          38.668  50.991  92.802  0.00  0.00     0.011 C 
ATOM    123  H31 DVA d          39.626  50.493  93.011  0.00  0.00     0.047 H 
ATOM    124  H32 DVA d          38.192  50.520  91.929  0.00  0.00     0.047 H 
BRANCH 122 125
ATOM    125  CD  DVA d          37.747  50.794  94.019  0.00  0.00     0.215 C 
ATOM    126  OE1 DVA d          37.685  49.696  94.603  0.00  0.00    -0.274 OA
ATOM    127  NE2 DVA d          37.048  51.842  94.405  0.00  0.00    -0.370 N 
ATOM    128  H33 DVA d          36.433  51.771  95.190  0.00  0.00     0.159 HD
ATOM    129  H34 DVA d          37.132  52.708  93.913  0.00  0.00     0.159 HD
ENDBRANCH 122 125
ENDBRANCH 119 122
ENDBRANCH   1 119
TORSDOF 34
ENDMDL
