MODEL 1
REMARK VINA RESULT:      -6.6      0.000      0.000
REMARK  10 active torsions:
REMARK  status: ('A' for Active; 'I' for Inactive)
REMARK    1  A    between atoms: C3_3  and  C10_10 
REMARK    2  A    between atoms: C6_6  and  N7_7 
REMARK    3  A    between atoms: C10_10  and  N11_11 
REMARK    4  A    between atoms: N11_11  and  C17_17 
REMARK    5  A    between atoms: N11_11  and  C12_12 
REMARK    6  A    between atoms: C12_12  and  P13_13 
REMARK    7  A    between atoms: C17_17  and  C18_18 
REMARK    8  A    between atoms: C18_18  and  C19_19 
REMARK    9  A    between atoms: C19_19  and  C20_20 
REMARK   10  A    between atoms: C20_20  and  C21_21 
ROOT
ATOM      1  N11 AAH d         -25.580  40.322  17.162  0.00  0.00    -0.055 N 
ATOM      2  H7  AAH d         -25.624  39.833  18.043  0.00  0.00     0.281 HD
ENDROOT
BRANCH   1   3
ATOM      3  C10 AAH d         -24.128  40.384  16.887  0.00  0.00     0.108 C 
ATOM      4  H5  AAH d         -23.982  40.936  15.946  0.00  0.00     0.083 H 
ATOM      5  H6  AAH d         -23.648  40.932  17.711  0.00  0.00     0.083 H 
BRANCH   3   6
ATOM      6  C3  AAH d         -23.436  39.028  16.753  0.00  0.00    -0.032 C 
ATOM      7  C2  AAH d         -24.069  37.875  17.288  0.00  0.00    -0.073 C 
ATOM      8  C1  AAH d         -23.522  36.613  17.029  0.00  0.00    -0.050 C 
ATOM      9  H2  AAH d         -24.966  37.970  17.890  0.00  0.00     0.084 H 
ATOM     10  C6  AAH d         -22.252  36.504  16.448  0.00  0.00     0.102 C 
ATOM     11  H1  AAH d         -24.082  35.719  17.278  0.00  0.00     0.087 H 
ATOM     12  C5  AAH d         -21.602  37.638  15.979  0.00  0.00    -0.050 C 
ATOM     13  C4  AAH d         -22.219  38.898  16.113  0.00  0.00    -0.073 C 
ATOM     14  H4  AAH d         -20.627  37.554  15.512  0.00  0.00     0.087 H 
ATOM     15  H3  AAH d         -21.730  39.778  15.710  0.00  0.00     0.084 H 
BRANCH  10  16
ATOM     16  N7  AAH d         -21.610  35.157  16.323  0.00  0.00    -0.116 N 
ATOM     17  O9  AAH d         -21.665  34.374  17.217  0.00  0.00    -0.532 OA
ATOM     18  O8  AAH d         -20.856  34.941  15.445  0.00  0.00    -0.532 OA
ENDBRANCH  10  16
ENDBRANCH   3   6
ENDBRANCH   1   3
BRANCH   1  19
ATOM     19  C17 AAH d         -26.290  41.661  17.468  0.00  0.00     0.085 C 
ATOM     20  H10 AAH d         -26.561  41.681  18.535  0.00  0.00     0.076 H 
ATOM     21  H11 AAH d         -27.203  41.725  16.857  0.00  0.00     0.076 H 
BRANCH  19  22
ATOM     22  C18 AAH d         -25.405  42.881  17.161  0.00  0.00    -0.042 C 
ATOM     23  H12 AAH d         -25.921  43.529  16.438  0.00  0.00     0.035 H 
ATOM     24  H13 AAH d         -24.453  42.537  16.731  0.00  0.00     0.035 H 
BRANCH  22  25
ATOM     25  C19 AAH d         -25.121  43.681  18.445  0.00  0.00    -0.055 C 
ATOM     26  H14 AAH d         -25.657  44.641  18.405  0.00  0.00     0.033 H 
ATOM     27  H15 AAH d         -24.040  43.868  18.529  0.00  0.00     0.033 H 
BRANCH  25  28
ATOM     28  C20 AAH d         -25.599  42.880  19.664  0.00  0.00     0.016 C 
ATOM     29  H16 AAH d         -26.407  42.199  19.360  0.00  0.00     0.049 H 
ATOM     30  H17 AAH d         -25.972  43.572  20.432  0.00  0.00     0.049 H 
BRANCH  28  31
ATOM     31  C21 AAH d         -24.445  42.072  20.231  0.00  0.00     0.172 C 
ATOM     32  O23 AAH d         -23.389  42.642  20.484  0.00  0.00    -0.648 OA
ATOM     33  O22 AAH d         -24.572  40.716  20.454  0.00  0.00    -0.648 OA
ENDBRANCH  28  31
ENDBRANCH  25  28
ENDBRANCH  22  25
ENDBRANCH  19  22
ENDBRANCH   1  19
BRANCH   1  34
ATOM     34  C12 AAH d         -26.356  39.428  16.219  0.00  0.00     0.185 C 
ATOM     35  H8  AAH d         -27.387  39.380  16.598  0.00  0.00     0.098 H 
ATOM     36  H9  AAH d         -25.898  38.429  16.274  0.00  0.00     0.098 H 
BRANCH  34  37
ATOM     37  P13 AAH d         -26.463  39.871  14.423  0.00  0.00     0.286 P 
ATOM     38  O16 AAH d         -26.637  38.610  13.731  0.00  0.00    -0.638 OA
ATOM     39  O15 AAH d         -25.139  40.605  13.856  0.00  0.00    -0.638 OA
ATOM     40  O14 AAH d         -27.668  40.819  14.118  0.00  0.00    -0.638 OA
ENDBRANCH  34  37
ENDBRANCH   1  34
TORSDOF 10
ENDMDL
MODEL 2
REMARK VINA RESULT:      -3.9      2.087      6.376
REMARK  10 active torsions:
REMARK  status: ('A' for Active; 'I' for Inactive)
REMARK    1  A    between atoms: C3_3  and  C10_10 
REMARK    2  A    between atoms: C6_6  and  N7_7 
REMARK    3  A    between atoms: C10_10  and  N11_11 
REMARK    4  A    between atoms: N11_11  and  C17_17 
REMARK    5  A    between atoms: N11_11  and  C12_12 
REMARK    6  A    between atoms: C12_12  and  P13_13 
REMARK    7  A    between atoms: C17_17  and  C18_18 
REMARK    8  A    between atoms: C18_18  and  C19_19 
REMARK    9  A    between atoms: C19_19  and  C20_20 
REMARK   10  A    between atoms: C20_20  and  C21_21 
ROOT
ATOM      1  N11 AAH d         -23.924  38.996  16.184  0.00  0.00    -0.055 N 
ATOM      2  H7  AAH d         -23.104  39.561  16.340  0.00  0.00     0.281 HD
ENDROOT
BRANCH   1   3
ATOM      3  C10 AAH d         -24.558  38.952  17.520  0.00  0.00     0.108 C 
ATOM      4  H5  AAH d         -25.607  38.646  17.391  0.00  0.00     0.083 H 
ATOM      5  H6  AAH d         -24.029  38.200  18.124  0.00  0.00     0.083 H 
BRANCH   3   6
ATOM      6  C3  AAH d         -24.541  40.273  18.288  0.00  0.00    -0.032 C 
ATOM      7  C2  AAH d         -25.046  40.306  19.615  0.00  0.00    -0.073 C 
ATOM      8  C1  AAH d         -24.887  41.468  20.379  0.00  0.00    -0.050 C 
ATOM      9  H2  AAH d         -25.550  39.441  20.032  0.00  0.00     0.084 H 
ATOM     10  C6  AAH d         -24.443  42.651  19.772  0.00  0.00     0.102 C 
ATOM     11  H1  AAH d         -25.106  41.454  21.439  0.00  0.00     0.087 H 
ATOM     12  C5  AAH d         -24.005  42.635  18.454  0.00  0.00    -0.050 C 
ATOM     13  C4  AAH d         -24.034  41.429  17.726  0.00  0.00    -0.073 C 
ATOM     14  H4  AAH d         -23.644  43.545  17.988  0.00  0.00     0.087 H 
ATOM     15  H3  AAH d         -23.654  41.408  16.711  0.00  0.00     0.084 H 
BRANCH  10  16
ATOM     16  N7  AAH d         -24.430  43.925  20.560  0.00  0.00    -0.116 N 
ATOM     17  O9  AAH d         -25.444  44.493  20.811  0.00  0.00    -0.532 OA
ATOM     18  O8  AAH d         -23.416  44.496  20.741  0.00  0.00    -0.532 OA
ENDBRANCH  10  16
ENDBRANCH   3   6
ENDBRANCH   1   3
BRANCH   1  19
ATOM     19  C17 AAH d         -23.340  37.669  15.645  0.00  0.00     0.085 C 
ATOM     20  H10 AAH d         -22.255  37.791  15.509  0.00  0.00     0.076 H 
ATOM     21  H11 AAH d         -23.808  37.446  14.674  0.00  0.00     0.076 H 
BRANCH  19  22
ATOM     22  C18 AAH d         -23.589  36.486  16.596  0.00  0.00    -0.042 C 
ATOM     23  H12 AAH d         -24.274  35.773  16.114  0.00  0.00     0.035 H 
ATOM     24  H13 AAH d         -24.042  36.860  17.526  0.00  0.00     0.035 H 
BRANCH  22  25
ATOM     25  C19 AAH d         -22.268  35.772  16.929  0.00  0.00    -0.055 C 
ATOM     26  H14 AAH d         -22.470  34.715  17.158  0.00  0.00     0.033 H 
ATOM     27  H15 AAH d         -21.799  36.253  17.801  0.00  0.00     0.033 H 
BRANCH  25  28
ATOM     28  C20 AAH d         -21.320  35.861  15.725  0.00  0.00     0.016 C 
ATOM     29  H16 AAH d         -21.899  35.766  14.795  0.00  0.00     0.049 H 
ATOM     30  H17 AAH d         -20.581  35.049  15.781  0.00  0.00     0.049 H 
BRANCH  28  31
ATOM     31  C21 AAH d         -20.601  37.199  15.737  0.00  0.00     0.172 C 
ATOM     32  O23 AAH d         -20.292  37.716  14.669  0.00  0.00    -0.648 OA
ATOM     33  O22 AAH d         -20.290  37.825  16.927  0.00  0.00    -0.648 OA
ENDBRANCH  28  31
ENDBRANCH  25  28
ENDBRANCH  22  25
ENDBRANCH  19  22
ENDBRANCH   1  19
BRANCH   1  34
ATOM     34  C12 AAH d         -24.705  39.778  15.150  0.00  0.00     0.185 C 
ATOM     35  H8  AAH d         -24.254  39.553  14.172  0.00  0.00     0.098 H 
ATOM     36  H9  AAH d         -24.566  40.844  15.381  0.00  0.00     0.098 H 
BRANCH  34  37
ATOM     37  P13 AAH d         -26.529  39.498  14.979  0.00  0.00     0.286 P 
ATOM     38  O16 AAH d         -26.659  38.415  14.027  0.00  0.00    -0.638 OA
ATOM     39  O15 AAH d         -27.333  40.786  14.427  0.00  0.00    -0.638 OA
ATOM     40  O14 AAH d         -27.196  39.101  16.337  0.00  0.00    -0.638 OA
ENDBRANCH  34  37
ENDBRANCH   1  34
TORSDOF 10
ENDMDL
