MODEL 1
REMARK VINA RESULT:      -5.1      0.000      0.000
REMARK  2 active torsions:
REMARK  status: ('A' for Active; 'I' for Inactive)
REMARK    1  A    between atoms: C7_4  and  N6_8 
REMARK    2  A    between atoms: N6_8  and  C5_9 
ROOT
ATOM      1  O13 GZ2 d          -8.447  50.954  10.205  0.00  0.00    -0.293 OA
ATOM      2  C11 GZ2 d          -7.801  51.455  11.114  0.00  0.00     0.151 C 
ATOM      3  C12 GZ2 d          -6.364  51.130  11.246  0.00  0.00    -0.017 C 
ATOM      4  C7  GZ2 d          -5.609  51.704  12.200  0.00  0.00     0.030 C 
ATOM      5  C8  GZ2 d          -6.179  52.728  13.156  0.00  0.00    -0.026 C 
ATOM      6  C9  GZ2 d          -7.471  53.386  12.676  0.00  0.00    -0.054 C 
ATOM      7  C10 GZ2 d          -8.469  52.398  12.093  0.00  0.00    -0.006 C 
ATOM      8  H1  GZ2 d          -5.910  50.415  10.560  0.00  0.00     0.092 H 
ATOM      9  H2  GZ2 d          -5.427  53.517  13.306  0.00  0.00     0.042 H 
ATOM     10  H3  GZ2 d          -6.382  52.229  14.115  0.00  0.00     0.042 H 
ATOM     11  H4  GZ2 d          -7.219  54.126  11.901  0.00  0.00     0.034 H 
ATOM     12  H5  GZ2 d          -7.941  53.895  13.530  0.00  0.00     0.034 H 
ATOM     13  H6  GZ2 d          -8.913  51.812  12.911  0.00  0.00     0.044 H 
ATOM     14  H7  GZ2 d          -9.261  52.955  11.570  0.00  0.00     0.044 H 
ENDROOT
BRANCH   4  15
ATOM     15  N6  GZ2 d          -4.315  51.428  12.418  0.00  0.00    -0.192 N 
ATOM     16  H8  GZ2 d          -4.107  50.490  12.790  0.00  0.00     0.184 HD
BRANCH  15  17
ATOM     17  C5  GZ2 d          -3.242  52.245  12.204  0.00  0.00     0.732 A 
ATOM     18  N4  GZ2 d          -2.845  52.678  11.000  0.00  0.00    -0.115 N 
ATOM     19  N3  GZ2 d          -1.717  53.470  11.274  0.00  0.00     0.008 NA
ATOM     20  H9  GZ2 d          -3.270  52.477  10.084  0.00  0.00     0.203 HD
ATOM     21  N2  GZ2 d          -1.514  53.478  12.667  0.00  0.00     0.033 NA
ATOM     22  N1  GZ2 d          -2.505  52.687  13.246  0.00  0.00     0.030 NA
ENDBRANCH  15  17
ENDBRANCH   4  15
TORSDOF 2
ENDMDL
MODEL 2
REMARK VINA RESULT:      -5.0      3.100      4.907
REMARK  2 active torsions:
REMARK  status: ('A' for Active; 'I' for Inactive)
REMARK    1  A    between atoms: C7_4  and  N6_8 
REMARK    2  A    between atoms: N6_8  and  C5_9 
ROOT
ATOM      1  O13 GZ2 d          -2.333  51.228   9.838  0.00  0.00    -0.293 OA
ATOM      2  C11 GZ2 d          -2.593  51.976  10.769  0.00  0.00     0.151 C 
ATOM      3  C12 GZ2 d          -3.809  51.732  11.576  0.00  0.00    -0.017 C 
ATOM      4  C7  GZ2 d          -4.099  52.501  12.642  0.00  0.00     0.030 C 
ATOM      5  C8  GZ2 d          -3.186  53.622  13.085  0.00  0.00    -0.026 C 
ATOM      6  C9  GZ2 d          -1.755  53.512  12.563  0.00  0.00    -0.054 C 
ATOM      7  C10 GZ2 d          -1.678  53.139  11.091  0.00  0.00    -0.006 C 
ATOM      8  H1  GZ2 d          -4.479  50.918  11.304  0.00  0.00     0.092 H 
ATOM      9  H2  GZ2 d          -3.151  53.625  14.185  0.00  0.00     0.042 H 
ATOM     10  H3  GZ2 d          -3.610  54.573  12.729  0.00  0.00     0.042 H 
ATOM     11  H4  GZ2 d          -1.229  52.741  13.146  0.00  0.00     0.034 H 
ATOM     12  H5  GZ2 d          -1.257  54.482  12.704  0.00  0.00     0.034 H 
ATOM     13  H6  GZ2 d          -1.975  54.008  10.485  0.00  0.00     0.044 H 
ATOM     14  H7  GZ2 d          -0.643  52.859  10.846  0.00  0.00     0.044 H 
ENDROOT
BRANCH   4  15
ATOM     15  N6  GZ2 d          -5.202  52.378  13.393  0.00  0.00    -0.192 N 
ATOM     16  H8  GZ2 d          -5.111  51.808  14.246  0.00  0.00     0.184 HD
BRANCH  15  17
ATOM     17  C5  GZ2 d          -6.433  52.922  13.159  0.00  0.00     0.732 A 
ATOM     18  N4  GZ2 d          -7.325  52.435  12.286  0.00  0.00    -0.115 N 
ATOM     19  N3  GZ2 d          -8.418  53.313  12.383  0.00  0.00     0.008 NA
ATOM     20  H9  GZ2 d          -7.231  51.607  11.681  0.00  0.00     0.203 HD
ATOM     21  N2  GZ2 d          -8.112  54.287  13.352  0.00  0.00     0.033 NA
ATOM     22  N1  GZ2 d          -6.834  54.017  13.838  0.00  0.00     0.030 NA
ENDBRANCH  15  17
ENDBRANCH   4  15
TORSDOF 2
ENDMDL
MODEL 3
REMARK VINA RESULT:      -4.8      3.864      5.283
REMARK  2 active torsions:
REMARK  status: ('A' for Active; 'I' for Inactive)
REMARK    1  A    between atoms: C7_4  and  N6_8 
REMARK    2  A    between atoms: N6_8  and  C5_9 
ROOT
ATOM      1  O13 GZ2 d          -1.514  53.426  12.978  0.00  0.00    -0.293 OA
ATOM      2  C11 GZ2 d          -2.650  52.989  12.868  0.00  0.00     0.151 C 
ATOM      3  C12 GZ2 d          -3.786  53.934  12.803  0.00  0.00    -0.017 C 
ATOM      4  C7  GZ2 d          -5.045  53.493  12.626  0.00  0.00     0.030 C 
ATOM      5  C8  GZ2 d          -5.355  52.023  12.452  0.00  0.00    -0.026 C 
ATOM      6  C9  GZ2 d          -4.159  51.174  12.027  0.00  0.00    -0.054 C 
ATOM      7  C10 GZ2 d          -2.888  51.495  12.797  0.00  0.00    -0.006 C 
ATOM      8  H1  GZ2 d          -3.601  55.003  12.899  0.00  0.00     0.092 H 
ATOM      9  H2  GZ2 d          -6.137  51.924  11.685  0.00  0.00     0.042 H 
ATOM     10  H3  GZ2 d          -5.730  51.634  13.410  0.00  0.00     0.042 H 
ATOM     11  H4  GZ2 d          -3.971  51.347  10.956  0.00  0.00     0.034 H 
ATOM     12  H5  GZ2 d          -4.408  50.115  12.189  0.00  0.00     0.034 H 
ATOM     13  H6  GZ2 d          -2.978  51.097  13.819  0.00  0.00     0.044 H 
ATOM     14  H7  GZ2 d          -2.034  51.019  12.293  0.00  0.00     0.044 H 
ENDROOT
BRANCH   4  15
ATOM     15  N6  GZ2 d          -6.132  54.277  12.607  0.00  0.00    -0.192 N 
ATOM     16  H8  GZ2 d          -6.211  54.964  13.371  0.00  0.00     0.184 HD
BRANCH  15  17
ATOM     17  C5  GZ2 d          -7.146  54.271  11.692  0.00  0.00     0.732 A 
ATOM     18  N4  GZ2 d          -6.972  54.312  10.364  0.00  0.00    -0.115 N 
ATOM     19  N3  GZ2 d          -8.277  54.294   9.844  0.00  0.00     0.008 NA
ATOM     20  H9  GZ2 d          -6.084  54.349   9.844  0.00  0.00     0.203 HD
ATOM     21  N2  GZ2 d          -9.178  54.221  10.923  0.00  0.00     0.033 NA
ATOM     22  N1  GZ2 d          -8.431  54.206  12.101  0.00  0.00     0.030 NA
ENDBRANCH  15  17
ENDBRANCH   4  15
TORSDOF 2
ENDMDL
MODEL 4
REMARK VINA RESULT:      -4.1      3.434      5.130
REMARK  2 active torsions:
REMARK  status: ('A' for Active; 'I' for Inactive)
REMARK    1  A    between atoms: C7_4  and  N6_8 
REMARK    2  A    between atoms: N6_8  and  C5_9 
ROOT
ATOM      1  O13 GZ2 d          -1.514  50.998  12.596  0.00  0.00    -0.293 OA
ATOM      2  C11 GZ2 d          -2.387  51.853  12.589  0.00  0.00     0.151 C 
ATOM      3  C12 GZ2 d          -3.803  51.443  12.704  0.00  0.00    -0.017 C 
ATOM      4  C7  GZ2 d          -4.788  52.359  12.754  0.00  0.00     0.030 C 
ATOM      5  C8  GZ2 d          -4.495  53.843  12.732  0.00  0.00    -0.026 C 
ATOM      6  C9  GZ2 d          -3.064  54.207  13.118  0.00  0.00    -0.054 C 
ATOM      7  C10 GZ2 d          -2.018  53.318  12.465  0.00  0.00    -0.006 C 
ATOM      8  H1  GZ2 d          -4.053  50.384  12.748  0.00  0.00     0.092 H 
ATOM      9  H2  GZ2 d          -5.179  54.340  13.436  0.00  0.00     0.042 H 
ATOM     10  H3  GZ2 d          -4.683  54.215  11.714  0.00  0.00     0.042 H 
ATOM     11  H4  GZ2 d          -2.964  54.119  14.210  0.00  0.00     0.034 H 
ATOM     12  H5  GZ2 d          -2.876  55.248  12.815  0.00  0.00     0.034 H 
ATOM     13  H6  GZ2 d          -1.940  53.578  11.399  0.00  0.00     0.044 H 
ATOM     14  H7  GZ2 d          -1.048  53.486  12.954  0.00  0.00     0.044 H 
ENDROOT
BRANCH   4  15
ATOM     15  N6  GZ2 d          -6.096  52.070  12.807  0.00  0.00    -0.192 N 
ATOM     16  H8  GZ2 d          -6.379  51.370  13.507  0.00  0.00     0.184 HD
BRANCH  15  17
ATOM     17  C5  GZ2 d          -7.096  52.598  12.041  0.00  0.00     0.732 A 
ATOM     18  N4  GZ2 d          -8.130  53.301  12.522  0.00  0.00    -0.115 N 
ATOM     19  N3  GZ2 d          -8.888  53.623  11.383  0.00  0.00     0.008 NA
ATOM     20  H9  GZ2 d          -8.326  53.549  13.502  0.00  0.00     0.203 HD
ATOM     21  N2  GZ2 d          -8.231  53.094  10.256  0.00  0.00     0.033 NA
ATOM     22  N1  GZ2 d          -7.082  52.441  10.701  0.00  0.00     0.030 NA
ENDBRANCH  15  17
ENDBRANCH   4  15
TORSDOF 2
ENDMDL
MODEL 5
REMARK VINA RESULT:      -2.5      3.873      5.259
REMARK  2 active torsions:
REMARK  status: ('A' for Active; 'I' for Inactive)
REMARK    1  A    between atoms: C7_4  and  N6_8 
REMARK    2  A    between atoms: N6_8  and  C5_9 
ROOT
ATOM      1  O13 GZ2 d          -2.232  53.768  11.165  0.00  0.00    -0.293 OA
ATOM      2  C11 GZ2 d          -3.219  53.303  11.716  0.00  0.00     0.151 C 
ATOM      3  C12 GZ2 d          -4.408  52.963  10.904  0.00  0.00    -0.017 C 
ATOM      4  C7  GZ2 d          -5.493  52.399  11.466  0.00  0.00     0.030 C 
ATOM      5  C8  GZ2 d          -5.537  52.056  12.939  0.00  0.00    -0.026 C 
ATOM      6  C9  GZ2 d          -4.165  51.951  13.602  0.00  0.00    -0.054 C 
ATOM      7  C10 GZ2 d          -3.221  53.079  13.214  0.00  0.00    -0.006 C 
ATOM      8  H1  GZ2 d          -4.406  53.172   9.835  0.00  0.00     0.092 H 
ATOM      9  H2  GZ2 d          -6.048  51.088  13.053  0.00  0.00     0.042 H 
ATOM     10  H3  GZ2 d          -6.112  52.838  13.458  0.00  0.00     0.042 H 
ATOM     11  H4  GZ2 d          -3.707  50.995  13.307  0.00  0.00     0.034 H 
ATOM     12  H5  GZ2 d          -4.303  51.971  14.693  0.00  0.00     0.034 H 
ATOM     13  H6  GZ2 d          -3.542  54.004  13.715  0.00  0.00     0.044 H 
ATOM     14  H7  GZ2 d          -2.202  52.821  13.539  0.00  0.00     0.044 H 
ENDROOT
BRANCH   4  15
ATOM     15  N6  GZ2 d          -6.626  52.108  10.813  0.00  0.00    -0.192 N 
ATOM     16  H8  GZ2 d          -6.751  51.123  10.536  0.00  0.00     0.184 HD
BRANCH  15  17
ATOM     17  C5  GZ2 d          -7.635  52.963  10.473  0.00  0.00     0.732 A 
ATOM     18  N4  GZ2 d          -8.580  53.398  11.317  0.00  0.00    -0.115 N 
ATOM     19  N3  GZ2 d          -9.387  54.236  10.529  0.00  0.00     0.008 NA
ATOM     20  H9  GZ2 d          -8.690  53.170  12.315  0.00  0.00     0.203 HD
ATOM     21  N2  GZ2 d          -8.848  54.268   9.229  0.00  0.00     0.033 NA
ATOM     22  N1  GZ2 d          -7.723  53.445   9.214  0.00  0.00     0.030 NA
ENDBRANCH  15  17
ENDBRANCH   4  15
TORSDOF 2
ENDMDL
