MODEL 1
REMARK VINA RESULT:      -5.7      0.000      0.000
REMARK  19 active torsions:
REMARK  status: ('A' for Active; 'I' for Inactive)
REMARK    1  A    between atoms: C2_4  and  C1_2 
REMARK    2  A    between atoms: O2_17  and  C2_4 
REMARK    3  A    between atoms: C6_6  and  C7_7 
REMARK    4  A    between atoms: C7_7  and  C8_8 
REMARK    5  A    between atoms: C7_7  and  O7_10 
REMARK    6  A    between atoms: C8_8  and  O8_9 
REMARK    7  A    between atoms: C5_11  and  O5_12 
REMARK    8  A    between atoms: C4_13  and  O4_14 
REMARK    9  A    between atoms: C3_15  and  O3_16 
REMARK   10  A    between atoms: C4_23  and  O2_17 
REMARK   11  A    between atoms: C2_21  and  C1_18 
REMARK   12  A    between atoms: C2_21  and  O2_32 
REMARK   13  A    between atoms: C5_24  and  O5_25 
REMARK   14  A    between atoms: C6_26  and  C7_28 
REMARK   15  A    between atoms: C7_28  and  O7_29 
REMARK   16  A    between atoms: C7_28  and  C8_30 
REMARK   17  A    between atoms: C8_30  and  O8_31 
REMARK   18  A    between atoms: O2_32  and  C9_33 
REMARK   19  A    between atoms: C9_33  and  C10_34 
ROOT
ATOM      1  C2  KO1 d          -8.747   1.310  70.861  0.00  0.00     0.259 C 
ATOM      2  C3  KO1 d          -8.538   1.864  69.417  0.00  0.00     0.024 C 
ATOM      3  C4  KO1 d          -7.988   0.850  68.382  0.00  0.00     0.075 C 
ATOM      4  C5  KO1 d          -6.757   0.026  68.840  0.00  0.00     0.088 C 
ATOM      5  C6  KO1 d          -7.107  -0.616  70.218  0.00  0.00     0.096 C 
ATOM      6  O6  KO1 d          -7.663   0.384  71.167  0.00  0.00    -0.336 OA
ATOM      7  H13 KO1 d          -7.830   2.704  69.477  0.00  0.00     0.045 H 
ATOM      8  H14 KO1 d          -9.510   2.228  69.051  0.00  0.00     0.045 H 
ATOM      9  H15 KO1 d          -8.809   0.154  68.155  0.00  0.00     0.087 H 
ATOM     10  H16 KO1 d          -6.589  -0.785  68.117  0.00  0.00     0.091 H 
ATOM     11  H18 KO1 d          -7.912  -1.342  70.027  0.00  0.00     0.091 H 
ENDROOT
BRANCH   3  12
ATOM     12  O2  KO1 d          -7.541   1.478  67.138  0.00  0.00    -0.336 OA
BRANCH  12  13
ATOM     13  C2  KO1 d          -8.507   1.752  66.064  0.00  0.00     0.286 C 
ATOM     14  O6  KO1 d          -9.133   3.153  66.332  0.00  0.00    -0.334 OA
ATOM     15  C6  KO1 d          -8.032   4.169  66.524  0.00  0.00     0.096 C 
ATOM     16  C5  KO1 d          -7.264   4.321  65.208  0.00  0.00     0.090 C 
ATOM     17  H1  KO1 d          -7.325   3.839  67.299  0.00  0.00     0.091 H 
ATOM     18  C4  KO1 d          -6.621   2.956  64.845  0.00  0.00     0.093 C 
ATOM     19  H7  KO1 d          -6.481   5.086  65.320  0.00  0.00     0.091 H 
ATOM     20  C3  KO1 d          -7.638   1.776  64.765  0.00  0.00     0.127 C 
ATOM     21  H9  KO1 d          -5.883   2.710  65.624  0.00  0.00     0.091 H 
ATOM     22  H11 KO1 d          -7.084   0.835  64.638  0.00  0.00     0.096 H 
BRANCH  13  23
ATOM     23  C1  KO1 d          -9.674   0.757  65.876  0.00  0.00     0.241 C 
ATOM     24  OA1 KO1 d         -10.851   1.112  66.156  0.00  0.00    -0.644 OA
ATOM     25  O1B KO1 d          -9.428  -0.368  65.438  0.00  0.00    -0.644 OA
ENDBRANCH  13  23
BRANCH  15  26
ATOM     26  C7  KO1 d          -8.793   5.433  67.022  0.00  0.00     0.083 C 
ATOM     27  H2  KO1 d          -8.564   6.274  66.352  0.00  0.00     0.090 H 
BRANCH  26  28
ATOM     28  C8  KO1 d         -10.327   5.264  67.009  0.00  0.00     0.043 C 
ATOM     29  H3  KO1 d         -10.821   5.978  67.684  0.00  0.00     0.078 H 
ATOM     30  H4  KO1 d         -10.624   4.240  67.278  0.00  0.00     0.078 H 
BRANCH  28  31
ATOM     31  O8  KO1 d         -10.611   5.556  65.623  0.00  0.00    -0.398 OA
ATOM     32  H5  KO1 d         -11.508   5.858  65.542  0.00  0.00     0.209 HD
ENDBRANCH  28  31
ENDBRANCH  26  28
BRANCH  26  33
ATOM     33  O7  KO1 d          -8.216   5.702  68.291  0.00  0.00    -0.391 OA
ATOM     34  H6  KO1 d          -7.760   4.928  68.602  0.00  0.00     0.210 HD
ENDBRANCH  26  33
ENDBRANCH  15  26
BRANCH  16  35
ATOM     35  O5  KO1 d          -8.175   4.708  64.164  0.00  0.00    -0.390 OA
ATOM     36  H8  KO1 d          -7.771   4.550  63.318  0.00  0.00     0.210 HD
ENDBRANCH  16  35
BRANCH  18  37
ATOM     37  O4  KO1 d          -5.953   3.089  63.612  0.00  0.00    -0.390 OA
ATOM     38  H10 KO1 d          -6.593   3.169  62.914  0.00  0.00     0.210 HD
ENDBRANCH  18  37
BRANCH  20  39
ATOM     39  O3  KO1 d          -8.609   1.913  63.747  0.00  0.00    -0.387 OA
ATOM     40  H12 KO1 d          -9.449   1.608  64.070  0.00  0.00     0.210 HD
ENDBRANCH  20  39
ENDBRANCH  12  13
ENDBRANCH   3  12
BRANCH   4  41
ATOM     41  O5  KO1 d          -5.548   0.844  68.867  0.00  0.00    -0.390 OA
ATOM     42  H17 KO1 d          -5.702   1.620  69.392  0.00  0.00     0.210 HD
ENDBRANCH   4  41
BRANCH   1  43
ATOM     43  C1  KO1 d          -8.689   2.558  71.799  0.00  0.00     0.239 C 
ATOM     44  O1A KO1 d          -7.594   3.184  71.791  0.00  0.00    -0.644 OA
ATOM     45  O1B KO1 d          -9.699   2.867  72.516  0.00  0.00    -0.644 OA
ENDBRANCH   1  43
BRANCH   1  46
ATOM     46  O2  KO1 d          -9.957   0.538  71.045  0.00  0.00    -0.343 OA
BRANCH  46  47
ATOM     47  C9  KO1 d         -10.628  -0.679  71.108  0.00  0.00     0.038 C 
ATOM     48  H24 KO1 d         -11.454  -0.517  71.816  0.00  0.00     0.080 H 
ATOM     49  H25 KO1 d          -9.905  -1.385  71.543  0.00  0.00     0.080 H 
BRANCH  47  50
ATOM     50  C10 KO1 d         -11.205  -1.366  70.015  0.00  0.00    -0.089 C 
ATOM     51  C11 KO1 d         -10.583  -1.497  68.763  0.00  0.00    -0.123 C 
ATOM     52  H27 KO1 d         -11.082  -2.039  67.961  0.00  0.00     0.066 H 
ATOM     53  H28 KO1 d          -9.602  -1.055  68.593  0.00  0.00     0.066 H 
ATOM     54  H26 KO1 d         -12.186  -1.820  70.152  0.00  0.00     0.078 H 
ENDBRANCH  47  50
ENDBRANCH  46  47
ENDBRANCH   1  46
BRANCH   5  55
ATOM     55  C7  KO1 d          -5.924  -1.429  70.812  0.00  0.00     0.083 C 
ATOM     56  H19 KO1 d          -5.171  -1.522  70.016  0.00  0.00     0.090 H 
BRANCH  55  57
ATOM     57  O7  KO1 d          -6.343  -2.763  71.178  0.00  0.00    -0.391 OA
ATOM     58  H20 KO1 d          -7.238  -2.737  71.495  0.00  0.00     0.210 HD
ENDBRANCH  55  57
BRANCH  55  59
ATOM     59  C8  KO1 d          -5.225  -0.743  72.023  0.00  0.00     0.043 C 
ATOM     60  H21 KO1 d          -4.276  -1.261  72.224  0.00  0.00     0.078 H 
ATOM     61  H22 KO1 d          -5.880  -0.823  72.904  0.00  0.00     0.078 H 
BRANCH  59  62
ATOM     62  O8  KO1 d          -4.948   0.660  71.774  0.00  0.00    -0.398 OA
ATOM     63  H23 KO1 d          -4.463   0.745  70.961  0.00  0.00     0.209 HD
ENDBRANCH  59  62
ENDBRANCH  55  59
ENDBRANCH   5  55
TORSDOF 19
ENDMDL
MODEL 2
REMARK VINA RESULT:      -5.6      1.321      2.995
REMARK  19 active torsions:
REMARK  status: ('A' for Active; 'I' for Inactive)
REMARK    1  A    between atoms: C2_4  and  C1_2 
REMARK    2  A    between atoms: O2_17  and  C2_4 
REMARK    3  A    between atoms: C6_6  and  C7_7 
REMARK    4  A    between atoms: C7_7  and  C8_8 
REMARK    5  A    between atoms: C7_7  and  O7_10 
REMARK    6  A    between atoms: C8_8  and  O8_9 
REMARK    7  A    between atoms: C5_11  and  O5_12 
REMARK    8  A    between atoms: C4_13  and  O4_14 
REMARK    9  A    between atoms: C3_15  and  O3_16 
REMARK   10  A    between atoms: C4_23  and  O2_17 
REMARK   11  A    between atoms: C2_21  and  C1_18 
REMARK   12  A    between atoms: C2_21  and  O2_32 
REMARK   13  A    between atoms: C5_24  and  O5_25 
REMARK   14  A    between atoms: C6_26  and  C7_28 
REMARK   15  A    between atoms: C7_28  and  O7_29 
REMARK   16  A    between atoms: C7_28  and  C8_30 
REMARK   17  A    between atoms: C8_30  and  O8_31 
REMARK   18  A    between atoms: O2_32  and  C9_33 
REMARK   19  A    between atoms: C9_33  and  C10_34 
ROOT
ATOM      1  C2  KO1 d          -6.934   1.733  70.996  0.00  0.00     0.259 C 
ATOM      2  C3  KO1 d          -6.650   1.815  69.463  0.00  0.00     0.024 C 
ATOM      3  C4  KO1 d          -7.883   1.636  68.541  0.00  0.00     0.075 C 
ATOM      4  C5  KO1 d          -8.795   0.426  68.870  0.00  0.00     0.088 C 
ATOM      5  C6  KO1 d          -9.155   0.505  70.385  0.00  0.00     0.096 C 
ATOM      6  O6  KO1 d          -7.948   0.712  71.228  0.00  0.00    -0.336 OA
ATOM      7  H13 KO1 d          -5.923   1.028  69.212  0.00  0.00     0.045 H 
ATOM      8  H14 KO1 d          -6.210   2.801  69.253  0.00  0.00     0.045 H 
ATOM      9  H15 KO1 d          -8.480   2.556  68.630  0.00  0.00     0.087 H 
ATOM     10  H16 KO1 d          -9.725   0.521  68.292  0.00  0.00     0.091 H 
ATOM     11  H18 KO1 d          -9.777   1.404  70.511  0.00  0.00     0.091 H 
ENDROOT
BRANCH   3  12
ATOM     12  O2  KO1 d          -7.530   1.433  67.136  0.00  0.00    -0.336 OA
BRANCH  12  13
ATOM     13  C2  KO1 d          -8.497   1.766  66.080  0.00  0.00     0.286 C 
ATOM     14  O6  KO1 d          -9.062   3.185  66.379  0.00  0.00    -0.334 OA
ATOM     15  C6  KO1 d          -7.918   4.152  66.575  0.00  0.00     0.096 C 
ATOM     16  C5  KO1 d          -7.160   4.297  65.253  0.00  0.00     0.090 C 
ATOM     17  H1  KO1 d          -7.216   3.780  67.336  0.00  0.00     0.091 H 
ATOM     18  C4  KO1 d          -6.578   2.913  64.858  0.00  0.00     0.093 C 
ATOM     19  H7  KO1 d          -6.345   5.027  65.368  0.00  0.00     0.091 H 
ATOM     20  C3  KO1 d          -7.643   1.778  64.770  0.00  0.00     0.127 C 
ATOM     21  H9  KO1 d          -5.842   2.624  65.622  0.00  0.00     0.091 H 
ATOM     22  H11 KO1 d          -7.130   0.817  64.620  0.00  0.00     0.096 H 
BRANCH  13  23
ATOM     23  C1  KO1 d          -9.706   0.822  65.889  0.00  0.00     0.241 C 
ATOM     24  OA1 KO1 d         -10.877   1.286  65.948  0.00  0.00    -0.644 OA
ATOM     25  O1B KO1 d          -9.496  -0.371  65.667  0.00  0.00    -0.644 OA
ENDBRANCH  13  23
BRANCH  15  26
ATOM     26  C7  KO1 d          -8.621   5.437  67.106  0.00  0.00     0.083 C 
ATOM     27  H2  KO1 d          -8.371   6.279  66.443  0.00  0.00     0.090 H 
BRANCH  26  28
ATOM     28  C8  KO1 d         -10.160   5.327  67.118  0.00  0.00     0.043 C 
ATOM     29  H3  KO1 d         -10.613   6.045  67.816  0.00  0.00     0.078 H 
ATOM     30  H4  KO1 d         -10.492   4.310  67.371  0.00  0.00     0.078 H 
BRANCH  28  31
ATOM     31  O8  KO1 d         -10.458   5.659  65.743  0.00  0.00    -0.398 OA
ATOM     32  H5  KO1 d          -9.751   6.183  65.385  0.00  0.00     0.209 HD
ENDBRANCH  28  31
ENDBRANCH  26  28
BRANCH  26  33
ATOM     33  O7  KO1 d          -8.012   5.665  68.367  0.00  0.00    -0.391 OA
ATOM     34  H6  KO1 d          -7.071   5.739  68.255  0.00  0.00     0.210 HD
ENDBRANCH  26  33
ENDBRANCH  15  26
BRANCH  16  35
ATOM     35  O5  KO1 d          -8.067   4.739  64.227  0.00  0.00    -0.390 OA
ATOM     36  H8  KO1 d          -8.856   5.082  64.630  0.00  0.00     0.210 HD
ENDBRANCH  16  35
BRANCH  18  37
ATOM     37  O4  KO1 d          -5.920   3.041  63.619  0.00  0.00    -0.390 OA
ATOM     38  H10 KO1 d          -5.114   2.538  63.636  0.00  0.00     0.210 HD
ENDBRANCH  18  37
BRANCH  20  39
ATOM     39  O3  KO1 d          -8.620   1.972  63.767  0.00  0.00    -0.387 OA
ATOM     40  H12 KO1 d          -9.101   1.163  63.635  0.00  0.00     0.210 HD
ENDBRANCH  20  39
ENDBRANCH  12  13
ENDBRANCH   3  12
BRANCH   4  41
ATOM     41  O5  KO1 d          -8.169  -0.835  68.483  0.00  0.00    -0.390 OA
ATOM     42  H17 KO1 d          -7.825  -1.267  69.256  0.00  0.00     0.210 HD
ENDBRANCH   4  41
BRANCH   1  43
ATOM     43  C1  KO1 d          -5.576   1.323  71.650  0.00  0.00     0.239 C 
ATOM     44  O1A KO1 d          -5.673   0.691  72.737  0.00  0.00    -0.644 OA
ATOM     45  O1B KO1 d          -4.474   1.647  71.092  0.00  0.00    -0.644 OA
ENDBRANCH   1  43
BRANCH   1  46
ATOM     46  O2  KO1 d          -7.483   2.939  71.575  0.00  0.00    -0.343 OA
BRANCH  46  47
ATOM     47  C9  KO1 d          -8.504   3.875  71.700  0.00  0.00     0.038 C 
ATOM     48  H24 KO1 d          -8.011   4.855  71.612  0.00  0.00     0.080 H 
ATOM     49  H25 KO1 d          -8.888   3.749  72.723  0.00  0.00     0.080 H 
BRANCH  47  50
ATOM     50  C10 KO1 d          -9.653   3.964  70.882  0.00  0.00    -0.089 C 
ATOM     51  C11 KO1 d         -10.523   5.067  70.879  0.00  0.00    -0.123 C 
ATOM     52  H27 KO1 d         -11.392   5.073  70.224  0.00  0.00     0.066 H 
ATOM     53  H28 KO1 d         -10.328   5.916  71.532  0.00  0.00     0.066 H 
ATOM     54  H26 KO1 d          -9.877   3.131  70.216  0.00  0.00     0.078 H 
ENDBRANCH  47  50
ENDBRANCH  46  47
ENDBRANCH   1  46
BRANCH   5  55
ATOM     55  C7  KO1 d         -10.028  -0.692  70.853  0.00  0.00     0.083 C 
ATOM     56  H19 KO1 d         -10.543  -0.370  71.770  0.00  0.00     0.090 H 
BRANCH  55  57
ATOM     57  O7  KO1 d          -9.207  -1.833  71.189  0.00  0.00    -0.391 OA
ATOM     58  H20 KO1 d          -9.398  -2.546  70.590  0.00  0.00     0.210 HD
ENDBRANCH  55  57
BRANCH  55  59
ATOM     59  C8  KO1 d         -11.129  -1.113  69.835  0.00  0.00     0.043 C 
ATOM     60  H21 KO1 d         -11.263  -0.303  69.103  0.00  0.00     0.078 H 
ATOM     61  H22 KO1 d         -12.072  -1.275  70.379  0.00  0.00     0.078 H 
BRANCH  59  62
ATOM     62  O8  KO1 d         -10.784  -2.331  69.126  0.00  0.00    -0.398 OA
ATOM     63  H23 KO1 d         -11.565  -2.859  69.007  0.00  0.00     0.209 HD
ENDBRANCH  59  62
ENDBRANCH  55  59
ENDBRANCH   5  55
TORSDOF 19
ENDMDL
MODEL 3
REMARK VINA RESULT:      -5.3      1.533      3.306
REMARK  19 active torsions:
REMARK  status: ('A' for Active; 'I' for Inactive)
REMARK    1  A    between atoms: C2_4  and  C1_2 
REMARK    2  A    between atoms: O2_17  and  C2_4 
REMARK    3  A    between atoms: C6_6  and  C7_7 
REMARK    4  A    between atoms: C7_7  and  C8_8 
REMARK    5  A    between atoms: C7_7  and  O7_10 
REMARK    6  A    between atoms: C8_8  and  O8_9 
REMARK    7  A    between atoms: C5_11  and  O5_12 
REMARK    8  A    between atoms: C4_13  and  O4_14 
REMARK    9  A    between atoms: C3_15  and  O3_16 
REMARK   10  A    between atoms: C4_23  and  O2_17 
REMARK   11  A    between atoms: C2_21  and  C1_18 
REMARK   12  A    between atoms: C2_21  and  O2_32 
REMARK   13  A    between atoms: C5_24  and  O5_25 
REMARK   14  A    between atoms: C6_26  and  C7_28 
REMARK   15  A    between atoms: C7_28  and  O7_29 
REMARK   16  A    between atoms: C7_28  and  C8_30 
REMARK   17  A    between atoms: C8_30  and  O8_31 
REMARK   18  A    between atoms: O2_32  and  C9_33 
REMARK   19  A    between atoms: C9_33  and  C10_34 
ROOT
ATOM      1  C2  KO1 d          -6.740   1.529  71.355  0.00  0.00     0.259 C 
ATOM      2  C3  KO1 d          -6.503   1.527  69.812  0.00  0.00     0.024 C 
ATOM      3  C4  KO1 d          -7.761   1.288  68.940  0.00  0.00     0.075 C 
ATOM      4  C5  KO1 d          -8.652   0.091  69.363  0.00  0.00     0.088 C 
ATOM      5  C6  KO1 d          -8.967   0.253  70.882  0.00  0.00     0.096 C 
ATOM      6  O6  KO1 d          -7.737   0.515  71.675  0.00  0.00    -0.336 OA
ATOM      7  H13 KO1 d          -5.776   0.734  69.583  0.00  0.00     0.045 H 
ATOM      8  H14 KO1 d          -6.079   2.504  69.534  0.00  0.00     0.045 H 
ATOM      9  H15 KO1 d          -8.363   2.207  68.996  0.00  0.00     0.087 H 
ATOM     10  H16 KO1 d          -9.600   0.147  68.810  0.00  0.00     0.091 H 
ATOM     11  H18 KO1 d          -9.593   1.153  70.976  0.00  0.00     0.091 H 
ENDROOT
BRANCH   3  12
ATOM     12  O2  KO1 d          -7.449   1.009  67.538  0.00  0.00    -0.336 OA
BRANCH  12  13
ATOM     13  C2  KO1 d          -8.394   1.402  66.482  0.00  0.00     0.286 C 
ATOM     14  O6  KO1 d          -8.752   2.902  66.696  0.00  0.00    -0.334 OA
ATOM     15  C6  KO1 d          -7.482   3.713  66.800  0.00  0.00     0.096 C 
ATOM     16  C5  KO1 d          -6.752   3.666  65.456  0.00  0.00     0.090 C 
ATOM     17  H1  KO1 d          -6.814   3.298  67.570  0.00  0.00     0.091 H 
ATOM     18  C4  KO1 d          -6.374   2.194  65.144  0.00  0.00     0.093 C 
ATOM     19  H7  KO1 d          -5.842   4.284  65.504  0.00  0.00     0.091 H 
ATOM     20  C3  KO1 d          -7.586   1.211  65.157  0.00  0.00     0.127 C 
ATOM     21  H9  KO1 d          -5.661   1.856  65.911  0.00  0.00     0.091 H 
ATOM     22  H11 KO1 d          -7.212   0.182  65.062  0.00  0.00     0.096 H 
BRANCH  13  23
ATOM     23  C1  KO1 d          -9.724   0.622  66.382  0.00  0.00     0.241 C 
ATOM     24  OA1 KO1 d          -9.720  -0.636  66.460  0.00  0.00    -0.644 OA
ATOM     25  O1B KO1 d         -10.772   1.256  66.240  0.00  0.00    -0.644 OA
ENDBRANCH  13  23
BRANCH  15  26
ATOM     26  C7  KO1 d          -7.988   5.114  67.256  0.00  0.00     0.083 C 
ATOM     27  H2  KO1 d          -9.073   5.172  67.090  0.00  0.00     0.090 H 
BRANCH  26  28
ATOM     28  C8  KO1 d          -7.757   5.385  68.758  0.00  0.00     0.043 C 
ATOM     29  H3  KO1 d          -8.117   4.553  69.381  0.00  0.00     0.078 H 
ATOM     30  H4  KO1 d          -8.239   6.319  69.080  0.00  0.00     0.078 H 
BRANCH  28  31
ATOM     31  O8  KO1 d          -6.316   5.490  68.787  0.00  0.00    -0.398 OA
ATOM     32  H5  KO1 d          -6.067   6.289  69.236  0.00  0.00     0.209 HD
ENDBRANCH  28  31
ENDBRANCH  26  28
BRANCH  26  33
ATOM     33  O7  KO1 d          -7.350   6.016  66.365  0.00  0.00    -0.391 OA
ATOM     34  H6  KO1 d          -7.635   5.835  65.476  0.00  0.00     0.210 HD
ENDBRANCH  26  33
ENDBRANCH  15  26
BRANCH  16  35
ATOM     35  O5  KO1 d          -7.621   4.161  64.421  0.00  0.00    -0.390 OA
ATOM     36  H8  KO1 d          -7.886   5.049  64.630  0.00  0.00     0.210 HD
ENDBRANCH  16  35
BRANCH  18  37
ATOM     37  O4  KO1 d          -5.743   2.149  63.886  0.00  0.00    -0.390 OA
ATOM     38  H10 KO1 d          -6.383   2.327  63.206  0.00  0.00     0.210 HD
ENDBRANCH  18  37
BRANCH  20  39
ATOM     39  O3  KO1 d          -8.557   1.472  64.164  0.00  0.00    -0.387 OA
ATOM     40  H12 KO1 d          -9.305   1.903  64.560  0.00  0.00     0.210 HD
ENDBRANCH  20  39
ENDBRANCH  12  13
ENDBRANCH   3  12
BRANCH   4  41
ATOM     41  O5  KO1 d          -8.025  -1.185  69.029  0.00  0.00    -0.390 OA
ATOM     42  H17 KO1 d          -7.995  -1.284  68.084  0.00  0.00     0.210 HD
ENDBRANCH   4  41
BRANCH   1  43
ATOM     43  C1  KO1 d          -5.359   1.167  71.989  0.00  0.00     0.239 C 
ATOM     44  O1A KO1 d          -4.448   0.884  71.164  0.00  0.00    -0.644 OA
ATOM     45  O1B KO1 d          -5.221   1.153  73.258  0.00  0.00    -0.644 OA
ENDBRANCH   1  43
BRANCH   1  46
ATOM     46  O2  KO1 d          -7.282   2.762  71.883  0.00  0.00    -0.343 OA
BRANCH  46  47
ATOM     47  C9  KO1 d          -8.246   3.459  72.606  0.00  0.00     0.038 C 
ATOM     48  H24 KO1 d          -7.685   4.194  73.201  0.00  0.00     0.080 H 
ATOM     49  H25 KO1 d          -8.699   2.713  73.275  0.00  0.00     0.080 H 
BRANCH  47  50
ATOM     50  C10 KO1 d          -9.334   4.177  72.060  0.00  0.00    -0.089 C 
ATOM     51  C11 KO1 d         -10.208   4.965  72.826  0.00  0.00    -0.123 C 
ATOM     52  H27 KO1 d         -11.029   5.493  72.344  0.00  0.00     0.066 H 
ATOM     53  H28 KO1 d         -10.066   5.048  73.902  0.00  0.00     0.066 H 
ATOM     54  H26 KO1 d          -9.505   4.115  70.985  0.00  0.00     0.078 H 
ENDBRANCH  47  50
ENDBRANCH  46  47
ENDBRANCH   1  46
BRANCH   5  55
ATOM     55  C7  KO1 d          -9.814  -0.923  71.442  0.00  0.00     0.083 C 
ATOM     56  H19 KO1 d         -10.201  -0.598  72.420  0.00  0.00     0.090 H 
BRANCH  55  57
ATOM     57  O7  KO1 d          -8.996  -2.094  71.662  0.00  0.00    -0.391 OA
ATOM     58  H20 KO1 d          -8.116  -1.824  71.898  0.00  0.00     0.210 HD
ENDBRANCH  55  57
BRANCH  55  59
ATOM     59  C8  KO1 d         -11.046  -1.295  70.565  0.00  0.00     0.043 C 
ATOM     60  H21 KO1 d         -11.246  -0.468  69.867  0.00  0.00     0.078 H 
ATOM     61  H22 KO1 d         -11.917  -1.440  71.220  0.00  0.00     0.078 H 
BRANCH  59  62
ATOM     62  O8  KO1 d         -10.828  -2.509  69.801  0.00  0.00    -0.398 OA
ATOM     63  H23 KO1 d         -10.118  -3.004  70.192  0.00  0.00     0.209 HD
ENDBRANCH  59  62
ENDBRANCH  55  59
ENDBRANCH   5  55
TORSDOF 19
ENDMDL
MODEL 4
REMARK VINA RESULT:      -4.8      1.661      4.668
REMARK  19 active torsions:
REMARK  status: ('A' for Active; 'I' for Inactive)
REMARK    1  A    between atoms: C2_4  and  C1_2 
REMARK    2  A    between atoms: O2_17  and  C2_4 
REMARK    3  A    between atoms: C6_6  and  C7_7 
REMARK    4  A    between atoms: C7_7  and  C8_8 
REMARK    5  A    between atoms: C7_7  and  O7_10 
REMARK    6  A    between atoms: C8_8  and  O8_9 
REMARK    7  A    between atoms: C5_11  and  O5_12 
REMARK    8  A    between atoms: C4_13  and  O4_14 
REMARK    9  A    between atoms: C3_15  and  O3_16 
REMARK   10  A    between atoms: C4_23  and  O2_17 
REMARK   11  A    between atoms: C2_21  and  C1_18 
REMARK   12  A    between atoms: C2_21  and  O2_32 
REMARK   13  A    between atoms: C5_24  and  O5_25 
REMARK   14  A    between atoms: C6_26  and  C7_28 
REMARK   15  A    between atoms: C7_28  and  O7_29 
REMARK   16  A    between atoms: C7_28  and  C8_30 
REMARK   17  A    between atoms: C8_30  and  O8_31 
REMARK   18  A    between atoms: O2_32  and  C9_33 
REMARK   19  A    between atoms: C9_33  and  C10_34 
ROOT
ATOM      1  C2  KO1 d          -7.261   0.311  70.006  0.00  0.00     0.259 C 
ATOM      2  C3  KO1 d          -7.599   1.565  69.140  0.00  0.00     0.024 C 
ATOM      3  C4  KO1 d          -9.024   2.146  69.328  0.00  0.00     0.075 C 
ATOM      4  C5  KO1 d         -10.180   1.113  69.279  0.00  0.00     0.088 C 
ATOM      5  C6  KO1 d          -9.835  -0.028  70.284  0.00  0.00     0.096 C 
ATOM      6  O6  KO1 d          -8.448  -0.531  70.091  0.00  0.00    -0.336 OA
ATOM      7  H13 KO1 d          -7.484   1.286  68.082  0.00  0.00     0.045 H 
ATOM      8  H14 KO1 d          -6.876   2.355  69.392  0.00  0.00     0.045 H 
ATOM      9  H15 KO1 d          -9.037   2.638  70.311  0.00  0.00     0.087 H 
ATOM     10  H16 KO1 d         -11.102   1.604  69.622  0.00  0.00     0.091 H 
ATOM     11  H18 KO1 d          -9.863   0.422  71.288  0.00  0.00     0.091 H 
ENDROOT
BRANCH   3  12
ATOM     12  O2  KO1 d          -9.389   3.124  68.303  0.00  0.00    -0.336 OA
BRANCH  12  13
ATOM     13  C2  KO1 d          -8.353   3.966  67.687  0.00  0.00     0.286 C 
ATOM     14  O6  KO1 d          -7.675   3.139  66.557  0.00  0.00    -0.334 OA
ATOM     15  C6  KO1 d          -8.734   2.587  65.631  0.00  0.00     0.096 C 
ATOM     16  C5  KO1 d          -9.419   3.753  64.914  0.00  0.00     0.090 C 
ATOM     17  H1  KO1 d          -9.497   2.032  66.195  0.00  0.00     0.091 H 
ATOM     18  C4  KO1 d         -10.108   4.654  65.972  0.00  0.00     0.093 C 
ATOM     19  H7  KO1 d         -10.169   3.366  64.207  0.00  0.00     0.091 H 
ATOM     20  C3  KO1 d          -9.148   5.172  67.087  0.00  0.00     0.127 C 
ATOM     21  H9  KO1 d         -10.899   4.064  66.459  0.00  0.00     0.091 H 
ATOM     22  H11 KO1 d          -9.740   5.684  67.859  0.00  0.00     0.096 H 
BRANCH  13  23
ATOM     23  C1  KO1 d          -7.228   4.504  68.600  0.00  0.00     0.241 C 
ATOM     24  OA1 KO1 d          -6.023   4.353  68.263  0.00  0.00    -0.644 OA
ATOM     25  O1B KO1 d          -7.538   5.086  69.641  0.00  0.00    -0.644 OA
ENDBRANCH  13  23
BRANCH  15  26
ATOM     26  C7  KO1 d          -7.939   1.598  64.726  0.00  0.00     0.083 C 
ATOM     27  H2  KO1 d          -8.161   1.823  63.673  0.00  0.00     0.090 H 
BRANCH  26  28
ATOM     28  C8  KO1 d          -6.410   1.719  64.890  0.00  0.00     0.043 C 
ATOM     29  H3  KO1 d          -5.899   0.777  64.644  0.00  0.00     0.078 H 
ATOM     30  H4  KO1 d          -6.134   2.031  65.908  0.00  0.00     0.078 H 
BRANCH  28  31
ATOM     31  O8  KO1 d          -6.123   2.751  63.920  0.00  0.00    -0.398 OA
ATOM     32  H5  KO1 d          -6.908   2.943  63.421  0.00  0.00     0.209 HD
ENDBRANCH  28  31
ENDBRANCH  26  28
BRANCH  26  33
ATOM     33  O7  KO1 d          -8.492   0.329  65.039  0.00  0.00    -0.391 OA
ATOM     34  H6  KO1 d          -9.436   0.405  65.114  0.00  0.00     0.210 HD
ENDBRANCH  26  33
ENDBRANCH  15  26
BRANCH  16  35
ATOM     35  O5  KO1 d          -8.434   4.524  64.203  0.00  0.00    -0.390 OA
ATOM     36  H8  KO1 d          -8.707   4.629  63.299  0.00  0.00     0.210 HD
ENDBRANCH  16  35
BRANCH  18  37
ATOM     37  O4  KO1 d         -10.699   5.749  65.313  0.00  0.00    -0.390 OA
ATOM     38  H10 KO1 d         -10.160   6.522  65.439  0.00  0.00     0.210 HD
ENDBRANCH  18  37
BRANCH  20  39
ATOM     39  O3  KO1 d          -8.116   6.018  66.620  0.00  0.00    -0.387 OA
ATOM     40  H12 KO1 d          -8.054   6.780  67.185  0.00  0.00     0.210 HD
ENDBRANCH  20  39
ENDBRANCH  12  13
ENDBRANCH   3  12
BRANCH   4  41
ATOM     41  O5  KO1 d         -10.417   0.642  67.918  0.00  0.00    -0.390 OA
ATOM     42  H17 KO1 d          -9.985  -0.195  67.793  0.00  0.00     0.210 HD
ENDBRANCH   4  41
BRANCH   1  43
ATOM     43  C1  KO1 d          -6.115  -0.426  69.242  0.00  0.00     0.239 C 
ATOM     44  O1A KO1 d          -6.394  -0.773  68.062  0.00  0.00    -0.644 OA
ATOM     45  O1B KO1 d          -5.002  -0.653  69.824  0.00  0.00    -0.644 OA
ENDBRANCH   1  43
BRANCH   1  46
ATOM     46  O2  KO1 d          -6.911   0.599  71.380  0.00  0.00    -0.343 OA
BRANCH  46  47
ATOM     47  C9  KO1 d          -6.632   1.501  72.402  0.00  0.00     0.038 C 
ATOM     48  H24 KO1 d          -6.107   2.336  71.915  0.00  0.00     0.080 H 
ATOM     49  H25 KO1 d          -5.937   0.972  73.071  0.00  0.00     0.080 H 
BRANCH  47  50
ATOM     50  C10 KO1 d          -7.581   2.106  73.257  0.00  0.00    -0.089 C 
ATOM     51  C11 KO1 d          -7.994   3.443  73.137  0.00  0.00    -0.123 C 
ATOM     52  H27 KO1 d          -8.729   3.850  73.830  0.00  0.00     0.066 H 
ATOM     53  H28 KO1 d          -7.578   4.074  72.352  0.00  0.00     0.066 H 
ATOM     54  H26 KO1 d          -8.015   1.503  74.053  0.00  0.00     0.078 H 
ENDBRANCH  47  50
ENDBRANCH  46  47
ENDBRANCH   1  46
BRANCH   5  55
ATOM     55  C7  KO1 d         -10.899  -1.160  70.287  0.00  0.00     0.083 C 
ATOM     56  H19 KO1 d         -11.855  -0.695  70.571  0.00  0.00     0.090 H 
BRANCH  55  57
ATOM     57  O7  KO1 d         -10.587  -2.163  71.280  0.00  0.00    -0.391 OA
ATOM     58  H20 KO1 d          -9.663  -2.376  71.234  0.00  0.00     0.210 HD
ENDBRANCH  55  57
BRANCH  55  59
ATOM     59  C8  KO1 d         -11.113  -1.836  68.900  0.00  0.00     0.043 C 
ATOM     60  H21 KO1 d         -11.679  -1.148  68.255  0.00  0.00     0.078 H 
ATOM     61  H22 KO1 d         -11.690  -2.762  69.043  0.00  0.00     0.078 H 
BRANCH  59  62
ATOM     62  O8  KO1 d          -9.858  -2.163  68.250  0.00  0.00    -0.398 OA
ATOM     63  H23 KO1 d         -10.035  -2.550  67.401  0.00  0.00     0.209 HD
ENDBRANCH  59  62
ENDBRANCH  55  59
ENDBRANCH   5  55
TORSDOF 19
ENDMDL
MODEL 5
REMARK VINA RESULT:      -4.8      1.791      2.393
REMARK  19 active torsions:
REMARK  status: ('A' for Active; 'I' for Inactive)
REMARK    1  A    between atoms: C2_4  and  C1_2 
REMARK    2  A    between atoms: O2_17  and  C2_4 
REMARK    3  A    between atoms: C6_6  and  C7_7 
REMARK    4  A    between atoms: C7_7  and  C8_8 
REMARK    5  A    between atoms: C7_7  and  O7_10 
REMARK    6  A    between atoms: C8_8  and  O8_9 
REMARK    7  A    between atoms: C5_11  and  O5_12 
REMARK    8  A    between atoms: C4_13  and  O4_14 
REMARK    9  A    between atoms: C3_15  and  O3_16 
REMARK   10  A    between atoms: C4_23  and  O2_17 
REMARK   11  A    between atoms: C2_21  and  C1_18 
REMARK   12  A    between atoms: C2_21  and  O2_32 
REMARK   13  A    between atoms: C5_24  and  O5_25 
REMARK   14  A    between atoms: C6_26  and  C7_28 
REMARK   15  A    between atoms: C7_28  and  O7_29 
REMARK   16  A    between atoms: C7_28  and  C8_30 
REMARK   17  A    between atoms: C8_30  and  O8_31 
REMARK   18  A    between atoms: O2_32  and  C9_33 
REMARK   19  A    between atoms: C9_33  and  C10_34 
ROOT
ATOM      1  C2  KO1 d          -8.340   2.794  71.561  0.00  0.00     0.259 C 
ATOM      2  C3  KO1 d          -8.726   2.821  70.048  0.00  0.00     0.024 C 
ATOM      3  C4  KO1 d          -8.120   1.688  69.181  0.00  0.00     0.075 C 
ATOM      4  C5  KO1 d          -6.598   1.449  69.359  0.00  0.00     0.088 C 
ATOM      5  C6  KO1 d          -6.323   1.281  70.885  0.00  0.00     0.096 C 
ATOM      6  O6  KO1 d          -6.951   2.369  71.681  0.00  0.00    -0.336 OA
ATOM      7  H13 KO1 d          -8.390   3.783  69.631  0.00  0.00     0.045 H 
ATOM      8  H14 KO1 d          -9.822   2.753  69.977  0.00  0.00     0.045 H 
ATOM      9  H15 KO1 d          -8.652   0.765  69.452  0.00  0.00     0.087 H 
ATOM     10  H16 KO1 d          -6.331   0.508  68.857  0.00  0.00     0.091 H 
ATOM     11  H18 KO1 d          -6.821   0.349  71.190  0.00  0.00     0.091 H 
ENDROOT
BRANCH   3  12
ATOM     12  O2  KO1 d          -8.270   1.918  67.744  0.00  0.00    -0.336 OA
BRANCH  12  13
ATOM     13  C2  KO1 d          -9.297   1.189  66.986  0.00  0.00     0.286 C 
ATOM     14  O6  KO1 d         -10.345   2.225  66.484  0.00  0.00    -0.334 OA
ATOM     15  C6  KO1 d          -9.638   3.346  65.757  0.00  0.00     0.096 C 
ATOM     16  C5  KO1 d          -8.996   2.784  64.487  0.00  0.00     0.090 C 
ATOM     17  H1  KO1 d          -8.844   3.779  66.383  0.00  0.00     0.091 H 
ATOM     18  C4  KO1 d          -7.945   1.714  64.890  0.00  0.00     0.093 C 
ATOM     19  H7  KO1 d          -8.507   3.595  63.926  0.00  0.00     0.091 H 
ATOM     20  C3  KO1 d          -8.516   0.569  65.781  0.00  0.00     0.127 C 
ATOM     21  H9  KO1 d          -7.150   2.218  65.460  0.00  0.00     0.091 H 
ATOM     22  H11 KO1 d          -7.684  -0.062  66.128  0.00  0.00     0.096 H 
BRANCH  13  23
ATOM     23  C1  KO1 d         -10.073   0.071  67.718  0.00  0.00     0.241 C 
ATOM     24  OA1 KO1 d          -9.583  -1.089  67.785  0.00  0.00    -0.644 OA
ATOM     25  O1B KO1 d         -11.156   0.344  68.236  0.00  0.00    -0.644 OA
ENDBRANCH  13  23
BRANCH  15  26
ATOM     26  C7  KO1 d         -10.763   4.402  65.546  0.00  0.00     0.083 C 
ATOM     27  H2  KO1 d         -11.737   3.892  65.560  0.00  0.00     0.090 H 
BRANCH  26  28
ATOM     28  C8  KO1 d         -10.809   5.472  66.657  0.00  0.00     0.043 C 
ATOM     29  H3  KO1 d         -11.698   6.114  66.566  0.00  0.00     0.078 H 
ATOM     30  H4  KO1 d          -9.904   6.096  66.657  0.00  0.00     0.078 H 
BRANCH  28  31
ATOM     31  O8  KO1 d         -10.877   4.630  67.830  0.00  0.00    -0.398 OA
ATOM     32  H5  KO1 d         -10.583   3.754  67.607  0.00  0.00     0.209 HD
ENDBRANCH  28  31
ENDBRANCH  26  28
BRANCH  26  33
ATOM     33  O7  KO1 d         -10.533   4.890  64.233  0.00  0.00    -0.391 OA
ATOM     34  H6  KO1 d          -9.666   4.626  63.945  0.00  0.00     0.210 HD
ENDBRANCH  26  33
ENDBRANCH  15  26
BRANCH  16  35
ATOM     35  O5  KO1 d         -10.008   2.168  63.670  0.00  0.00    -0.390 OA
ATOM     36  H8  KO1 d          -9.641   1.959  62.819  0.00  0.00     0.210 HD
ENDBRANCH  16  35
BRANCH  18  37
ATOM     37  O4  KO1 d          -7.389   1.168  63.717  0.00  0.00    -0.390 OA
ATOM     38  H10 KO1 d          -7.900   0.413  63.448  0.00  0.00     0.210 HD
ENDBRANCH  18  37
BRANCH  20  39
ATOM     39  O3  KO1 d          -9.501  -0.224  65.150  0.00  0.00    -0.387 OA
ATOM     40  H12 KO1 d          -9.380  -0.187  64.209  0.00  0.00     0.210 HD
ENDBRANCH  20  39
ENDBRANCH  12  13
ENDBRANCH   3  12
BRANCH   4  41
ATOM     41  O5  KO1 d          -5.815   2.512  68.737  0.00  0.00    -0.390 OA
ATOM     42  H17 KO1 d          -6.378   3.033  68.176  0.00  0.00     0.210 HD
ENDBRANCH   4  41
BRANCH   1  43
ATOM     43  C1  KO1 d          -8.515   4.264  72.061  0.00  0.00     0.239 C 
ATOM     44  O1A KO1 d          -9.286   4.405  73.050  0.00  0.00    -0.644 OA
ATOM     45  O1B KO1 d          -7.914   5.218  71.464  0.00  0.00    -0.644 OA
ENDBRANCH   1  43
BRANCH   1  46
ATOM     46  O2  KO1 d          -9.088   1.848  72.359  0.00  0.00    -0.343 OA
BRANCH  46  47
ATOM     47  C9  KO1 d          -9.351   0.547  72.779  0.00  0.00     0.038 C 
ATOM     48  H24 KO1 d         -10.123   0.646  73.557  0.00  0.00     0.080 H 
ATOM     49  H25 KO1 d          -8.414   0.196  73.235  0.00  0.00     0.080 H 
BRANCH  47  50
ATOM     50  C10 KO1 d          -9.786  -0.518  71.957  0.00  0.00    -0.089 C 
ATOM     51  C11 KO1 d         -11.062  -1.098  72.047  0.00  0.00    -0.123 C 
ATOM     52  H27 KO1 d         -11.335  -1.918  71.384  0.00  0.00     0.066 H 
ATOM     53  H28 KO1 d         -11.778  -0.730  72.780  0.00  0.00     0.066 H 
ATOM     54  H26 KO1 d          -9.093  -0.910  71.213  0.00  0.00     0.078 H 
ENDBRANCH  47  50
ENDBRANCH  46  47
ENDBRANCH   1  46
BRANCH   5  55
ATOM     55  C7  KO1 d          -4.815   1.088  71.199  0.00  0.00     0.083 C 
ATOM     56  H19 KO1 d          -4.322   2.051  70.996  0.00  0.00     0.090 H 
BRANCH  55  57
ATOM     57  O7  KO1 d          -4.224   0.101  70.325  0.00  0.00    -0.391 OA
ATOM     58  H20 KO1 d          -3.360   0.393  70.058  0.00  0.00     0.210 HD
ENDBRANCH  55  57
BRANCH  55  59
ATOM     59  C8  KO1 d          -4.514   0.727  72.685  0.00  0.00     0.043 C 
ATOM     60  H21 KO1 d          -3.441   0.510  72.786  0.00  0.00     0.078 H 
ATOM     61  H22 KO1 d          -5.096  -0.166  72.957  0.00  0.00     0.078 H 
BRANCH  59  62
ATOM     62  O8  KO1 d          -4.861   1.806  73.591  0.00  0.00    -0.398 OA
ATOM     63  H23 KO1 d          -4.222   2.504  73.510  0.00  0.00     0.209 HD
ENDBRANCH  59  62
ENDBRANCH  55  59
ENDBRANCH   5  55
TORSDOF 19
ENDMDL
MODEL 6
REMARK VINA RESULT:      -4.5      2.019      7.033
REMARK  19 active torsions:
REMARK  status: ('A' for Active; 'I' for Inactive)
REMARK    1  A    between atoms: C2_4  and  C1_2 
REMARK    2  A    between atoms: O2_17  and  C2_4 
REMARK    3  A    between atoms: C6_6  and  C7_7 
REMARK    4  A    between atoms: C7_7  and  C8_8 
REMARK    5  A    between atoms: C7_7  and  O7_10 
REMARK    6  A    between atoms: C8_8  and  O8_9 
REMARK    7  A    between atoms: C5_11  and  O5_12 
REMARK    8  A    between atoms: C4_13  and  O4_14 
REMARK    9  A    between atoms: C3_15  and  O3_16 
REMARK   10  A    between atoms: C4_23  and  O2_17 
REMARK   11  A    between atoms: C2_21  and  C1_18 
REMARK   12  A    between atoms: C2_21  and  O2_32 
REMARK   13  A    between atoms: C5_24  and  O5_25 
REMARK   14  A    between atoms: C6_26  and  C7_28 
REMARK   15  A    between atoms: C7_28  and  O7_29 
REMARK   16  A    between atoms: C7_28  and  C8_30 
REMARK   17  A    between atoms: C8_30  and  O8_31 
REMARK   18  A    between atoms: O2_32  and  C9_33 
REMARK   19  A    between atoms: C9_33  and  C10_34 
ROOT
ATOM      1  C2  KO1 d          -8.146   2.058  65.754  0.00  0.00     0.259 C 
ATOM      2  C3  KO1 d          -8.255   1.165  67.030  0.00  0.00     0.024 C 
ATOM      3  C4  KO1 d          -9.007   1.797  68.229  0.00  0.00     0.075 C 
ATOM      4  C5  KO1 d          -8.581   3.241  68.600  0.00  0.00     0.088 C 
ATOM      5  C6  KO1 d          -8.648   4.100  67.300  0.00  0.00     0.096 C 
ATOM      6  O6  KO1 d          -7.944   3.440  66.167  0.00  0.00    -0.336 OA
ATOM      7  H13 KO1 d          -7.234   0.923  67.360  0.00  0.00     0.045 H 
ATOM      8  H14 KO1 d          -8.780   0.239  66.751  0.00  0.00     0.045 H 
ATOM      9  H15 KO1 d         -10.074   1.805  67.963  0.00  0.00     0.087 H 
ATOM     10  H16 KO1 d          -9.310   3.648  69.316  0.00  0.00     0.091 H 
ATOM     11  H18 KO1 d          -9.709   4.153  67.015  0.00  0.00     0.091 H 
ENDROOT
BRANCH   3  12
ATOM     12  O2  KO1 d          -8.834   1.053  69.477  0.00  0.00    -0.336 OA
BRANCH  12  13
ATOM     13  C2  KO1 d          -9.133  -0.385  69.523  0.00  0.00     0.286 C 
ATOM     14  O6  KO1 d          -7.811  -1.157  69.241  0.00  0.00    -0.334 OA
ATOM     15  C6  KO1 d          -6.730  -0.663  70.173  0.00  0.00     0.096 C 
ATOM     16  C5  KO1 d          -7.107  -1.033  71.609  0.00  0.00     0.090 C 
ATOM     17  H1  KO1 d          -6.631   0.431  70.113  0.00  0.00     0.091 H 
ATOM     18  C4  KO1 d          -8.438  -0.323  71.974  0.00  0.00     0.093 C 
ATOM     19  H7  KO1 d          -6.311  -0.713  72.298  0.00  0.00     0.091 H 
ATOM     20  C3  KO1 d          -9.610  -0.629  70.993  0.00  0.00     0.127 C 
ATOM     21  H9  KO1 d          -8.260   0.762  71.956  0.00  0.00     0.091 H 
ATOM     22  H11 KO1 d         -10.465   0.014  71.246  0.00  0.00     0.096 H 
BRANCH  13  23
ATOM     23  C1  KO1 d         -10.200  -0.930  68.546  0.00  0.00     0.241 C 
ATOM     24  OA1 KO1 d         -11.346  -0.407  68.517  0.00  0.00    -0.644 OA
ATOM     25  O1B KO1 d          -9.898  -1.863  67.801  0.00  0.00    -0.644 OA
ENDBRANCH  13  23
BRANCH  15  26
ATOM     26  C7  KO1 d          -5.439  -1.330  69.610  0.00  0.00     0.083 C 
ATOM     27  H2  KO1 d          -4.887  -0.590  69.013  0.00  0.00     0.090 H 
BRANCH  26  28
ATOM     28  C8  KO1 d          -4.474  -1.814  70.713  0.00  0.00     0.043 C 
ATOM     29  H3  KO1 d          -4.803  -1.490  71.712  0.00  0.00     0.078 H 
ATOM     30  H4  KO1 d          -3.447  -1.466  70.534  0.00  0.00     0.078 H 
BRANCH  28  31
ATOM     31  O8  KO1 d          -4.589  -3.245  70.552  0.00  0.00    -0.398 OA
ATOM     32  H5  KO1 d          -4.871  -3.442  69.666  0.00  0.00     0.209 HD
ENDBRANCH  28  31
ENDBRANCH  26  28
BRANCH  26  33
ATOM     33  O7  KO1 d          -5.927  -2.337  68.736  0.00  0.00    -0.391 OA
ATOM     34  H6  KO1 d          -5.233  -2.602  68.143  0.00  0.00     0.210 HD
ENDBRANCH  26  33
ENDBRANCH  15  26
BRANCH  16  35
ATOM     35  O5  KO1 d          -7.288  -2.458  71.705  0.00  0.00    -0.390 OA
ATOM     36  H8  KO1 d          -8.108  -2.642  72.149  0.00  0.00     0.210 HD
ENDBRANCH  16  35
BRANCH  18  37
ATOM     37  O4  KO1 d          -8.805  -0.702  73.280  0.00  0.00    -0.390 OA
ATOM     38  H10 KO1 d          -8.273  -0.226  73.908  0.00  0.00     0.210 HD
ENDBRANCH  18  37
BRANCH  20  39
ATOM     39  O3  KO1 d         -10.009  -1.985  70.966  0.00  0.00    -0.387 OA
ATOM     40  H12 KO1 d         -10.373  -2.223  71.811  0.00  0.00     0.210 HD
ENDBRANCH  20  39
ENDBRANCH  12  13
ENDBRANCH   3  12
BRANCH   4  41
ATOM     41  O5  KO1 d          -7.274   3.263  69.249  0.00  0.00    -0.390 OA
ATOM     42  H17 KO1 d          -7.289   3.882  69.969  0.00  0.00     0.210 HD
ENDBRANCH   4  41
BRANCH   1  43
ATOM     43  C1  KO1 d          -6.899   1.525  64.978  0.00  0.00     0.239 C 
ATOM     44  O1A KO1 d          -6.493   0.385  65.334  0.00  0.00    -0.644 OA
ATOM     45  O1B KO1 d          -6.357   2.240  64.071  0.00  0.00    -0.644 OA
ENDBRANCH   1  43
BRANCH   1  46
ATOM     46  O2  KO1 d          -9.336   2.086  64.932  0.00  0.00    -0.343 OA
BRANCH  46  47
ATOM     47  C9  KO1 d         -10.707   2.266  64.779  0.00  0.00     0.038 C 
ATOM     48  H24 KO1 d         -11.139   2.052  65.768  0.00  0.00     0.080 H 
ATOM     49  H25 KO1 d         -11.023   1.489  64.066  0.00  0.00     0.080 H 
BRANCH  47  50
ATOM     50  C10 KO1 d         -11.346   3.450  64.344  0.00  0.00    -0.089 C 
ATOM     51  C11 KO1 d         -10.950   4.737  64.740  0.00  0.00    -0.123 C 
ATOM     52  H27 KO1 d         -11.484   5.610  64.369  0.00  0.00     0.066 H 
ATOM     53  H28 KO1 d         -10.108   4.864  65.419  0.00  0.00     0.066 H 
ATOM     54  H26 KO1 d         -12.192   3.358  63.664  0.00  0.00     0.078 H 
ENDBRANCH  47  50
ENDBRANCH  46  47
ENDBRANCH   1  46
BRANCH   5  55
ATOM     55  C7  KO1 d          -8.189   5.566  67.531  0.00  0.00     0.083 C 
ATOM     56  H19 KO1 d          -8.893   6.210  66.983  0.00  0.00     0.090 H 
BRANCH  55  57
ATOM     57  O7  KO1 d          -6.871   5.791  66.982  0.00  0.00    -0.391 OA
ATOM     58  H20 KO1 d          -6.229   5.326  67.504  0.00  0.00     0.210 HD
ENDBRANCH  55  57
BRANCH  55  59
ATOM     59  C8  KO1 d          -8.225   6.017  69.022  0.00  0.00     0.043 C 
ATOM     60  H21 KO1 d          -8.872   5.328  69.584  0.00  0.00     0.078 H 
ATOM     61  H22 KO1 d          -8.641   7.034  69.075  0.00  0.00     0.078 H 
BRANCH  59  62
ATOM     62  O8  KO1 d          -6.906   6.018  69.626  0.00  0.00    -0.398 OA
ATOM     63  H23 KO1 d          -6.576   5.129  69.664  0.00  0.00     0.209 HD
ENDBRANCH  59  62
ENDBRANCH  55  59
ENDBRANCH   5  55
TORSDOF 19
ENDMDL
MODEL 7
REMARK VINA RESULT:      -4.1      1.753      4.656
REMARK  19 active torsions:
REMARK  status: ('A' for Active; 'I' for Inactive)
REMARK    1  A    between atoms: C2_4  and  C1_2 
REMARK    2  A    between atoms: O2_17  and  C2_4 
REMARK    3  A    between atoms: C6_6  and  C7_7 
REMARK    4  A    between atoms: C7_7  and  C8_8 
REMARK    5  A    between atoms: C7_7  and  O7_10 
REMARK    6  A    between atoms: C8_8  and  O8_9 
REMARK    7  A    between atoms: C5_11  and  O5_12 
REMARK    8  A    between atoms: C4_13  and  O4_14 
REMARK    9  A    between atoms: C3_15  and  O3_16 
REMARK   10  A    between atoms: C4_23  and  O2_17 
REMARK   11  A    between atoms: C2_21  and  C1_18 
REMARK   12  A    between atoms: C2_21  and  O2_32 
REMARK   13  A    between atoms: C5_24  and  O5_25 
REMARK   14  A    between atoms: C6_26  and  C7_28 
REMARK   15  A    between atoms: C7_28  and  O7_29 
REMARK   16  A    between atoms: C7_28  and  C8_30 
REMARK   17  A    between atoms: C8_30  and  O8_31 
REMARK   18  A    between atoms: O2_32  and  C9_33 
REMARK   19  A    between atoms: C9_33  and  C10_34 
ROOT
ATOM      1  C2  KO1 d          -9.285   0.338  71.082  0.00  0.00     0.259 C 
ATOM      2  C3  KO1 d          -8.780   0.947  69.737  0.00  0.00     0.024 C 
ATOM      3  C4  KO1 d          -8.025   2.296  69.853  0.00  0.00     0.075 C 
ATOM      4  C5  KO1 d          -8.715   3.377  70.725  0.00  0.00     0.088 C 
ATOM      5  C6  KO1 d          -9.048   2.728  72.103  0.00  0.00     0.096 C 
ATOM      6  O6  KO1 d          -9.740   1.421  71.944  0.00  0.00    -0.336 OA
ATOM      7  H13 KO1 d          -9.654   1.104  69.088  0.00  0.00     0.045 H 
ATOM      8  H14 KO1 d          -8.101   0.219  69.269  0.00  0.00     0.045 H 
ATOM      9  H15 KO1 d          -7.042   2.070  70.292  0.00  0.00     0.087 H 
ATOM     10  H16 KO1 d          -8.002   4.196  70.896  0.00  0.00     0.091 H 
ATOM     11  H18 KO1 d          -8.084   2.510  72.586  0.00  0.00     0.091 H 
ENDROOT
BRANCH   3  12
ATOM     12  O2  KO1 d          -7.829   2.962  68.565  0.00  0.00    -0.336 OA
BRANCH  12  13
ATOM     13  C2  KO1 d          -6.527   2.884  67.888  0.00  0.00     0.286 C 
ATOM     14  O6  KO1 d          -6.632   1.802  66.774  0.00  0.00    -0.334 OA
ATOM     15  C6  KO1 d          -7.830   2.093  65.900  0.00  0.00     0.096 C 
ATOM     16  C5  KO1 d          -7.593   3.408  65.155  0.00  0.00     0.090 C 
ATOM     17  H1  KO1 d          -8.741   2.200  66.508  0.00  0.00     0.091 H 
ATOM     18  C4  KO1 d          -7.449   4.551  66.195  0.00  0.00     0.093 C 
ATOM     19  H7  KO1 d          -8.441   3.616  64.486  0.00  0.00     0.091 H 
ATOM     20  C3  KO1 d          -6.337   4.304  67.260  0.00  0.00     0.127 C 
ATOM     21  H9  KO1 d          -8.407   4.649  66.727  0.00  0.00     0.091 H 
ATOM     22  H11 KO1 d          -6.396   5.090  68.027  0.00  0.00     0.096 H 
BRANCH  13  23
ATOM     23  C1  KO1 d          -5.289   2.539  68.746  0.00  0.00     0.241 C 
ATOM     24  OA1 KO1 d          -4.613   3.465  69.271  0.00  0.00    -0.644 OA
ATOM     25  O1B KO1 d          -4.996   1.354  68.912  0.00  0.00    -0.644 OA
ENDBRANCH  13  23
BRANCH  15  26
ATOM     26  C7  KO1 d          -7.947   0.816  65.015  0.00  0.00     0.083 C 
ATOM     27  H2  KO1 d          -7.343   0.014  65.465  0.00  0.00     0.090 H 
BRANCH  26  28
ATOM     28  C8  KO1 d          -9.389   0.277  64.913  0.00  0.00     0.043 C 
ATOM     29  H3  KO1 d          -9.471  -0.524  64.163  0.00  0.00     0.078 H 
ATOM     30  H4  KO1 d         -10.105   1.077  64.675  0.00  0.00     0.078 H 
BRANCH  28  31
ATOM     31  O8  KO1 d          -9.577  -0.227  66.254  0.00  0.00    -0.398 OA
ATOM     32  H5  KO1 d         -10.013  -1.070  66.217  0.00  0.00     0.209 HD
ENDBRANCH  28  31
ENDBRANCH  26  28
BRANCH  26  33
ATOM     33  O7  KO1 d          -7.344   1.194  63.787  0.00  0.00    -0.391 OA
ATOM     34  H6  KO1 d          -7.894   1.834  63.349  0.00  0.00     0.210 HD
ENDBRANCH  26  33
ENDBRANCH  15  26
BRANCH  16  35
ATOM     35  O5  KO1 d          -6.380   3.312  64.387  0.00  0.00    -0.390 OA
ATOM     36  H8  KO1 d          -5.916   4.140  64.425  0.00  0.00     0.210 HD
ENDBRANCH  16  35
BRANCH  18  37
ATOM     37  O4  KO1 d          -7.185   5.752  65.508  0.00  0.00    -0.390 OA
ATOM     38  H10 KO1 d          -6.325   6.074  65.753  0.00  0.00     0.210 HD
ENDBRANCH  18  37
BRANCH  20  39
ATOM     39  O3  KO1 d          -5.028   4.235  66.732  0.00  0.00    -0.387 OA
ATOM     40  H12 KO1 d          -4.939   4.865  66.026  0.00  0.00     0.210 HD
ENDBRANCH  20  39
ENDBRANCH  12  13
ENDBRANCH   3  12
BRANCH   4  41
ATOM     41  O5  KO1 d          -9.878   3.945  70.049  0.00  0.00    -0.390 OA
ATOM     42  H17 KO1 d         -10.646   3.424  70.250  0.00  0.00     0.210 HD
ENDBRANCH   4  41
BRANCH   1  43
ATOM     43  C1  KO1 d         -10.475  -0.598  70.695  0.00  0.00     0.239 C 
ATOM     44  O1A KO1 d         -11.045  -1.170  71.664  0.00  0.00    -0.644 OA
ATOM     45  O1B KO1 d         -10.794  -0.752  69.469  0.00  0.00    -0.644 OA
ENDBRANCH   1  43
BRANCH   1  46
ATOM     46  O2  KO1 d          -8.273  -0.350  71.854  0.00  0.00    -0.343 OA
BRANCH  46  47
ATOM     47  C9  KO1 d          -6.967  -0.469  72.319  0.00  0.00     0.038 C 
ATOM     48  H24 KO1 d          -7.023  -1.177  73.159  0.00  0.00     0.080 H 
ATOM     49  H25 KO1 d          -6.703   0.530  72.697  0.00  0.00     0.080 H 
BRANCH  47  50
ATOM     50  C10 KO1 d          -5.850  -0.884  71.558  0.00  0.00    -0.089 C 
ATOM     51  C11 KO1 d          -5.929  -1.799  70.495  0.00  0.00    -0.123 C 
ATOM     52  H27 KO1 d          -5.030  -2.078  69.949  0.00  0.00     0.066 H 
ATOM     53  H28 KO1 d          -6.890  -2.230  70.218  0.00  0.00     0.066 H 
ATOM     54  H26 KO1 d          -4.873  -0.471  71.810  0.00  0.00     0.078 H 
ENDBRANCH  47  50
ENDBRANCH  46  47
ENDBRANCH   1  46
BRANCH   5  55
ATOM     55  C7  KO1 d          -9.796   3.703  73.054  0.00  0.00     0.083 C 
ATOM     56  H19 KO1 d         -10.009   3.144  73.978  0.00  0.00     0.090 H 
BRANCH  55  57
ATOM     57  O7  KO1 d         -11.062   4.111  72.487  0.00  0.00    -0.391 OA
ATOM     58  H20 KO1 d         -11.371   4.889  72.936  0.00  0.00     0.210 HD
ENDBRANCH  55  57
BRANCH  55  59
ATOM     59  C8  KO1 d          -8.968   4.958  73.460  0.00  0.00     0.043 C 
ATOM     60  H21 KO1 d          -9.394   5.379  74.382  0.00  0.00     0.078 H 
ATOM     61  H22 KO1 d          -9.033   5.702  72.653  0.00  0.00     0.078 H 
BRANCH  59  62
ATOM     62  O8  KO1 d          -7.571   4.641  73.692  0.00  0.00    -0.398 OA
ATOM     63  H23 KO1 d          -7.255   4.079  72.993  0.00  0.00     0.209 HD
ENDBRANCH  59  62
ENDBRANCH  55  59
ENDBRANCH   5  55
TORSDOF 19
ENDMDL
MODEL 8
REMARK VINA RESULT:      -3.9      1.952      3.558
REMARK  19 active torsions:
REMARK  status: ('A' for Active; 'I' for Inactive)
REMARK    1  A    between atoms: C2_4  and  C1_2 
REMARK    2  A    between atoms: O2_17  and  C2_4 
REMARK    3  A    between atoms: C6_6  and  C7_7 
REMARK    4  A    between atoms: C7_7  and  C8_8 
REMARK    5  A    between atoms: C7_7  and  O7_10 
REMARK    6  A    between atoms: C8_8  and  O8_9 
REMARK    7  A    between atoms: C5_11  and  O5_12 
REMARK    8  A    between atoms: C4_13  and  O4_14 
REMARK    9  A    between atoms: C3_15  and  O3_16 
REMARK   10  A    between atoms: C4_23  and  O2_17 
REMARK   11  A    between atoms: C2_21  and  C1_18 
REMARK   12  A    between atoms: C2_21  and  O2_32 
REMARK   13  A    between atoms: C5_24  and  O5_25 
REMARK   14  A    between atoms: C6_26  and  C7_28 
REMARK   15  A    between atoms: C7_28  and  O7_29 
REMARK   16  A    between atoms: C7_28  and  C8_30 
REMARK   17  A    between atoms: C8_30  and  O8_31 
REMARK   18  A    between atoms: O2_32  and  C9_33 
REMARK   19  A    between atoms: C9_33  and  C10_34 
ROOT
ATOM      1  C2  KO1 d          -8.467   3.658  70.261  0.00  0.00     0.259 C 
ATOM      2  C3  KO1 d          -8.515   3.994  68.737  0.00  0.00     0.024 C 
ATOM      3  C4  KO1 d          -7.884   2.936  67.797  0.00  0.00     0.075 C 
ATOM      4  C5  KO1 d          -6.477   2.430  68.206  0.00  0.00     0.088 C 
ATOM      5  C6  KO1 d          -6.556   1.973  69.695  0.00  0.00     0.096 C 
ATOM      6  O6  KO1 d          -7.199   3.002  70.554  0.00  0.00    -0.336 OA
ATOM      7  H13 KO1 d          -7.982   4.944  68.584  0.00  0.00     0.045 H 
ATOM      8  H14 KO1 d          -9.571   4.115  68.451  0.00  0.00     0.045 H 
ATOM      9  H15 KO1 d          -8.572   2.078  67.780  0.00  0.00     0.087 H 
ATOM     10  H16 KO1 d          -6.227   1.553  67.592  0.00  0.00     0.091 H 
ATOM     11  H18 KO1 d          -7.219   1.095  69.716  0.00  0.00     0.091 H 
ENDROOT
BRANCH   3  12
ATOM     12  O2  KO1 d          -7.694   3.419  66.429  0.00  0.00    -0.336 OA
BRANCH  12  13
ATOM     13  C2  KO1 d          -7.952   2.524  65.291  0.00  0.00     0.286 C 
ATOM     14  O6  KO1 d          -8.705   1.272  65.829  0.00  0.00    -0.334 OA
ATOM     15  C6  KO1 d          -9.910   1.713  66.626  0.00  0.00     0.096 C 
ATOM     16  C5  KO1 d         -10.902   2.400  65.685  0.00  0.00     0.090 C 
ATOM     17  H1  KO1 d          -9.622   2.432  67.407  0.00  0.00     0.091 H 
ATOM     18  C4  KO1 d         -10.225   3.657  65.076  0.00  0.00     0.093 C 
ATOM     19  H7  KO1 d         -11.804   2.695  66.243  0.00  0.00     0.091 H 
ATOM     20  C3  KO1 d          -8.878   3.361  64.348  0.00  0.00     0.127 C 
ATOM     21  H9  KO1 d         -10.016   4.360  65.895  0.00  0.00     0.091 H 
ATOM     22  H11 KO1 d          -8.406   4.314  64.070  0.00  0.00     0.096 H 
BRANCH  13  23
ATOM     23  C1  KO1 d          -6.735   2.016  64.486  0.00  0.00     0.241 C 
ATOM     24  OA1 KO1 d          -6.124   2.801  63.711  0.00  0.00    -0.644 OA
ATOM     25  O1B KO1 d          -6.376   0.846  64.632  0.00  0.00    -0.644 OA
ENDBRANCH  13  23
BRANCH  15  26
ATOM     26  C7  KO1 d         -10.401   0.394  67.294  0.00  0.00     0.083 C 
ATOM     27  H2  KO1 d         -10.925  -0.213  66.542  0.00  0.00     0.090 H 
BRANCH  26  28
ATOM     28  C8  KO1 d          -9.249  -0.477  67.837  0.00  0.00     0.043 C 
ATOM     29  H3  KO1 d          -8.778  -0.023  68.722  0.00  0.00     0.078 H 
ATOM     30  H4  KO1 d          -8.484  -0.663  67.069  0.00  0.00     0.078 H 
BRANCH  28  31
ATOM     31  O8  KO1 d          -9.969  -1.683  68.176  0.00  0.00    -0.398 OA
ATOM     32  H5  KO1 d          -9.369  -2.420  68.176  0.00  0.00     0.209 HD
ENDBRANCH  28  31
ENDBRANCH  26  28
BRANCH  26  33
ATOM     33  O7  KO1 d         -11.348   0.829  68.257  0.00  0.00    -0.391 OA
ATOM     34  H6  KO1 d         -11.119   0.474  69.109  0.00  0.00     0.210 HD
ENDBRANCH  26  33
ENDBRANCH  15  26
BRANCH  16  35
ATOM     35  O5  KO1 d         -11.262   1.495  64.625  0.00  0.00    -0.390 OA
ATOM     36  H8  KO1 d         -10.850   1.777  63.816  0.00  0.00     0.210 HD
ENDBRANCH  16  35
BRANCH  18  37
ATOM     37  O4  KO1 d         -11.125   4.260  64.176  0.00  0.00    -0.390 OA
ATOM     38  H10 KO1 d         -10.744   5.063  63.840  0.00  0.00     0.210 HD
ENDBRANCH  18  37
BRANCH  20  39
ATOM     39  O3  KO1 d          -8.999   2.526  63.214  0.00  0.00    -0.387 OA
ATOM     40  H12 KO1 d          -9.170   3.059  62.447  0.00  0.00     0.210 HD
ENDBRANCH  20  39
ENDBRANCH  12  13
ENDBRANCH   3  12
BRANCH   4  41
ATOM     41  O5  KO1 d          -5.453   3.441  67.959  0.00  0.00    -0.390 OA
ATOM     42  H17 KO1 d          -5.125   3.768  68.788  0.00  0.00     0.210 HD
ENDBRANCH   4  41
BRANCH   1  43
ATOM     43  C1  KO1 d          -8.560   5.035  70.994  0.00  0.00     0.239 C 
ATOM     44  O1A KO1 d          -7.515   5.739  70.947  0.00  0.00    -0.644 OA
ATOM     45  O1B KO1 d          -9.634   5.365  71.600  0.00  0.00    -0.644 OA
ENDBRANCH   1  43
BRANCH   1  46
ATOM     46  O2  KO1 d          -9.479   2.726  70.708  0.00  0.00    -0.343 OA
BRANCH  46  47
ATOM     47  C9  KO1 d         -10.105   1.998  71.715  0.00  0.00     0.038 C 
ATOM     48  H24 KO1 d         -10.426   2.746  72.455  0.00  0.00     0.080 H 
ATOM     49  H25 KO1 d          -9.316   1.367  72.148  0.00  0.00     0.080 H 
BRANCH  47  50
ATOM     50  C10 KO1 d         -11.217   1.140  71.549  0.00  0.00    -0.089 C 
ATOM     51  C11 KO1 d         -11.170  -0.246  71.774  0.00  0.00    -0.123 C 
ATOM     52  H27 KO1 d         -12.062  -0.852  71.628  0.00  0.00     0.066 H 
ATOM     53  H28 KO1 d         -10.240  -0.714  72.094  0.00  0.00     0.066 H 
ATOM     54  H26 KO1 d         -12.162   1.577  71.230  0.00  0.00     0.078 H 
ENDBRANCH  47  50
ENDBRANCH  46  47
ENDBRANCH   1  46
BRANCH   5  55
ATOM     55  C7  KO1 d          -5.184   1.491  70.243  0.00  0.00     0.083 C 
ATOM     56  H19 KO1 d          -4.482   2.329  70.121  0.00  0.00     0.090 H 
BRANCH  55  57
ATOM     57  O7  KO1 d          -4.678   0.379  69.471  0.00  0.00    -0.391 OA
ATOM     58  H20 KO1 d          -4.146   0.709  68.756  0.00  0.00     0.210 HD
ENDBRANCH  55  57
BRANCH  55  59
ATOM     59  C8  KO1 d          -5.197   1.123  71.757  0.00  0.00     0.043 C 
ATOM     60  H21 KO1 d          -4.964   2.024  72.342  0.00  0.00     0.078 H 
ATOM     61  H22 KO1 d          -4.429   0.357  71.942  0.00  0.00     0.078 H 
BRANCH  59  62
ATOM     62  O8  KO1 d          -6.484   0.607  72.185  0.00  0.00    -0.398 OA
ATOM     63  H23 KO1 d          -7.141   1.286  72.093  0.00  0.00     0.209 HD
ENDBRANCH  59  62
ENDBRANCH  55  59
ENDBRANCH   5  55
TORSDOF 19
ENDMDL
MODEL 9
REMARK VINA RESULT:      -3.8      1.636      7.087
REMARK  19 active torsions:
REMARK  status: ('A' for Active; 'I' for Inactive)
REMARK    1  A    between atoms: C2_4  and  C1_2 
REMARK    2  A    between atoms: O2_17  and  C2_4 
REMARK    3  A    between atoms: C6_6  and  C7_7 
REMARK    4  A    between atoms: C7_7  and  C8_8 
REMARK    5  A    between atoms: C7_7  and  O7_10 
REMARK    6  A    between atoms: C8_8  and  O8_9 
REMARK    7  A    between atoms: C5_11  and  O5_12 
REMARK    8  A    between atoms: C4_13  and  O4_14 
REMARK    9  A    between atoms: C3_15  and  O3_16 
REMARK   10  A    between atoms: C4_23  and  O2_17 
REMARK   11  A    between atoms: C2_21  and  C1_18 
REMARK   12  A    between atoms: C2_21  and  O2_32 
REMARK   13  A    between atoms: C5_24  and  O5_25 
REMARK   14  A    between atoms: C6_26  and  C7_28 
REMARK   15  A    between atoms: C7_28  and  O7_29 
REMARK   16  A    between atoms: C7_28  and  C8_30 
REMARK   17  A    between atoms: C8_30  and  O8_31 
REMARK   18  A    between atoms: O2_32  and  C9_33 
REMARK   19  A    between atoms: C9_33  and  C10_34 
ROOT
ATOM      1  C2  KO1 d          -9.636   2.025  66.536  0.00  0.00     0.259 C 
ATOM      2  C3  KO1 d          -9.221   1.395  67.903  0.00  0.00     0.024 C 
ATOM      3  C4  KO1 d          -8.393   2.311  68.840  0.00  0.00     0.075 C 
ATOM      4  C5  KO1 d          -7.192   3.036  68.178  0.00  0.00     0.088 C 
ATOM      5  C6  KO1 d          -7.724   3.763  66.905  0.00  0.00     0.096 C 
ATOM      6  O6  KO1 d          -8.541   2.858  66.054  0.00  0.00    -0.336 OA
ATOM      7  H13 KO1 d          -8.622   0.496  67.693  0.00  0.00     0.045 H 
ATOM      8  H14 KO1 d         -10.139   1.108  68.436  0.00  0.00     0.045 H 
ATOM      9  H15 KO1 d          -9.085   3.071  69.231  0.00  0.00     0.087 H 
ATOM     10  H16 KO1 d          -6.815   3.798  68.875  0.00  0.00     0.091 H 
ATOM     11  H18 KO1 d          -8.405   4.552  67.259  0.00  0.00     0.091 H 
ENDROOT
BRANCH   3  12
ATOM     12  O2  KO1 d          -7.789   1.595  69.963  0.00  0.00    -0.336 OA
BRANCH  12  13
ATOM     13  C2  KO1 d          -8.404   1.666  71.297  0.00  0.00     0.286 C 
ATOM     14  O6  KO1 d          -9.653   0.736  71.297  0.00  0.00    -0.334 OA
ATOM     15  C6  KO1 d          -9.258  -0.638  70.809  0.00  0.00     0.096 C 
ATOM     16  C5  KO1 d          -8.296  -1.265  71.820  0.00  0.00     0.090 C 
ATOM     17  H1  KO1 d          -8.745  -0.576  69.837  0.00  0.00     0.091 H 
ATOM     18  C4  KO1 d          -7.020  -0.385  71.907  0.00  0.00     0.093 C 
ATOM     19  H7  KO1 d          -8.027  -2.282  71.498  0.00  0.00     0.091 H 
ATOM     20  C3  KO1 d          -7.302   1.109  72.257  0.00  0.00     0.127 C 
ATOM     21  H9  KO1 d          -6.522  -0.412  70.927  0.00  0.00     0.091 H 
ATOM     22  H11 KO1 d          -6.367   1.680  72.164  0.00  0.00     0.096 H 
BRANCH  13  23
ATOM     23  C1  KO1 d          -8.864   3.052  71.803  0.00  0.00     0.241 C 
ATOM     24  OA1 KO1 d          -8.010   3.952  72.026  0.00  0.00    -0.644 OA
ATOM     25  O1B KO1 d         -10.069   3.252  71.966  0.00  0.00    -0.644 OA
ENDBRANCH  13  23
BRANCH  15  26
ATOM     26  C7  KO1 d         -10.626  -1.360  70.626  0.00  0.00     0.083 C 
ATOM     27  H2  KO1 d         -11.387  -0.838  71.224  0.00  0.00     0.090 H 
BRANCH  26  28
ATOM     28  C8  KO1 d         -11.129  -1.351  69.168  0.00  0.00     0.043 C 
ATOM     29  H3  KO1 d         -11.308  -0.328  68.806  0.00  0.00     0.078 H 
ATOM     30  H4  KO1 d         -12.045  -1.948  69.050  0.00  0.00     0.078 H 
BRANCH  28  31
ATOM     31  O8  KO1 d         -10.004  -1.964  68.499  0.00  0.00    -0.398 OA
ATOM     32  H5  KO1 d          -9.534  -2.517  69.112  0.00  0.00     0.209 HD
ENDBRANCH  28  31
ENDBRANCH  26  28
BRANCH  26  33
ATOM     33  O7  KO1 d         -10.415  -2.644  71.195  0.00  0.00    -0.391 OA
ATOM     34  H6  KO1 d         -10.183  -3.259  70.508  0.00  0.00     0.210 HD
ENDBRANCH  26  33
ENDBRANCH  15  26
BRANCH  16  35
ATOM     35  O5  KO1 d          -8.925  -1.315  73.113  0.00  0.00    -0.390 OA
ATOM     36  H8  KO1 d          -9.701  -1.862  73.065  0.00  0.00     0.210 HD
ENDBRANCH  16  35
BRANCH  18  37
ATOM     37  O4  KO1 d          -6.157  -0.940  72.872  0.00  0.00    -0.390 OA
ATOM     38  H10 KO1 d          -5.523  -1.502  72.442  0.00  0.00     0.210 HD
ENDBRANCH  18  37
BRANCH  20  39
ATOM     39  O3  KO1 d          -7.874   1.311  73.533  0.00  0.00    -0.387 OA
ATOM     40  H12 KO1 d          -7.572   0.632  74.125  0.00  0.00     0.210 HD
ENDBRANCH  20  39
ENDBRANCH  12  13
ENDBRANCH   3  12
BRANCH   4  41
ATOM     41  O5  KO1 d          -6.094   2.112  67.908  0.00  0.00    -0.390 OA
ATOM     42  H17 KO1 d          -6.447   1.262  67.671  0.00  0.00     0.210 HD
ENDBRANCH   4  41
BRANCH   1  43
ATOM     43  C1  KO1 d          -9.874   0.815  65.576  0.00  0.00     0.239 C 
ATOM     44  O1A KO1 d         -10.505   1.087  64.518  0.00  0.00    -0.644 OA
ATOM     45  O1B KO1 d          -9.458  -0.348  65.897  0.00  0.00    -0.644 OA
ENDBRANCH   1  43
BRANCH   1  46
ATOM     46  O2  KO1 d         -10.777   2.912  66.599  0.00  0.00    -0.343 OA
BRANCH  46  47
ATOM     47  C9  KO1 d         -11.348   4.173  66.466  0.00  0.00     0.038 C 
ATOM     48  H24 KO1 d         -12.435   4.002  66.493  0.00  0.00     0.080 H 
ATOM     49  H25 KO1 d         -11.056   4.518  65.463  0.00  0.00     0.080 H 
BRANCH  47  50
ATOM     50  C10 KO1 d         -11.125   5.280  67.317  0.00  0.00    -0.089 C 
ATOM     51  C11 KO1 d         -10.721   5.161  68.657  0.00  0.00    -0.123 C 
ATOM     52  H27 KO1 d         -10.566   6.054  69.260  0.00  0.00     0.066 H 
ATOM     53  H28 KO1 d         -10.563   4.175  69.093  0.00  0.00     0.066 H 
ATOM     54  H26 KO1 d         -11.275   6.280  66.912  0.00  0.00     0.078 H 
ENDBRANCH  47  50
ENDBRANCH  46  47
ENDBRANCH   1  46
BRANCH   5  55
ATOM     55  C7  KO1 d          -6.597   4.487  66.119  0.00  0.00     0.083 C 
ATOM     56  H19 KO1 d          -5.871   4.847  66.864  0.00  0.00     0.090 H 
BRANCH  55  57
ATOM     57  O7  KO1 d          -7.112   5.640  65.416  0.00  0.00    -0.391 OA
ATOM     58  H20 KO1 d          -7.823   6.022  65.915  0.00  0.00     0.210 HD
ENDBRANCH  55  57
BRANCH  55  59
ATOM     59  C8  KO1 d          -5.818   3.568  65.131  0.00  0.00     0.043 C 
ATOM     60  H21 KO1 d          -5.607   2.611  65.630  0.00  0.00     0.078 H 
ATOM     61  H22 KO1 d          -4.871   4.058  64.863  0.00  0.00     0.078 H 
BRANCH  59  62
ATOM     62  O8  KO1 d          -6.570   3.307  63.917  0.00  0.00    -0.398 OA
ATOM     63  H23 KO1 d          -6.663   4.114  63.425  0.00  0.00     0.209 HD
ENDBRANCH  59  62
ENDBRANCH  55  59
ENDBRANCH   5  55
TORSDOF 19
ENDMDL
MODEL 10
REMARK VINA RESULT:      -3.8      1.719      3.515
REMARK  19 active torsions:
REMARK  status: ('A' for Active; 'I' for Inactive)
REMARK    1  A    between atoms: C2_4  and  C1_2 
REMARK    2  A    between atoms: O2_17  and  C2_4 
REMARK    3  A    between atoms: C6_6  and  C7_7 
REMARK    4  A    between atoms: C7_7  and  C8_8 
REMARK    5  A    between atoms: C7_7  and  O7_10 
REMARK    6  A    between atoms: C8_8  and  O8_9 
REMARK    7  A    between atoms: C5_11  and  O5_12 
REMARK    8  A    between atoms: C4_13  and  O4_14 
REMARK    9  A    between atoms: C3_15  and  O3_16 
REMARK   10  A    between atoms: C4_23  and  O2_17 
REMARK   11  A    between atoms: C2_21  and  C1_18 
REMARK   12  A    between atoms: C2_21  and  O2_32 
REMARK   13  A    between atoms: C5_24  and  O5_25 
REMARK   14  A    between atoms: C6_26  and  C7_28 
REMARK   15  A    between atoms: C7_28  and  O7_29 
REMARK   16  A    between atoms: C7_28  and  C8_30 
REMARK   17  A    between atoms: C8_30  and  O8_31 
REMARK   18  A    between atoms: O2_32  and  C9_33 
REMARK   19  A    between atoms: C9_33  and  C10_34 
ROOT
ATOM      1  C2  KO1 d          -8.346   2.594  72.174  0.00  0.00     0.259 C 
ATOM      2  C3  KO1 d          -8.669   3.136  70.747  0.00  0.00     0.024 C 
ATOM      3  C4  KO1 d          -8.142   2.279  69.568  0.00  0.00     0.075 C 
ATOM      4  C5  KO1 d          -6.658   1.841  69.669  0.00  0.00     0.088 C 
ATOM      5  C6  KO1 d          -6.459   1.172  71.065  0.00  0.00     0.096 C 
ATOM      6  O6  KO1 d          -7.010   2.012  72.161  0.00  0.00    -0.336 OA
ATOM      7  H13 KO1 d          -8.227   4.140  70.659  0.00  0.00     0.045 H 
ATOM      8  H14 KO1 d          -9.763   3.207  70.651  0.00  0.00     0.045 H 
ATOM      9  H15 KO1 d          -8.770   1.377  69.528  0.00  0.00     0.087 H 
ATOM     10  H16 KO1 d          -6.463   1.084  68.897  0.00  0.00     0.091 H 
ATOM     11  H18 KO1 d          -7.055   0.248  71.055  0.00  0.00     0.091 H 
ENDROOT
BRANCH   3  12
ATOM     12  O2  KO1 d          -8.213   2.964  68.277  0.00  0.00    -0.336 OA
BRANCH  12  13
ATOM     13  C2  KO1 d          -9.395   2.794  67.419  0.00  0.00     0.286 C 
ATOM     14  O6  KO1 d          -8.907   2.739  65.941  0.00  0.00    -0.334 OA
ATOM     15  C6  KO1 d          -7.821   1.698  65.808  0.00  0.00     0.096 C 
ATOM     16  C5  KO1 d          -8.423   0.317  66.079  0.00  0.00     0.090 C 
ATOM     17  H1  KO1 d          -7.018   1.873  66.538  0.00  0.00     0.091 H 
ATOM     18  C4  KO1 d          -8.963   0.286  67.534  0.00  0.00     0.093 C 
ATOM     19  H7  KO1 d          -7.653  -0.458  65.949  0.00  0.00     0.091 H 
ATOM     20  C3  KO1 d          -9.989   1.415  67.855  0.00  0.00     0.127 C 
ATOM     21  H9  KO1 d          -8.108   0.405  68.216  0.00  0.00     0.091 H 
ATOM     22  H11 KO1 d         -10.213   1.400  68.931  0.00  0.00     0.096 H 
BRANCH  13  23
ATOM     23  C1  KO1 d         -10.501   3.871  67.497  0.00  0.00     0.241 C 
ATOM     24  OA1 KO1 d         -10.976   4.201  68.617  0.00  0.00    -0.644 OA
ATOM     25  O1B KO1 d         -10.887   4.399  66.452  0.00  0.00    -0.644 OA
ENDBRANCH  13  23
BRANCH  15  26
ATOM     26  C7  KO1 d          -7.272   1.935  64.369  0.00  0.00     0.083 C 
ATOM     27  H2  KO1 d          -8.065   1.703  63.643  0.00  0.00     0.090 H 
BRANCH  26  28
ATOM     28  C8  KO1 d          -6.852   3.397  64.112  0.00  0.00     0.043 C 
ATOM     29  H3  KO1 d          -6.005   3.459  63.413  0.00  0.00     0.078 H 
ATOM     30  H4  KO1 d          -6.596   3.916  65.047  0.00  0.00     0.078 H 
BRANCH  28  31
ATOM     31  O8  KO1 d          -8.066   3.920  63.527  0.00  0.00    -0.398 OA
ATOM     32  H5  KO1 d          -8.494   3.236  63.024  0.00  0.00     0.209 HD
ENDBRANCH  28  31
ENDBRANCH  26  28
BRANCH  26  33
ATOM     33  O7  KO1 d          -6.243   0.967  64.231  0.00  0.00    -0.391 OA
ATOM     34  H6  KO1 d          -5.418   1.340  64.519  0.00  0.00     0.210 HD
ENDBRANCH  26  33
ENDBRANCH  15  26
BRANCH  16  35
ATOM     35  O5  KO1 d          -9.510   0.080  65.166  0.00  0.00    -0.390 OA
ATOM     36  H8  KO1 d         -10.074  -0.599  65.517  0.00  0.00     0.210 HD
ENDBRANCH  16  35
BRANCH  18  37
ATOM     37  O4  KO1 d          -9.557  -0.971  67.765  0.00  0.00    -0.390 OA
ATOM     38  H10 KO1 d         -10.457  -0.954  67.463  0.00  0.00     0.210 HD
ENDBRANCH  18  37
BRANCH  20  39
ATOM     39  O3  KO1 d         -11.186   1.345  67.106  0.00  0.00    -0.387 OA
ATOM     40  H12 KO1 d         -11.746   2.077  67.337  0.00  0.00     0.210 HD
ENDBRANCH  20  39
ENDBRANCH  12  13
ENDBRANCH   3  12
BRANCH   4  41
ATOM     41  O5  KO1 d          -5.753   2.959  69.422  0.00  0.00    -0.390 OA
ATOM     42  H17 KO1 d          -6.059   3.454  68.671  0.00  0.00     0.210 HD
ENDBRANCH   4  41
BRANCH   1  43
ATOM     43  C1  KO1 d          -8.398   3.840  73.115  0.00  0.00     0.239 C 
ATOM     44  O1A KO1 d          -9.531   4.385  73.221  0.00  0.00    -0.644 OA
ATOM     45  O1B KO1 d          -7.337   4.248  73.695  0.00  0.00    -0.644 OA
ENDBRANCH   1  43
BRANCH   1  46
ATOM     46  O2  KO1 d          -9.211   1.526  72.626  0.00  0.00    -0.343 OA
BRANCH  46  47
ATOM     47  C9  KO1 d          -9.702   0.228  72.520  0.00  0.00     0.038 C 
ATOM     48  H24 KO1 d          -9.515  -0.067  71.477  0.00  0.00     0.080 H 
ATOM     49  H25 KO1 d         -10.786   0.315  72.688  0.00  0.00     0.080 H 
BRANCH  47  50
ATOM     50  C10 KO1 d          -9.295  -0.880  73.298  0.00  0.00    -0.089 C 
ATOM     51  C11 KO1 d          -9.574  -2.213  72.958  0.00  0.00    -0.123 C 
ATOM     52  H27 KO1 d          -9.232  -3.022  73.602  0.00  0.00     0.066 H 
ATOM     53  H28 KO1 d         -10.134  -2.439  72.052  0.00  0.00     0.066 H 
ATOM     54  H26 KO1 d          -8.733  -0.688  74.212  0.00  0.00     0.078 H 
ENDBRANCH  47  50
ENDBRANCH  46  47
ENDBRANCH   1  46
BRANCH   5  55
ATOM     55  C7  KO1 d          -4.989   0.736  71.310  0.00  0.00     0.083 C 
ATOM     56  H19 KO1 d          -4.546   1.480  71.990  0.00  0.00     0.090 H 
BRANCH  55  57
ATOM     57  O7  KO1 d          -4.228   0.757  70.082  0.00  0.00    -0.391 OA
ATOM     58  H20 KO1 d          -3.906   1.637  69.926  0.00  0.00     0.210 HD
ENDBRANCH  55  57
BRANCH  55  59
ATOM     59  C8  KO1 d          -4.843  -0.654  71.999  0.00  0.00     0.043 C 
ATOM     60  H21 KO1 d          -5.293  -0.601  73.001  0.00  0.00     0.078 H 
ATOM     61  H22 KO1 d          -3.773  -0.895  72.090  0.00  0.00     0.078 H 
BRANCH  59  62
ATOM     62  O8  KO1 d          -5.497  -1.709  71.247  0.00  0.00    -0.398 OA
ATOM     63  H23 KO1 d          -5.019  -2.522  71.364  0.00  0.00     0.209 HD
ENDBRANCH  59  62
ENDBRANCH  55  59
ENDBRANCH   5  55
TORSDOF 19
ENDMDL
