MODEL 1
REMARK VINA RESULT:     -10.7      0.000      0.000
REMARK  12 active torsions:
REMARK  status: ('A' for Active; 'I' for Inactive)
REMARK    1  A    between atoms: C6_6  and  O19_13 
REMARK    2  A    between atoms: C10_7  and  C13_10 
REMARK    3  A    between atoms: C11_8  and  C14_11 
REMARK    4  A    between atoms: N12_9  and  C18_12 
REMARK    5  A    between atoms: C18_12  and  C24_18 
REMARK    6  A    between atoms: O19_13  and  C20_14 
REMARK    7  A    between atoms: C28_20  and  O36_25 
REMARK    8  A    between atoms: O36_25  and  C37_26 
REMARK    9  A    between atoms: C37_26  and  C38_27 
REMARK   10  A    between atoms: C37_26  and  C42_28 
REMARK   11  A    between atoms: C51_36  and  O57_39 
REMARK   12  A    between atoms: O57_39  and  C58_40 
ROOT
ATOM      1  C1  C03 d          15.243   4.917  15.770  0.00  0.00    -0.050 A 
ATOM      2  C2  C03 d          14.162   4.852  14.892  0.00  0.00    -0.067 A 
ATOM      3  C3  C03 d          14.458   4.813  13.370  0.00  0.00     0.005 A 
ATOM      4  C4  C03 d          15.708   4.851  12.871  0.00  0.00     0.049 A 
ATOM      5  C5  C03 d          16.813   4.920  13.782  0.00  0.00    -0.024 A 
ATOM      6  C6  C03 d          16.585   4.950  15.236  0.00  0.00     0.080 A 
ATOM      7  C10 C03 d          13.419   4.738  12.386  0.00  0.00     0.031 A 
ATOM      8  C11 C03 d          14.197   4.740  11.202  0.00  0.00     0.022 A 
ATOM      9  N12 C03 d          15.611   4.812  11.464  0.00  0.00    -0.345 N 
ATOM     10  H1  C03 d          15.079   4.944  16.841  0.00  0.00     0.087 H 
ATOM     11  H2  C03 d          13.144   4.828  15.264  0.00  0.00     0.085 H 
ATOM     12  H3  C03 d          17.826   4.949  13.396  0.00  0.00     0.091 H 
ENDROOT
BRANCH   9  13
ATOM     13  C18 C03 d          16.768   4.840  10.521  0.00  0.00     0.025 C 
ATOM     14  H7  C03 d          16.496   4.262   9.627  0.00  0.00     0.072 H 
ATOM     15  H8  C03 d          17.627   4.366  11.018  0.00  0.00     0.072 H 
BRANCH  13  16
ATOM     16  C24 C03 d          17.198   6.269  10.066  0.00  0.00    -0.016 A 
ATOM     17  C27 C03 d          16.426   7.443  10.482  0.00  0.00    -0.041 A 
ATOM     18  C28 C03 d          16.776   8.783  10.091  0.00  0.00     0.070 A 
ATOM     19  H9  C03 d          15.555   7.296  11.110  0.00  0.00     0.088 H 
ATOM     20  C29 C03 d          17.936   8.973   9.251  0.00  0.00    -0.049 A 
ATOM     21  C30 C03 d          18.722   7.853   8.820  0.00  0.00    -0.059 A 
ATOM     22  H10 C03 d          18.216   9.973   8.942  0.00  0.00     0.087 H 
ATOM     23  C31 C03 d          18.363   6.522   9.222  0.00  0.00     0.042 A 
ATOM     24  H11 C03 d          19.589   8.013   8.190  0.00  0.00     0.086 H 
ATOM     25 CL1  C03 d          19.385   5.281   8.645  0.00  0.00    -0.084 Cl
BRANCH  18  26
ATOM     26  O36 C03 d          15.943   9.835  10.589  0.00  0.00    -0.336 OA
BRANCH  26  27
ATOM     27  C37 C03 d          15.250  10.780   9.742  0.00  0.00     0.125 C 
ATOM     28  H12 C03 d          15.981  11.439   9.251  0.00  0.00     0.100 H 
BRANCH  27  29
ATOM     29  C38 C03 d          14.302  11.569  10.657  0.00  0.00    -0.042 C 
ATOM     30  H13 C03 d          14.663  12.604  10.754  0.00  0.00     0.031 H 
ATOM     31  H14 C03 d          14.272  11.096  11.650  0.00  0.00     0.031 H 
ATOM     32  H15 C03 d          13.292  11.573  10.222  0.00  0.00     0.031 H 
ENDBRANCH  27  29
BRANCH  27  33
ATOM     33  C42 C03 d          14.332  10.151   8.696  0.00  0.00     0.203 C 
ATOM     34  O44 C03 d          14.474  10.300   7.537  0.00  0.00    -0.646 OA
ATOM     35  O45 C03 d          13.344   9.423   9.254  0.00  0.00    -0.646 OA
ENDBRANCH  27  33
ENDBRANCH  26  27
ENDBRANCH  18  26
ENDBRANCH  13  16
ENDBRANCH   9  13
BRANCH   8  36
ATOM     36  C14 C03 d          13.634   4.679   9.784  0.00  0.00    -0.036 C 
ATOM     37  H4  C03 d          14.240   5.315   9.121  0.00  0.00     0.035 H 
ATOM     38  H5  C03 d          12.594   5.037   9.787  0.00  0.00     0.035 H 
ATOM     39  H6  C03 d          13.663   3.640   9.423  0.00  0.00     0.035 H 
ENDBRANCH   8  36
BRANCH   7  40
ATOM     40  C13 C03 d          11.917   4.678  12.611  0.00  0.00     0.110 A 
ATOM     41  N46 C03 d          10.877   5.394  12.072  0.00  0.00    -0.126 NA
ATOM     42  O47 C03 d           9.668   5.029  12.579  0.00  0.00    -0.212 OA
ATOM     43  C48 C03 d           9.850   4.039  13.491  0.00  0.00     0.116 A 
ATOM     44  C49 C03 d          11.257   3.789  13.527  0.00  0.00     0.032 A 
ATOM     45  C50 C03 d           8.929   3.345  14.285  0.00  0.00    -0.015 A 
ATOM     46  C53 C03 d          11.716   2.718  14.468  0.00  0.00    -0.065 A 
ATOM     47  C52 C03 d          10.797   2.009  15.275  0.00  0.00    -0.050 A 
ATOM     48  H18 C03 d          12.773   2.483  14.531  0.00  0.00     0.085 H 
ATOM     49  C51 C03 d           9.400   2.305  15.208  0.00  0.00     0.070 A 
ATOM     50  H17 C03 d          11.154   1.238  15.948  0.00  0.00     0.087 H 
ATOM     51  H16 C03 d           7.871   3.575  14.219  0.00  0.00     0.092 H 
BRANCH  49  52
ATOM     52  O57 C03 d           8.428   1.663  15.967  0.00  0.00    -0.356 OA
BRANCH  52  53
ATOM     53  C58 C03 d           8.642   1.463  17.347  0.00  0.00     0.010 C 
ATOM     54  H19 C03 d           9.600   0.944  17.498  0.00  0.00     0.066 H 
ATOM     55  H20 C03 d           7.825   0.853  17.760  0.00  0.00     0.066 H 
ATOM     56  H21 C03 d           8.668   2.437  17.860  0.00  0.00     0.066 H 
ENDBRANCH  52  53
ENDBRANCH  49  52
ENDBRANCH   7  40
BRANCH   6  57
ATOM     57  O19 C03 d          17.711   5.007  16.031  0.00  0.00    -0.255 OA
BRANCH  57  58
ATOM     58  C20 C03 d          18.189   3.904  16.760  0.00  0.00     0.530 C 
ATOM     59  F21 C03 d          18.108   2.863  15.959  0.00  0.00    -0.144 F 
ATOM     60  F22 C03 d          17.423   3.701  17.847  0.00  0.00    -0.144 F 
ATOM     61  F23 C03 d          19.456   4.105  17.102  0.00  0.00    -0.144 F 
ENDBRANCH  57  58
ENDBRANCH   6  57
TORSDOF 12
ENDMDL
