REMARK  3 active torsions:
REMARK  status: ('A' for Active; 'I' for Inactive)
REMARK    1  A    between atoms: C2_2  and  C10_10 
REMARK    2  A    between atoms: C12_12  and  N15_15 
REMARK    3  A    between atoms: N13_13  and  C16_16 
ROOT
ATOM      1  C1  MOL d          -0.652  11.650  -6.540  0.00  0.00    -0.036 A 
ATOM      2  C2  MOL d          -0.849  10.470  -5.775  0.00  0.00    -0.003 A 
ATOM      3  C3  MOL d          -1.591  10.501  -4.550  0.00  0.00    -0.068 A 
ATOM      4  C4  MOL d          -2.162  11.671  -4.035  0.00  0.00    -0.047 A 
ATOM      5  C5  MOL d          -1.985  12.830  -4.764  0.00  0.00     0.105 A 
ATOM      6  C6  MOL d          -1.237  12.816  -6.040  0.00  0.00     0.105 A 
ATOM      7  O7  MOL d          -1.235  14.109  -6.513  0.00  0.00    -0.323 OA
ATOM      8  C8  MOL d          -2.068  14.924  -5.644  0.00  0.00     0.115 C 
ATOM      9  O9  MOL d          -2.396  14.119  -4.504  0.00  0.00    -0.323 OA
ATOM     10  H1  MOL d          -0.080  11.646  -7.461  0.00  0.00     0.089 H 
ATOM     11  H2  MOL d          -1.716   9.577  -3.997  0.00  0.00     0.085 H 
ATOM     12  H3  MOL d          -2.719  11.667  -3.105  0.00  0.00     0.087 H 
ATOM     13  H4  MOL d          -2.986  15.223  -6.172  0.00  0.00     0.118 H 
ATOM     14  H5  MOL d          -1.518  15.822  -5.327  0.00  0.00     0.118 H 
ENDROOT
BRANCH   2  15
ATOM     15  C10 MOL d          -0.284   9.162  -6.226  0.00  0.00     0.091 A 
ATOM     16  C11 MOL d          -0.068   8.043  -5.400  0.00  0.00    -0.009 A 
ATOM     17  C12 MOL d           0.460   7.054  -6.230  0.00  0.00     0.119 A 
ATOM     18  H6  MOL d          -0.271   7.965  -4.333  0.00  0.00     0.093 H 
ATOM     19  N13 MOL d           0.562   7.495  -7.482  0.00  0.00    -0.258 N 
ATOM     20  N14 MOL d           0.108   8.836  -7.507  0.00  0.00    -0.171 NA
BRANCH  17  21
ATOM     21  N15 MOL d           0.821   5.785  -5.837  0.00  0.00    -0.384 N 
ATOM     22  H7  MOL d           0.718   5.502  -4.852  0.00  0.00     0.157 HD
ATOM     23  H8  MOL d           1.194   5.118  -6.528  0.00  0.00     0.157 HD
ENDBRANCH  17  21
BRANCH  19  24
ATOM     24  C16 MOL d           1.056   6.905  -8.764  0.00  0.00     0.004 C 
ATOM     25  H9  MOL d           0.952   7.644  -9.572  0.00  0.00     0.059 H 
ATOM     26  H10 MOL d           0.465   6.010  -9.008  0.00  0.00     0.059 H 
ATOM     27  H11 MOL d           2.115   6.627  -8.656  0.00  0.00     0.059 H 
ENDBRANCH  19  24
ENDBRANCH   2  15
TORSDOF 3
