MODEL 1
REMARK VINA RESULT:      -7.3      0.000      0.000
REMARK  3 active torsions:
REMARK  status: ('A' for Active; 'I' for Inactive)
REMARK    1  A    between atoms: C2_2  and  C10_10 
REMARK    2  A    between atoms: C12_12  and  N15_15 
REMARK    3  A    between atoms: N13_13  and  C16_16 
ROOT
ATOM      1  C1  MOL d          -0.338  11.331  -6.339  0.00  0.00    -0.036 A 
ATOM      2  C2  MOL d          -0.800  10.125  -5.747  0.00  0.00    -0.003 A 
ATOM      3  C3  MOL d          -1.765  10.146  -4.689  0.00  0.00    -0.068 A 
ATOM      4  C4  MOL d          -2.309  11.331  -4.177  0.00  0.00    -0.047 A 
ATOM      5  C5  MOL d          -1.876  12.515  -4.739  0.00  0.00     0.105 A 
ATOM      6  C6  MOL d          -0.893  12.514  -5.845  0.00  0.00     0.105 A 
ATOM      7  O7  MOL d          -0.668  13.831  -6.177  0.00  0.00    -0.323 OA
ATOM      8  C8  MOL d          -1.574  14.667  -5.405  0.00  0.00     0.115 C 
ATOM      9  O9  MOL d          -2.201  13.819  -4.435  0.00  0.00    -0.323 OA
ATOM     10  H1  MOL d           0.403  11.333  -7.130  0.00  0.00     0.089 H 
ATOM     11  H2  MOL d          -2.089   9.203  -4.265  0.00  0.00     0.085 H 
ATOM     12  H3  MOL d          -3.038  11.318  -3.375  0.00  0.00     0.087 H 
ATOM     13  H4  MOL d          -2.333  15.112  -6.065  0.00  0.00     0.118 H 
ATOM     14  H5  MOL d          -1.012  15.467  -4.901  0.00  0.00     0.118 H 
ENDROOT
BRANCH   2  15
ATOM     15  C10 MOL d          -0.288   8.800  -6.211  0.00  0.00     0.091 A 
ATOM     16  C11 MOL d          -0.077   7.678  -5.388  0.00  0.00    -0.009 A 
ATOM     17  C12 MOL d           0.394   6.671  -6.231  0.00  0.00     0.119 A 
ATOM     18  H6  MOL d          -0.246   7.610  -4.314  0.00  0.00     0.093 H 
ATOM     19  N13 MOL d           0.466   7.105  -7.487  0.00  0.00    -0.258 N 
ATOM     20  N14 MOL d           0.051   8.459  -7.503  0.00  0.00    -0.171 NA
BRANCH  17  21
ATOM     21  N15 MOL d           0.731   5.394  -5.845  0.00  0.00    -0.384 N 
ATOM     22  H7  MOL d           0.456   5.048  -4.914  0.00  0.00     0.157 HD
ATOM     23  H8  MOL d           1.258   4.783  -6.486  0.00  0.00     0.157 HD
ENDBRANCH  17  21
BRANCH  19  24
ATOM     24  C16 MOL d           0.900   6.497  -8.783  0.00  0.00     0.004 C 
ATOM     25  H9  MOL d           0.299   5.597  -8.984  0.00  0.00     0.059 H 
ATOM     26  H10 MOL d           1.963   6.221  -8.721  0.00  0.00     0.059 H 
ATOM     27  H11 MOL d           0.755   7.223  -9.596  0.00  0.00     0.059 H 
ENDBRANCH  19  24
ENDBRANCH   2  15
TORSDOF 3
ENDMDL
MODEL 2
REMARK VINA RESULT:      -6.8      1.094      1.929
REMARK  3 active torsions:
REMARK  status: ('A' for Active; 'I' for Inactive)
REMARK    1  A    between atoms: C2_2  and  C10_10 
REMARK    2  A    between atoms: C12_12  and  N15_15 
REMARK    3  A    between atoms: N13_13  and  C16_16 
ROOT
ATOM      1  C1  MOL d          -1.156  10.803  -5.847  0.00  0.00    -0.036 A 
ATOM      2  C2  MOL d          -0.123  10.520  -6.779  0.00  0.00    -0.003 A 
ATOM      3  C3  MOL d           0.664  11.573  -7.350  0.00  0.00    -0.068 A 
ATOM      4  C4  MOL d           0.473  12.923  -7.033  0.00  0.00    -0.047 A 
ATOM      5  C5  MOL d          -0.525  13.221  -6.126  0.00  0.00     0.105 A 
ATOM      6  C6  MOL d          -1.336  12.148  -5.513  0.00  0.00     0.105 A 
ATOM      7  O7  MOL d          -2.234  12.762  -4.668  0.00  0.00    -0.323 OA
ATOM      8  C8  MOL d          -1.935  14.184  -4.626  0.00  0.00     0.115 C 
ATOM      9  O9  MOL d          -0.961  14.437  -5.647  0.00  0.00    -0.323 OA
ATOM     10  H1  MOL d          -1.770  10.019  -5.418  0.00  0.00     0.089 H 
ATOM     11  H2  MOL d           1.442  11.312  -8.058  0.00  0.00     0.085 H 
ATOM     12  H3  MOL d           1.082  13.701  -7.479  0.00  0.00     0.087 H 
ATOM     13  H4  MOL d          -1.529  14.456  -3.641  0.00  0.00     0.118 H 
ATOM     14  H5  MOL d          -2.847  14.767  -4.821  0.00  0.00     0.118 H 
ENDROOT
BRANCH   2  15
ATOM     15  C10 MOL d           0.171   9.115  -7.194  0.00  0.00     0.091 A 
ATOM     16  C11 MOL d          -0.193   7.963  -6.472  0.00  0.00    -0.009 A 
ATOM     17  C12 MOL d           0.270   6.882  -7.222  0.00  0.00     0.119 A 
ATOM     18  H6  MOL d          -0.727   7.923  -5.524  0.00  0.00     0.093 H 
ATOM     19  N13 MOL d           0.869   7.303  -8.334  0.00  0.00    -0.258 N 
ATOM     20  N14 MOL d           0.832   8.718  -8.337  0.00  0.00    -0.171 NA
BRANCH  17  21
ATOM     21  N15 MOL d           0.130   5.554  -6.887  0.00  0.00    -0.384 N 
ATOM     22  H7  MOL d          -0.785   5.194  -6.581  0.00  0.00     0.157 HD
ATOM     23  H8  MOL d           0.940   4.920  -6.943  0.00  0.00     0.157 HD
ENDBRANCH  17  21
BRANCH  19  24
ATOM     24  C16 MOL d           1.550   6.623  -9.479  0.00  0.00     0.004 C 
ATOM     25  H9  MOL d           0.801   6.110 -10.099  0.00  0.00     0.059 H 
ATOM     26  H10 MOL d           2.272   5.889  -9.093  0.00  0.00     0.059 H 
ATOM     27  H11 MOL d           2.079   7.372 -10.087  0.00  0.00     0.059 H 
ENDBRANCH  19  24
ENDBRANCH   2  15
TORSDOF 3
ENDMDL
MODEL 3
REMARK VINA RESULT:      -6.8      1.253      2.258
REMARK  3 active torsions:
REMARK  status: ('A' for Active; 'I' for Inactive)
REMARK    1  A    between atoms: C2_2  and  C10_10 
REMARK    2  A    between atoms: C12_12  and  N15_15 
REMARK    3  A    between atoms: N13_13  and  C16_16 
ROOT
ATOM      1  C1  MOL d          -1.430  10.832  -5.297  0.00  0.00    -0.036 A 
ATOM      2  C2  MOL d          -0.367  10.266  -6.050  0.00  0.00    -0.003 A 
ATOM      3  C3  MOL d           0.523  11.095  -6.807  0.00  0.00    -0.068 A 
ATOM      4  C4  MOL d           0.411  12.489  -6.854  0.00  0.00    -0.047 A 
ATOM      5  C5  MOL d          -0.614  13.061  -6.127  0.00  0.00     0.105 A 
ATOM      6  C6  MOL d          -1.534  12.225  -5.325  0.00  0.00     0.105 A 
ATOM      7  O7  MOL d          -2.433  13.081  -4.731  0.00  0.00    -0.323 OA
ATOM      8  C8  MOL d          -2.038  14.449  -5.025  0.00  0.00     0.115 C 
ATOM      9  O9  MOL d          -0.991  14.381  -6.002  0.00  0.00    -0.323 OA
ATOM     10  H1  MOL d          -2.121  10.218  -4.732  0.00  0.00     0.089 H 
ATOM     11  H2  MOL d           1.320  10.620  -7.368  0.00  0.00     0.085 H 
ATOM     12  H3  MOL d           1.098  13.093  -7.435  0.00  0.00     0.087 H 
ATOM     13  H4  MOL d          -1.670  14.941  -4.112  0.00  0.00     0.118 H 
ATOM     14  H5  MOL d          -2.893  15.012  -5.426  0.00  0.00     0.118 H 
ENDROOT
BRANCH   2  15
ATOM     15  C10 MOL d          -0.150   8.788  -6.076  0.00  0.00     0.091 A 
ATOM     16  C11 MOL d          -0.288   7.967  -7.211  0.00  0.00    -0.009 A 
ATOM     17  C12 MOL d           0.012   6.673  -6.784  0.00  0.00     0.119 A 
ATOM     18  H6  MOL d          -0.571   8.277  -8.216  0.00  0.00     0.093 H 
ATOM     19  N13 MOL d           0.328   6.666  -5.490  0.00  0.00    -0.258 N 
ATOM     20  N14 MOL d           0.222   7.994  -5.011  0.00  0.00    -0.171 NA
BRANCH  17  21
ATOM     21  N15 MOL d           0.004   5.545  -7.573  0.00  0.00    -0.384 N 
ATOM     22  H7  MOL d          -0.888   5.167  -7.922  0.00  0.00     0.157 HD
ATOM     23  H8  MOL d           0.891   5.079  -7.814  0.00  0.00     0.157 HD
ENDBRANCH  17  21
BRANCH  19  24
ATOM     24  C16 MOL d           0.713   5.604  -4.511  0.00  0.00     0.004 C 
ATOM     25  H9  MOL d           0.297   4.638  -4.835  0.00  0.00     0.059 H 
ATOM     26  H10 MOL d           0.317   5.859  -3.518  0.00  0.00     0.059 H 
ATOM     27  H11 MOL d           1.810   5.531  -4.461  0.00  0.00     0.059 H 
ENDBRANCH  19  24
ENDBRANCH   2  15
TORSDOF 3
ENDMDL
MODEL 4
REMARK VINA RESULT:      -6.2      3.896      6.194
REMARK  3 active torsions:
REMARK  status: ('A' for Active; 'I' for Inactive)
REMARK    1  A    between atoms: C2_2  and  C10_10 
REMARK    2  A    between atoms: C12_12  and  N15_15 
REMARK    3  A    between atoms: N13_13  and  C16_16 
ROOT
ATOM      1  C1  MOL d          -0.186   8.682  -6.688  0.00  0.00    -0.036 A 
ATOM      2  C2  MOL d          -0.185  10.098  -6.799  0.00  0.00    -0.003 A 
ATOM      3  C3  MOL d           0.547  10.756  -7.839  0.00  0.00    -0.068 A 
ATOM      4  C4  MOL d           1.296  10.063  -8.798  0.00  0.00    -0.047 A 
ATOM      5  C5  MOL d           1.308   8.686  -8.711  0.00  0.00     0.105 A 
ATOM      6  C6  MOL d           0.544   7.986  -7.655  0.00  0.00     0.105 A 
ATOM      7  O7  MOL d           0.761   6.639  -7.835  0.00  0.00    -0.323 OA
ATOM      8  C8  MOL d           1.535   6.450  -9.050  0.00  0.00     0.115 C 
ATOM      9  O9  MOL d           1.964   7.749  -9.479  0.00  0.00    -0.323 OA
ATOM     10  H1  MOL d          -0.722   8.170  -5.897  0.00  0.00     0.089 H 
ATOM     11  H2  MOL d           0.521  11.839  -7.885  0.00  0.00     0.085 H 
ATOM     12  H3  MOL d           1.842  10.586  -9.575  0.00  0.00     0.087 H 
ATOM     13  H4  MOL d           0.912   5.982  -9.827  0.00  0.00     0.118 H 
ATOM     14  H5  MOL d           2.408   5.812  -8.847  0.00  0.00     0.118 H 
ENDROOT
BRANCH   2  15
ATOM     15  C10 MOL d          -0.948  10.942  -5.829  0.00  0.00     0.091 A 
ATOM     16  C11 MOL d          -1.701  10.453  -4.744  0.00  0.00    -0.009 A 
ATOM     17  C12 MOL d          -2.231  11.578  -4.112  0.00  0.00     0.119 A 
ATOM     18  H6  MOL d          -1.840   9.412  -4.458  0.00  0.00     0.093 H 
ATOM     19  N13 MOL d          -1.842  12.692  -4.729  0.00  0.00    -0.258 N 
ATOM     20  N14 MOL d          -1.036  12.318  -5.832  0.00  0.00    -0.171 NA
BRANCH  17  21
ATOM     21  N15 MOL d          -3.036  11.567  -2.996  0.00  0.00    -0.384 N 
ATOM     22  H7  MOL d          -2.804  10.955  -2.200  0.00  0.00     0.157 HD
ATOM     23  H8  MOL d          -3.870  12.170  -2.955  0.00  0.00     0.157 HD
ENDBRANCH  17  21
BRANCH  19  24
ATOM     24  C16 MOL d          -2.099  14.150  -4.520  0.00  0.00     0.004 C 
ATOM     25  H9  MOL d          -2.454  14.316  -3.492  0.00  0.00     0.059 H 
ATOM     26  H10 MOL d          -2.864  14.494  -5.232  0.00  0.00     0.059 H 
ATOM     27  H11 MOL d          -1.168  14.714  -4.682  0.00  0.00     0.059 H 
ENDBRANCH  19  24
ENDBRANCH   2  15
TORSDOF 3
ENDMDL
MODEL 5
REMARK VINA RESULT:      -6.1      3.601      5.987
REMARK  3 active torsions:
REMARK  status: ('A' for Active; 'I' for Inactive)
REMARK    1  A    between atoms: C2_2  and  C10_10 
REMARK    2  A    between atoms: C12_12  and  N15_15 
REMARK    3  A    between atoms: N13_13  and  C16_16 
ROOT
ATOM      1  C1  MOL d           0.155   9.592  -7.453  0.00  0.00    -0.036 A 
ATOM      2  C2  MOL d          -0.441   9.281  -6.202  0.00  0.00    -0.003 A 
ATOM      3  C3  MOL d          -0.382   7.953  -5.668  0.00  0.00    -0.068 A 
ATOM      4  C4  MOL d           0.254   6.894  -6.327  0.00  0.00    -0.047 A 
ATOM      5  C5  MOL d           0.842   7.175  -7.544  0.00  0.00     0.105 A 
ATOM      6  C6  MOL d           0.808   8.543  -8.105  0.00  0.00     0.105 A 
ATOM      7  O7  MOL d           1.469   8.494  -9.312  0.00  0.00    -0.323 OA
ATOM      8  C8  MOL d           2.035   7.166  -9.479  0.00  0.00     0.115 C 
ATOM      9  O9  MOL d           1.505   6.350  -8.426  0.00  0.00    -0.323 OA
ATOM     10  H1  MOL d           0.106  10.588  -7.878  0.00  0.00     0.089 H 
ATOM     11  H2  MOL d          -0.852   7.759  -4.710  0.00  0.00     0.085 H 
ATOM     12  H3  MOL d           0.283   5.898  -5.901  0.00  0.00     0.087 H 
ATOM     13  H4  MOL d           3.132   7.211  -9.406  0.00  0.00     0.118 H 
ATOM     14  H5  MOL d           1.749   6.753 -10.458  0.00  0.00     0.118 H 
ENDROOT
BRANCH   2  15
ATOM     15  C10 MOL d          -1.149  10.331  -5.409  0.00  0.00     0.091 A 
ATOM     16  C11 MOL d          -1.932  10.094  -4.264  0.00  0.00    -0.009 A 
ATOM     17  C12 MOL d          -2.389  11.345  -3.850  0.00  0.00     0.119 A 
ATOM     18  H6  MOL d          -2.138   9.132  -3.797  0.00  0.00     0.093 H 
ATOM     19  N13 MOL d          -1.930  12.303  -4.652  0.00  0.00    -0.258 N 
ATOM     20  N14 MOL d          -1.149  11.687  -5.659  0.00  0.00    -0.171 NA
BRANCH  17  21
ATOM     21  N15 MOL d          -3.194  11.584  -2.759  0.00  0.00    -0.384 N 
ATOM     22  H7  MOL d          -3.762  12.442  -2.716  0.00  0.00     0.157 HD
ATOM     23  H8  MOL d          -3.228  10.905  -1.985  0.00  0.00     0.157 HD
ENDBRANCH  17  21
BRANCH  19  24
ATOM     24  C16 MOL d          -2.093  13.788  -4.710  0.00  0.00     0.004 C 
ATOM     25  H9  MOL d          -3.012  14.035  -5.263  0.00  0.00     0.059 H 
ATOM     26  H10 MOL d          -1.227  14.233  -5.222  0.00  0.00     0.059 H 
ATOM     27  H11 MOL d          -2.161  14.190  -3.688  0.00  0.00     0.059 H 
ENDBRANCH  19  24
ENDBRANCH   2  15
TORSDOF 3
ENDMDL
MODEL 6
REMARK VINA RESULT:      -5.6      3.629      6.148
REMARK  3 active torsions:
REMARK  status: ('A' for Active; 'I' for Inactive)
REMARK    1  A    between atoms: C2_2  and  C10_10 
REMARK    2  A    between atoms: C12_12  and  N15_15 
REMARK    3  A    between atoms: N13_13  and  C16_16 
ROOT
ATOM      1  C1  MOL d           0.178   9.683  -7.536  0.00  0.00    -0.036 A 
ATOM      2  C2  MOL d          -0.372   9.432  -6.251  0.00  0.00    -0.003 A 
ATOM      3  C3  MOL d          -0.267   8.139  -5.644  0.00  0.00    -0.068 A 
ATOM      4  C4  MOL d           0.373   7.058  -6.262  0.00  0.00    -0.047 A 
ATOM      5  C5  MOL d           0.918   7.280  -7.510  0.00  0.00     0.105 A 
ATOM      6  C6  MOL d           0.835   8.613  -8.147  0.00  0.00     0.105 A 
ATOM      7  O7  MOL d           1.461   8.508  -9.369  0.00  0.00    -0.323 OA
ATOM      8  C8  MOL d           2.052   7.185  -9.478  0.00  0.00     0.115 C 
ATOM      9  O9  MOL d           1.572   6.420  -8.364  0.00  0.00    -0.323 OA
ATOM     10  H1  MOL d           0.094  10.652  -8.015  0.00  0.00     0.089 H 
ATOM     11  H2  MOL d          -0.703   7.991  -4.663  0.00  0.00     0.085 H 
ATOM     12  H3  MOL d           0.438   6.089  -5.780  0.00  0.00     0.087 H 
ATOM     13  H4  MOL d           3.150   7.257  -9.441  0.00  0.00     0.118 H 
ATOM     14  H5  MOL d           1.747   6.711 -10.422  0.00  0.00     0.118 H 
ENDROOT
BRANCH   2  15
ATOM     15  C10 MOL d          -1.080  10.511  -5.497  0.00  0.00     0.091 A 
ATOM     16  C11 MOL d          -1.130  11.866  -5.874  0.00  0.00    -0.009 A 
ATOM     17  C12 MOL d          -1.893  12.505  -4.897  0.00  0.00     0.119 A 
ATOM     18  H6  MOL d          -0.667  12.323  -6.748  0.00  0.00     0.093 H 
ATOM     19  N13 MOL d          -2.309  11.634  -3.980  0.00  0.00    -0.258 N 
ATOM     20  N14 MOL d          -1.797  10.361  -4.329  0.00  0.00    -0.171 NA
BRANCH  17  21
ATOM     21  N15 MOL d          -2.201  13.847  -4.868  0.00  0.00    -0.384 N 
ATOM     22  H7  MOL d          -1.786  14.455  -4.149  0.00  0.00     0.157 HD
ATOM     23  H8  MOL d          -2.847  14.242  -5.567  0.00  0.00     0.157 HD
ENDBRANCH  17  21
BRANCH  19  24
ATOM     24  C16 MOL d          -3.123  11.736  -2.730  0.00  0.00     0.004 C 
ATOM     25  H9  MOL d          -2.992  12.735  -2.288  0.00  0.00     0.059 H 
ATOM     26  H10 MOL d          -2.791  10.972  -2.012  0.00  0.00     0.059 H 
ATOM     27  H11 MOL d          -4.185  11.578  -2.969  0.00  0.00     0.059 H 
ENDBRANCH  19  24
ENDBRANCH   2  15
TORSDOF 3
ENDMDL
MODEL 7
REMARK VINA RESULT:      -4.4      3.823      6.322
REMARK  3 active torsions:
REMARK  status: ('A' for Active; 'I' for Inactive)
REMARK    1  A    between atoms: C2_2  and  C10_10 
REMARK    2  A    between atoms: C12_12  and  N15_15 
REMARK    3  A    between atoms: N13_13  and  C16_16 
ROOT
ATOM      1  C1  MOL d           0.528  10.041  -7.916  0.00  0.00    -0.036 A 
ATOM      2  C2  MOL d          -0.332  10.101  -6.787  0.00  0.00    -0.003 A 
ATOM      3  C3  MOL d          -0.701   8.913  -6.078  0.00  0.00    -0.068 A 
ATOM      4  C4  MOL d          -0.249   7.638  -6.440  0.00  0.00    -0.047 A 
ATOM      5  C5  MOL d           0.590   7.557  -7.534  0.00  0.00     0.105 A 
ATOM      6  C6  MOL d           0.997   8.774  -8.269  0.00  0.00     0.105 A 
ATOM      7  O7  MOL d           1.820   8.362  -9.293  0.00  0.00    -0.323 OA
ATOM      8  C8  MOL d           2.054   6.934  -9.156  0.00  0.00     0.115 C 
ATOM      9  O9  MOL d           1.164   6.460  -8.138  0.00  0.00    -0.323 OA
ATOM     10  H1  MOL d           0.804  10.930  -8.472  0.00  0.00     0.089 H 
ATOM     11  H2  MOL d          -1.360   9.004  -5.222  0.00  0.00     0.085 H 
ATOM     12  H3  MOL d          -0.544   6.754  -5.886  0.00  0.00     0.087 H 
ATOM     13  H4  MOL d           3.098   6.748  -8.862  0.00  0.00     0.118 H 
ATOM     14  H5  MOL d           1.845   6.424 -10.108  0.00  0.00     0.118 H 
ENDROOT
BRANCH   2  15
ATOM     15  C10 MOL d          -0.877  11.408  -6.309  0.00  0.00     0.091 A 
ATOM     16  C11 MOL d          -1.477  12.385  -7.126  0.00  0.00    -0.009 A 
ATOM     17  C12 MOL d          -1.841  13.425  -6.270  0.00  0.00     0.119 A 
ATOM     18  H6  MOL d          -1.625  12.339  -8.204  0.00  0.00     0.093 H 
ATOM     19  N13 MOL d          -1.516  13.135  -5.012  0.00  0.00    -0.258 N 
ATOM     20  N14 MOL d          -0.891  11.864  -5.008  0.00  0.00    -0.171 NA
BRANCH  17  21
ATOM     21  N15 MOL d          -2.464  14.593  -6.647  0.00  0.00    -0.384 N 
ATOM     22  H7  MOL d          -3.489  14.624  -6.736  0.00  0.00     0.157 HD
ATOM     23  H8  MOL d          -1.904  15.437  -6.839  0.00  0.00     0.157 HD
ENDBRANCH  17  21
BRANCH  19  24
ATOM     24  C16 MOL d          -1.644  13.850  -3.705  0.00  0.00     0.004 C 
ATOM     25  H9  MOL d          -2.387  14.656  -3.799  0.00  0.00     0.059 H 
ATOM     26  H10 MOL d          -0.671  14.280  -3.425  0.00  0.00     0.059 H 
ATOM     27  H11 MOL d          -1.968  13.141  -2.929  0.00  0.00     0.059 H 
ENDBRANCH  19  24
ENDBRANCH   2  15
TORSDOF 3
ENDMDL
