MODEL 1
REMARK VINA RESULT:      -8.0      0.000      0.000
REMARK  7 active torsions:
REMARK  status: ('A' for Active; 'I' for Inactive)
REMARK    1  A    between atoms: P_1  and  O5'_5 
REMARK    2  A    between atoms: O5'_5  and  C5'_6 
REMARK    3  A    between atoms: C5'_6  and  C4'_7 
REMARK    4  A    between atoms: C3'_9  and  O3'_10 
REMARK    5  A    between atoms: C2'_11  and  O2'_12 
REMARK    6  A    between atoms: C1'_13  and  N1_14 
REMARK    7  A    between atoms: C6_21  and  O1_22 
ROOT
ATOM      1  C4' BMP d          38.923  38.537  36.674  0.00  0.00     0.089 C 
ATOM      2  O4' BMP d          39.830  38.809  37.750  0.00  0.00    -0.353 OA
ATOM      3  C3' BMP d          38.246  39.851  36.342  0.00  0.00     0.091 C 
ATOM      4  C2' BMP d          39.325  40.866  36.728  0.00  0.00     0.105 C 
ATOM      5  C1' BMP d          40.047  40.178  37.889  0.00  0.00     0.143 C 
ATOM      6  H3  BMP d          38.136  37.856  37.031  0.00  0.00     0.090 H 
ATOM      7  H4  BMP d          38.004  39.909  35.271  0.00  0.00     0.091 H 
ATOM      8  H6  BMP d          40.023  40.996  35.888  0.00  0.00     0.093 H 
ATOM      9  H8  BMP d          39.517  40.501  38.796  0.00  0.00     0.123 H 
ENDROOT
BRANCH   5  10
ATOM     10  N1  BMP d          41.464  40.475  38.161  0.00  0.00    -0.249 N 
ATOM     11  C6  BMP d          42.456  40.064  37.251  0.00  0.00     0.153 A 
ATOM     12  C5  BMP d          43.748  40.321  37.483  0.00  0.00     0.032 A 
ATOM     13  C4  BMP d          44.173  41.025  38.663  0.00  0.00     0.253 A 
ATOM     14  H10 BMP d          44.495  39.990  36.762  0.00  0.00     0.098 H 
ATOM     15  N3  BMP d          43.135  41.409  39.511  0.00  0.00    -0.275 N 
ATOM     16  O4  BMP d          45.309  41.317  38.983  0.00  0.00    -0.268 OA
ATOM     17  C2  BMP d          41.800  41.179  39.331  0.00  0.00     0.333 A 
ATOM     18  H9  BMP d          43.395  41.906  40.339  0.00  0.00     0.173 HD
ATOM     19  O2  BMP d          40.932  41.548  40.100  0.00  0.00    -0.246 OA
BRANCH  11  20
ATOM     20  O1  BMP d          42.065  39.461  36.221  0.00  0.00    -0.346 OA
ATOM     21  H11 BMP d          42.571  39.754  35.472  0.00  0.00     0.219 HD
ENDBRANCH  11  20
ENDBRANCH   5  10
BRANCH   4  22
ATOM     22  O2' BMP d          38.803  42.166  37.061  0.00  0.00    -0.388 OA
ATOM     23  H7  BMP d          39.010  42.367  37.965  0.00  0.00     0.210 HD
ENDBRANCH   4  22
BRANCH   1  24
ATOM     24  C5' BMP d          39.674  37.793  35.593  0.00  0.00     0.059 C 
ATOM     25  H1  BMP d          38.964  37.291  34.919  0.00  0.00     0.079 H 
ATOM     26  H2  BMP d          40.293  38.495  35.015  0.00  0.00     0.079 H 
BRANCH  24  27
ATOM     27  O5' BMP d          40.501  36.829  36.234  0.00  0.00    -0.280 OA
BRANCH  27  28
ATOM     28  P   BMP d          39.997  35.347  36.553  0.00  0.00     0.422 P 
ATOM     29  O3P BMP d          39.081  34.896  35.298  0.00  0.00    -0.617 OA
ATOM     30  O2P BMP d          41.210  34.501  36.520  0.00  0.00    -0.617 OA
ATOM     31  O1P BMP d          39.334  35.218  37.897  0.00  0.00    -0.617 OA
ENDBRANCH  27  28
ENDBRANCH  24  27
ENDBRANCH   1  24
BRANCH   3  32
ATOM     32  O3' BMP d          37.051  40.067  37.113  0.00  0.00    -0.390 OA
ATOM     33  H5  BMP d          37.136  39.636  37.956  0.00  0.00     0.210 HD
ENDBRANCH   3  32
TORSDOF 7
ENDMDL
MODEL 2
REMARK VINA RESULT:      -7.3      1.179      2.190
REMARK  7 active torsions:
REMARK  status: ('A' for Active; 'I' for Inactive)
REMARK    1  A    between atoms: P_1  and  O5'_5 
REMARK    2  A    between atoms: O5'_5  and  C5'_6 
REMARK    3  A    between atoms: C5'_6  and  C4'_7 
REMARK    4  A    between atoms: C3'_9  and  O3'_10 
REMARK    5  A    between atoms: C2'_11  and  O2'_12 
REMARK    6  A    between atoms: C1'_13  and  N1_14 
REMARK    7  A    between atoms: C6_21  and  O1_22 
ROOT
ATOM      1  C4' BMP d          39.146  38.156  37.438  0.00  0.00     0.089 C 
ATOM      2  O4' BMP d          39.790  39.055  38.349  0.00  0.00    -0.353 OA
ATOM      3  C3' BMP d          38.950  38.923  36.147  0.00  0.00     0.091 C 
ATOM      4  C2' BMP d          40.126  39.902  36.182  0.00  0.00     0.105 C 
ATOM      5  C1' BMP d          40.322  40.154  37.678  0.00  0.00     0.143 C 
ATOM      6  H3  BMP d          38.143  37.915  37.820  0.00  0.00     0.090 H 
ATOM      7  H4  BMP d          39.012  38.252  35.277  0.00  0.00     0.091 H 
ATOM      8  H6  BMP d          41.022  39.413  35.772  0.00  0.00     0.093 H 
ATOM      9  H8  BMP d          39.684  41.019  37.915  0.00  0.00     0.123 H 
ENDROOT
BRANCH   5  10
ATOM     10  N1  BMP d          41.650  40.517  38.202  0.00  0.00    -0.249 N 
ATOM     11  C6  BMP d          41.765  41.116  39.471  0.00  0.00     0.153 A 
ATOM     12  C5  BMP d          42.962  41.456  39.961  0.00  0.00     0.032 A 
ATOM     13  C4  BMP d          44.171  41.224  39.218  0.00  0.00     0.253 A 
ATOM     14  H10 BMP d          43.022  41.919  40.946  0.00  0.00     0.098 H 
ATOM     15  N3  BMP d          43.979  40.619  37.976  0.00  0.00    -0.275 N 
ATOM     16  O4  BMP d          45.310  41.487  39.554  0.00  0.00    -0.268 OA
ATOM     17  C2  BMP d          42.787  40.247  37.421  0.00  0.00     0.333 A 
ATOM     18  H9  BMP d          44.801  40.439  37.435  0.00  0.00     0.173 HD
ATOM     19  O2  BMP d          42.677  39.709  36.334  0.00  0.00    -0.246 OA
BRANCH  11  20
ATOM     20  O1  BMP d          40.700  41.300  40.109  0.00  0.00    -0.346 OA
ATOM     21  H11 BMP d          40.230  40.477  40.183  0.00  0.00     0.219 HD
ENDBRANCH  11  20
ENDBRANCH   5  10
BRANCH   4  22
ATOM     22  O2' BMP d          39.902  41.102  35.418  0.00  0.00    -0.388 OA
ATOM     23  H7  BMP d          40.312  41.837  35.857  0.00  0.00     0.210 HD
ENDBRANCH   4  22
BRANCH   1  24
ATOM     24  C5' BMP d          39.921  36.857  37.422  0.00  0.00     0.059 C 
ATOM     25  H1  BMP d          40.835  36.957  38.026  0.00  0.00     0.079 H 
ATOM     26  H2  BMP d          39.302  36.045  37.828  0.00  0.00     0.079 H 
BRANCH  24  27
ATOM     27  O5' BMP d          40.261  36.579  36.068  0.00  0.00    -0.280 OA
BRANCH  27  28
ATOM     28  P   BMP d          39.574  35.400  35.238  0.00  0.00     0.422 P 
ATOM     29  O3P BMP d          40.773  34.595  34.509  0.00  0.00    -0.617 OA
ATOM     30  O2P BMP d          39.002  34.486  36.251  0.00  0.00    -0.617 OA
ATOM     31  O1P BMP d          38.482  35.874  34.319  0.00  0.00    -0.617 OA
ENDBRANCH  27  28
ENDBRANCH  24  27
ENDBRANCH   1  24
BRANCH   3  32
ATOM     32  O3' BMP d          37.701  39.635  36.111  0.00  0.00    -0.390 OA
ATOM     33  H5  BMP d          37.860  40.560  36.255  0.00  0.00     0.210 HD
ENDBRANCH   3  32
TORSDOF 7
ENDMDL
MODEL 3
REMARK VINA RESULT:      -5.4      2.699      6.108
REMARK  7 active torsions:
REMARK  status: ('A' for Active; 'I' for Inactive)
REMARK    1  A    between atoms: P_1  and  O5'_5 
REMARK    2  A    between atoms: O5'_5  and  C5'_6 
REMARK    3  A    between atoms: C5'_6  and  C4'_7 
REMARK    4  A    between atoms: C3'_9  and  O3'_10 
REMARK    5  A    between atoms: C2'_11  and  O2'_12 
REMARK    6  A    between atoms: C1'_13  and  N1_14 
REMARK    7  A    between atoms: C6_21  and  O1_22 
ROOT
ATOM      1  C4' BMP d          40.607  40.676  37.626  0.00  0.00     0.089 C 
ATOM      2  O4' BMP d          40.058  39.358  37.749  0.00  0.00    -0.353 OA
ATOM      3  C3' BMP d          42.084  40.499  37.341  0.00  0.00     0.091 C 
ATOM      4  C2' BMP d          42.103  39.156  36.607  0.00  0.00     0.105 C 
ATOM      5  C1' BMP d          40.931  38.401  37.237  0.00  0.00     0.143 C 
ATOM      6  H3  BMP d          40.530  41.188  38.597  0.00  0.00     0.090 H 
ATOM      7  H4  BMP d          42.461  41.311  36.703  0.00  0.00     0.091 H 
ATOM      8  H6  BMP d          41.901  39.320  35.538  0.00  0.00     0.093 H 
ATOM      9  H8  BMP d          41.359  37.859  38.094  0.00  0.00     0.123 H 
ENDROOT
BRANCH   5  10
ATOM     10  N1  BMP d          40.213  37.370  36.468  0.00  0.00    -0.249 N 
ATOM     11  C6  BMP d          39.348  37.747  35.423  0.00  0.00     0.153 A 
ATOM     12  C5  BMP d          38.685  36.826  34.716  0.00  0.00     0.032 A 
ATOM     13  C4  BMP d          38.829  35.422  34.992  0.00  0.00     0.253 A 
ATOM     14  H10 BMP d          38.020  37.146  33.914  0.00  0.00     0.098 H 
ATOM     15  N3  BMP d          39.710  35.124  36.031  0.00  0.00    -0.275 N 
ATOM     16  O4  BMP d          38.284  34.495  34.423  0.00  0.00    -0.268 OA
ATOM     17  C2  BMP d          40.416  36.016  36.788  0.00  0.00     0.333 A 
ATOM     18  H9  BMP d          39.837  34.155  36.245  0.00  0.00     0.173 HD
ATOM     19  O2  BMP d          41.183  35.700  37.679  0.00  0.00    -0.246 OA
BRANCH  11  20
ATOM     20  O1  BMP d          39.244  38.977  35.191  0.00  0.00    -0.346 OA
ATOM     21  H11 BMP d          39.821  39.212  34.474  0.00  0.00     0.219 HD
ENDBRANCH  11  20
ENDBRANCH   5  10
BRANCH   4  22
ATOM     22  O2' BMP d          43.360  38.461  36.707  0.00  0.00    -0.388 OA
ATOM     23  H7  BMP d          43.944  38.765  36.022  0.00  0.00     0.210 HD
ENDBRANCH   4  22
BRANCH   1  24
ATOM     24  C5' BMP d          39.751  41.461  36.659  0.00  0.00     0.059 C 
ATOM     25  H1  BMP d          40.345  42.263  36.197  0.00  0.00     0.079 H 
ATOM     26  H2  BMP d          39.364  40.795  35.874  0.00  0.00     0.079 H 
BRANCH  24  27
ATOM     27  O5' BMP d          38.671  42.020  37.399  0.00  0.00    -0.280 OA
BRANCH  27  28
ATOM     28  P   BMP d          37.184  42.094  36.819  0.00  0.00     0.422 P 
ATOM     29  O3P BMP d          37.107  41.007  35.623  0.00  0.00    -0.617 OA
ATOM     30  O2P BMP d          36.312  41.594  37.904  0.00  0.00    -0.617 OA
ATOM     31  O1P BMP d          36.761  43.485  36.436  0.00  0.00    -0.617 OA
ENDBRANCH  27  28
ENDBRANCH  24  27
ENDBRANCH   1  24
BRANCH   3  32
ATOM     32  O3' BMP d          42.875  40.430  38.541  0.00  0.00    -0.390 OA
ATOM     33  H5  BMP d          42.428  40.892  39.240  0.00  0.00     0.210 HD
ENDBRANCH   3  32
TORSDOF 7
ENDMDL
MODEL 4
REMARK VINA RESULT:      -5.1      1.922      3.898
REMARK  7 active torsions:
REMARK  status: ('A' for Active; 'I' for Inactive)
REMARK    1  A    between atoms: P_1  and  O5'_5 
REMARK    2  A    between atoms: O5'_5  and  C5'_6 
REMARK    3  A    between atoms: C5'_6  and  C4'_7 
REMARK    4  A    between atoms: C3'_9  and  O3'_10 
REMARK    5  A    between atoms: C2'_11  and  O2'_12 
REMARK    6  A    between atoms: C1'_13  and  N1_14 
REMARK    7  A    between atoms: C6_21  and  O1_22 
ROOT
ATOM      1  C4' BMP d          39.453  37.270  35.108  0.00  0.00     0.089 C 
ATOM      2  O4' BMP d          40.659  37.938  35.500  0.00  0.00    -0.353 OA
ATOM      3  C3' BMP d          39.226  36.169  36.123  0.00  0.00     0.091 C 
ATOM      4  C2' BMP d          39.878  36.757  37.377  0.00  0.00     0.105 C 
ATOM      5  C1' BMP d          41.011  37.613  36.807  0.00  0.00     0.143 C 
ATOM      6  H3  BMP d          39.613  36.779  34.137  0.00  0.00     0.090 H 
ATOM      7  H4  BMP d          38.152  35.989  36.275  0.00  0.00     0.091 H 
ATOM      8  H6  BMP d          39.156  37.404  37.896  0.00  0.00     0.093 H 
ATOM      9  H8  BMP d          41.883  36.944  36.752  0.00  0.00     0.123 H 
ENDROOT
BRANCH   5  10
ATOM     10  N1  BMP d          41.494  38.792  37.547  0.00  0.00    -0.249 N 
ATOM     11  C6  BMP d          42.629  39.491  37.093  0.00  0.00     0.153 A 
ATOM     12  C5  BMP d          43.084  40.561  37.754  0.00  0.00     0.032 A 
ATOM     13  C4  BMP d          42.436  41.039  38.945  0.00  0.00     0.253 A 
ATOM     14  H10 BMP d          43.965  41.082  37.381  0.00  0.00     0.098 H 
ATOM     15  N3  BMP d          41.314  40.304  39.327  0.00  0.00    -0.275 N 
ATOM     16  O4  BMP d          42.751  41.994  39.628  0.00  0.00    -0.268 OA
ATOM     17  C2  BMP d          40.798  39.207  38.696  0.00  0.00     0.333 A 
ATOM     18  H9  BMP d          40.835  40.614  40.149  0.00  0.00     0.173 HD
ATOM     19  O2  BMP d          39.806  38.608  39.068  0.00  0.00    -0.246 OA
BRANCH  11  20
ATOM     20  O1  BMP d          43.174  39.064  36.046  0.00  0.00    -0.346 OA
ATOM     21  H11 BMP d          42.655  39.321  35.293  0.00  0.00     0.219 HD
ENDBRANCH  11  20
ENDBRANCH   5  10
BRANCH   4  22
ATOM     22  O2' BMP d          40.321  35.762  38.318  0.00  0.00    -0.388 OA
ATOM     23  H7  BMP d          41.015  35.244  37.928  0.00  0.00     0.210 HD
ENDBRANCH   4  22
BRANCH   1  24
ATOM     24  C5' BMP d          38.379  38.312  34.889  0.00  0.00     0.059 C 
ATOM     25  H1  BMP d          38.076  38.323  33.832  0.00  0.00     0.079 H 
ATOM     26  H2  BMP d          37.506  38.089  35.519  0.00  0.00     0.079 H 
BRANCH  24  27
ATOM     27  O5' BMP d          38.929  39.575  35.250  0.00  0.00    -0.280 OA
BRANCH  27  28
ATOM     28  P   BMP d          38.299  40.484  36.402  0.00  0.00     0.422 P 
ATOM     29  O3P BMP d          37.096  41.321  35.717  0.00  0.00    -0.617 OA
ATOM     30  O2P BMP d          37.673  39.540  37.353  0.00  0.00    -0.617 OA
ATOM     31  O1P BMP d          39.317  41.321  37.126  0.00  0.00    -0.617 OA
ENDBRANCH  27  28
ENDBRANCH  24  27
ENDBRANCH   1  24
BRANCH   3  32
ATOM     32  O3' BMP d          39.867  34.935  35.752  0.00  0.00    -0.390 OA
ATOM     33  H5  BMP d          39.367  34.204  36.096  0.00  0.00     0.210 HD
ENDBRANCH   3  32
TORSDOF 7
ENDMDL
