MODEL 1
REMARK VINA RESULT:     -10.4      0.000      0.000
REMARK  10 active torsions:
REMARK  status: ('A' for Active; 'I' for Inactive)
REMARK    1  A    between atoms: C1_1  and  C7_7 
REMARK    2  A    between atoms: C3_3  and  O1_8 
REMARK    3  A    between atoms: C4_4  and  O2_9 
REMARK    4  A    between atoms: O3_10  and  C5_5 
REMARK    5  A    between atoms: O1_8  and  P1_13 
REMARK    6  A    between atoms: C8_17  and  O3_10 
REMARK    7  A    between atoms: C8_17  and  C9_18 
REMARK    8  A    between atoms: C8_17  and  C10_19 
REMARK    9  A    between atoms: O14_26  and  C8_17 
REMARK   10  A    between atoms: P2_22  and  O14_26 
ROOT
ATOM      1  C1  GG9 d          55.935  11.409  27.927  0.00  0.00     0.020 C 
ATOM      2  C2  GG9 d          54.896  10.684  28.591  0.00  0.00    -0.060 C 
ATOM      3  C3  GG9 d          55.259   9.624  29.629  0.00  0.00     0.096 C 
ATOM      4  C4  GG9 d          56.715   9.847  30.237  0.00  0.00     0.089 C 
ATOM      5  C5  GG9 d          57.758   9.909  29.083  0.00  0.00     0.074 C 
ATOM      6  C6  GG9 d          57.397  11.180  28.218  0.00  0.00    -0.008 C 
ATOM      7  H1  GG9 d          53.852  10.888  28.359  0.00  0.00     0.082 H 
ATOM      8  H2  GG9 d          54.544   9.701  30.461  0.00  0.00     0.095 H 
ATOM      9  H3  GG9 d          56.747  10.796  30.791  0.00  0.00     0.091 H 
ATOM     10  H4  GG9 d          57.708   8.999  28.467  0.00  0.00     0.088 H 
ATOM     11  H5  GG9 d          57.773  12.064  28.753  0.00  0.00     0.044 H 
ATOM     12  H6  GG9 d          57.918  11.086  27.254  0.00  0.00     0.044 H 
ENDROOT
BRANCH   5  13
ATOM     13  O3  GG9 d          59.071  10.050  29.640  0.00  0.00    -0.334 OA
BRANCH  13  14
ATOM     14  C8  GG9 d          60.074   9.005  29.583  0.00  0.00     0.326 C 
BRANCH  14  15
ATOM     15  C9  GG9 d          59.579   7.489  29.437  0.00  0.00     0.272 C 
ATOM     16  F1  GG9 d          58.503   7.365  28.740  0.00  0.00    -0.208 F 
ATOM     17  F2  GG9 d          60.540   6.704  28.995  0.00  0.00    -0.208 F 
ATOM     18  H8  GG9 d          59.331   7.145  30.451  0.00  0.00     0.155 H 
ENDBRANCH  14  15
BRANCH  14  19
ATOM     19  C10 GG9 d          60.898   9.097  30.843  0.00  0.00     0.245 C 
ATOM     20  O9  GG9 d          61.236  10.310  31.056  0.00  0.00    -0.644 OA
ATOM     21  O10 GG9 d          61.188   8.141  31.587  0.00  0.00    -0.644 OA
ENDBRANCH  14  19
BRANCH  14  22
ATOM     22  O14 GG9 d          61.021   9.292  28.474  0.00  0.00    -0.228 OA
BRANCH  22  23
ATOM     23  P2  GG9 d          60.912   9.468  26.839  0.00  0.00     0.425 P 
ATOM     24  O11 GG9 d          59.638   8.736  26.366  0.00  0.00    -0.617 OA
ATOM     25  O12 GG9 d          62.153   8.800  26.322  0.00  0.00    -0.617 OA
ATOM     26  O13 GG9 d          60.841  10.967  26.456  0.00  0.00    -0.617 OA
ENDBRANCH  22  23
ENDBRANCH  14  22
ENDBRANCH  13  14
ENDBRANCH   5  13
BRANCH   4  27
ATOM     27  O2  GG9 d          56.959   8.761  31.146  0.00  0.00    -0.390 OA
ATOM     28  H7  GG9 d          57.703   8.256  30.841  0.00  0.00     0.210 HD
ENDBRANCH   4  27
BRANCH   3  29
ATOM     29  O1  GG9 d          55.082   8.224  28.972  0.00  0.00    -0.271 OA
BRANCH  29  30
ATOM     30  P1  GG9 d          54.710   7.984  27.371  0.00  0.00     0.422 P 
ATOM     31  O6  GG9 d          56.037   8.077  26.612  0.00  0.00    -0.617 OA
ATOM     32  O7  GG9 d          53.682   9.136  27.004  0.00  0.00    -0.617 OA
ATOM     33  O8  GG9 d          54.139   6.544  27.424  0.00  0.00    -0.617 OA
ENDBRANCH  29  30
ENDBRANCH   3  29
BRANCH   1  34
ATOM     34  C7  GG9 d          55.553  12.454  26.921  0.00  0.00     0.205 C 
ATOM     35  O4  GG9 d          54.438  12.395  26.439  0.00  0.00    -0.644 OA
ATOM     36  O5  GG9 d          56.368  13.298  26.683  0.00  0.00    -0.644 OA
ENDBRANCH   1  34
TORSDOF 10
ENDMDL
