MODEL 1
REMARK VINA RESULT:      -7.2      0.000      0.000
REMARK  5 active torsions:
REMARK  status: ('A' for Active; 'I' for Inactive)
REMARK    1  A    between atoms: C1_1  and  O4_4 
REMARK    2  A    between atoms: C2_2  and  O5_5 
REMARK    3  A    between atoms: C3_3  and  O7_7 
REMARK    4  A    between atoms: C8_8  and  C9_9 
REMARK    5  A    between atoms: C9_9  and  O11_11 
ROOT
ATOM      1  C1  MNM d          27.983  47.196   0.133  0.00  0.00     0.110 C 
ATOM      2  C2  MNM d          27.587  45.854  -0.506  0.00  0.00     0.217 C 
ATOM      3  C3  MNM d          27.496  48.386  -0.721  0.00  0.00     0.071 C 
ATOM      4  N6  MNM d          27.719  45.872  -1.958  0.00  0.00    -0.046 N 
ATOM      5  C8  MNM d          26.445  47.995  -1.797  0.00  0.00     0.017 C 
ATOM      6  C10 MNM d          27.094  46.959  -2.726  0.00  0.00     0.092 C 
ATOM      7  H1  MNM d          27.509  47.259   1.123  0.00  0.00     0.093 H 
ATOM      8  H2  MNM d          26.538  45.660  -0.239  0.00  0.00     0.133 H 
ATOM      9  H3  MNM d          28.373  48.773  -1.261  0.00  0.00     0.087 H 
ATOM     10  H6  MNM d          27.327  45.008  -2.299  0.00  0.00     0.280 HD
ATOM     11  H7  MNM d          28.705  45.897  -2.162  0.00  0.00     0.280 HD
ATOM     12  H9  MNM d          25.596  47.519  -1.287  0.00  0.00     0.049 H 
ATOM     13  H12 MNM d          26.322  46.534  -3.384  0.00  0.00     0.076 H 
ATOM     14  H13 MNM d          27.863  47.455  -3.336  0.00  0.00     0.076 H 
ENDROOT
BRANCH   5  15
ATOM     15  C9  MNM d          25.886  49.212  -2.581  0.00  0.00     0.024 C 
ATOM     16  H10 MNM d          25.464  49.937  -1.870  0.00  0.00     0.074 H 
ATOM     17  H11 MNM d          25.098  48.868  -3.266  0.00  0.00     0.074 H 
BRANCH  15  18
ATOM     18  O11 MNM d          26.919  49.841  -3.334  0.00  0.00    -0.400 OA
ATOM     19  H14 MNM d          26.559  50.582  -3.806  0.00  0.00     0.209 HD
ENDBRANCH  15  18
ENDBRANCH   5  15
BRANCH   3  20
ATOM     20  O7  MNM d          27.015  49.442   0.127  0.00  0.00    -0.392 OA
ATOM     21  H8  MNM d          26.719  50.168  -0.409  0.00  0.00     0.210 HD
ENDBRANCH   3  20
BRANCH   1  22
ATOM     22  O4  MNM d          29.406  47.279   0.300  0.00  0.00    -0.389 OA
ATOM     23  H4  MNM d          29.705  46.546   0.826  0.00  0.00     0.210 HD
ENDBRANCH   1  22
BRANCH   2  24
ATOM     24  O5  MNM d          28.380  44.751  -0.084  0.00  0.00    -0.368 OA
ATOM     25  H5  MNM d          29.280  44.888  -0.355  0.00  0.00     0.212 HD
ENDBRANCH   2  24
TORSDOF 5
ENDMDL
