MODEL 1
REMARK VINA RESULT:      -7.3      0.000      0.000
REMARK  5 active torsions:
REMARK  status: ('A' for Active; 'I' for Inactive)
REMARK    1  A    between atoms: C1_1  and  O4_4 
REMARK    2  A    between atoms: C2_2  and  O5_5 
REMARK    3  A    between atoms: C3_3  and  O7_7 
REMARK    4  A    between atoms: C8_8  and  C9_9 
REMARK    5  A    between atoms: C9_9  and  O11_11 
ROOT
ATOM      1  C1  MNM d          27.788  47.338   0.062  0.00  0.00     0.110 C 
ATOM      2  C2  MNM d          27.528  45.929  -0.496  0.00  0.00     0.217 C 
ATOM      3  C3  MNM d          27.327  48.426  -0.931  0.00  0.00     0.071 C 
ATOM      4  N6  MNM d          27.801  45.840  -1.926  0.00  0.00    -0.046 N 
ATOM      5  C8  MNM d          26.409  47.890  -2.064  0.00  0.00     0.017 C 
ATOM      6  C10 MNM d          27.199  46.824  -2.838  0.00  0.00     0.092 C 
ATOM      7  H1  MNM d          27.216  47.450   0.995  0.00  0.00     0.093 H 
ATOM      8  H2  MNM d          26.469  45.694  -0.314  0.00  0.00     0.133 H 
ATOM      9  H3  MNM d          28.231  48.821  -1.417  0.00  0.00     0.087 H 
ATOM     10  H6  MNM d          27.490  44.931  -2.229  0.00  0.00     0.280 HD
ATOM     11  H7  MNM d          28.800  45.908  -2.038  0.00  0.00     0.280 HD
ATOM     12  H9  MNM d          25.539  47.404  -1.598  0.00  0.00     0.049 H 
ATOM     13  H12 MNM d          26.518  46.304  -3.528  0.00  0.00     0.076 H 
ATOM     14  H13 MNM d          27.997  47.316  -3.412  0.00  0.00     0.076 H 
ENDROOT
BRANCH   5  15
ATOM     15  C9  MNM d          25.867  49.005  -2.997  0.00  0.00     0.024 C 
ATOM     16  H10 MNM d          25.027  49.514  -2.501  0.00  0.00     0.074 H 
ATOM     17  H11 MNM d          25.517  48.552  -3.936  0.00  0.00     0.074 H 
BRANCH  15  18
ATOM     18  O11 MNM d          26.887  49.956  -3.286  0.00  0.00    -0.400 OA
ATOM     19  H14 MNM d          26.489  50.765  -3.585  0.00  0.00     0.209 HD
ENDBRANCH  15  18
ENDBRANCH   5  15
BRANCH   3  20
ATOM     20  O7  MNM d          26.710  49.515  -0.223  0.00  0.00    -0.392 OA
ATOM     21  H8  MNM d          26.608  49.280   0.692  0.00  0.00     0.210 HD
ENDBRANCH   3  20
BRANCH   1  22
ATOM     22  O4  MNM d          29.182  47.519   0.354  0.00  0.00    -0.389 OA
ATOM     23  H4  MNM d          29.675  47.533  -0.458  0.00  0.00     0.210 HD
ENDBRANCH   1  22
BRANCH   2  24
ATOM     24  O5  MNM d          28.332  44.912   0.089  0.00  0.00    -0.368 OA
ATOM     25  H5  MNM d          29.088  44.751  -0.463  0.00  0.00     0.212 HD
ENDBRANCH   2  24
TORSDOF 5
ENDMDL
MODEL 2
REMARK VINA RESULT:      -5.7      1.779      4.250
REMARK  5 active torsions:
REMARK  status: ('A' for Active; 'I' for Inactive)
REMARK    1  A    between atoms: C1_1  and  O4_4 
REMARK    2  A    between atoms: C2_2  and  O5_5 
REMARK    3  A    between atoms: C3_3  and  O7_7 
REMARK    4  A    between atoms: C8_8  and  C9_9 
REMARK    5  A    between atoms: C9_9  and  O11_11 
ROOT
ATOM      1  C1  MNM d          27.456  47.950  -3.255  0.00  0.00     0.110 C 
ATOM      2  C2  MNM d          26.489  48.980  -2.646  0.00  0.00     0.217 C 
ATOM      3  C3  MNM d          27.961  46.957  -2.186  0.00  0.00     0.071 C 
ATOM      4  N6  MNM d          26.909  49.416  -1.319  0.00  0.00    -0.046 N 
ATOM      5  C8  MNM d          27.139  46.986  -0.868  0.00  0.00     0.017 C 
ATOM      6  C10 MNM d          27.227  48.409  -0.296  0.00  0.00     0.092 C 
ATOM      7  H1  MNM d          26.915  47.386  -4.029  0.00  0.00     0.093 H 
ATOM      8  H2  MNM d          25.502  48.501  -2.575  0.00  0.00     0.133 H 
ATOM      9  H3  MNM d          28.986  47.260  -1.926  0.00  0.00     0.087 H 
ATOM     10  H6  MNM d          26.165  49.986  -0.949  0.00  0.00     0.280 HD
ATOM     11  H7  MNM d          27.735  49.979  -1.443  0.00  0.00     0.280 HD
ATOM     12  H9  MNM d          26.088  46.778  -1.117  0.00  0.00     0.049 H 
ATOM     13  H12 MNM d          26.514  48.506   0.536  0.00  0.00     0.076 H 
ATOM     14  H13 MNM d          28.247  48.584   0.075  0.00  0.00     0.076 H 
ENDROOT
BRANCH   5  15
ATOM     15  C9  MNM d          27.588  45.916   0.161  0.00  0.00     0.024 C 
ATOM     16  H10 MNM d          27.313  44.918  -0.212  0.00  0.00     0.074 H 
ATOM     17  H11 MNM d          27.081  46.101   1.119  0.00  0.00     0.074 H 
BRANCH  15  18
ATOM     18  O11 MNM d          28.998  45.970   0.358  0.00  0.00    -0.400 OA
ATOM     19  H14 MNM d          29.288  45.170   0.781  0.00  0.00     0.209 HD
ENDBRANCH  15  18
ENDBRANCH   5  15
BRANCH   3  20
ATOM     20  O7  MNM d          28.032  45.631  -2.735  0.00  0.00    -0.392 OA
ATOM     21  H8  MNM d          27.213  45.177  -2.572  0.00  0.00     0.210 HD
ENDBRANCH   3  20
BRANCH   1  22
ATOM     22  O4  MNM d          28.577  48.606  -3.865  0.00  0.00    -0.389 OA
ATOM     23  H4  MNM d          28.285  49.407  -4.283  0.00  0.00     0.210 HD
ENDBRANCH   1  22
BRANCH   2  24
ATOM     24  O5  MNM d          26.366  50.180  -3.399  0.00  0.00    -0.368 OA
ATOM     25  H5  MNM d          26.810  50.885  -2.943  0.00  0.00     0.212 HD
ENDBRANCH   2  24
TORSDOF 5
ENDMDL
MODEL 3
REMARK VINA RESULT:      -5.7      1.749      2.575
REMARK  5 active torsions:
REMARK  status: ('A' for Active; 'I' for Inactive)
REMARK    1  A    between atoms: C1_1  and  O4_4 
REMARK    2  A    between atoms: C2_2  and  O5_5 
REMARK    3  A    between atoms: C3_3  and  O7_7 
REMARK    4  A    between atoms: C8_8  and  C9_9 
REMARK    5  A    between atoms: C9_9  and  O11_11 
ROOT
ATOM      1  C1  MNM d          28.608  46.011  -1.207  0.00  0.00     0.110 C 
ATOM      2  C2  MNM d          28.990  47.144  -0.240  0.00  0.00     0.217 C 
ATOM      3  C3  MNM d          27.550  46.480  -2.229  0.00  0.00     0.071 C 
ATOM      4  N6  MNM d          27.841  47.951   0.150  0.00  0.00    -0.046 N 
ATOM      5  C8  MNM d          27.381  48.024  -2.288  0.00  0.00     0.017 C 
ATOM      6  C10 MNM d          26.958  48.500  -0.890  0.00  0.00     0.092 C 
ATOM      7  H1  MNM d          29.511  45.704  -1.754  0.00  0.00     0.093 H 
ATOM      8  H2  MNM d          29.723  47.781  -0.756  0.00  0.00     0.133 H 
ATOM      9  H3  MNM d          26.583  46.069  -1.902  0.00  0.00     0.087 H 
ATOM     10  H6  MNM d          28.196  48.733   0.677  0.00  0.00     0.280 HD
ATOM     11  H7  MNM d          27.268  47.376   0.747  0.00  0.00     0.280 HD
ATOM     12  H9  MNM d          28.361  48.466  -2.521  0.00  0.00     0.049 H 
ATOM     13  H12 MNM d          27.004  49.598  -0.856  0.00  0.00     0.076 H 
ATOM     14  H13 MNM d          25.927  48.171  -0.697  0.00  0.00     0.076 H 
ENDROOT
BRANCH   5  15
ATOM     15  C9  MNM d          26.393  48.493  -3.387  0.00  0.00     0.024 C 
ATOM     16  H10 MNM d          25.988  47.613  -3.909  0.00  0.00     0.074 H 
ATOM     17  H11 MNM d          26.928  49.132  -4.106  0.00  0.00     0.074 H 
BRANCH  15  18
ATOM     18  O11 MNM d          25.318  49.232  -2.814  0.00  0.00    -0.400 OA
ATOM     19  H14 MNM d          25.527  50.159  -2.832  0.00  0.00     0.209 HD
ENDBRANCH  15  18
ENDBRANCH   5  15
BRANCH   3  20
ATOM     20  O7  MNM d          27.834  45.931  -3.526  0.00  0.00    -0.392 OA
ATOM     21  H8  MNM d          28.590  46.371  -3.897  0.00  0.00     0.210 HD
ENDBRANCH   3  20
BRANCH   1  22
ATOM     22  O4  MNM d          28.103  44.876  -0.486  0.00  0.00    -0.389 OA
ATOM     23  H4  MNM d          28.808  44.483   0.016  0.00  0.00     0.210 HD
ENDBRANCH   1  22
BRANCH   2  24
ATOM     24  O5  MNM d          29.552  46.698   0.988  0.00  0.00    -0.368 OA
ATOM     25  H5  MNM d          30.278  47.263   1.226  0.00  0.00     0.212 HD
ENDBRANCH   2  24
TORSDOF 5
ENDMDL
MODEL 4
REMARK VINA RESULT:      -4.4      1.354      3.801
REMARK  5 active torsions:
REMARK  status: ('A' for Active; 'I' for Inactive)
REMARK    1  A    between atoms: C1_1  and  O4_4 
REMARK    2  A    between atoms: C2_2  and  O5_5 
REMARK    3  A    between atoms: C3_3  and  O7_7 
REMARK    4  A    between atoms: C8_8  and  C9_9 
REMARK    5  A    between atoms: C9_9  and  O11_11 
ROOT
ATOM      1  C1  MNM d          26.712  49.240  -1.466  0.00  0.00     0.110 C 
ATOM      2  C2  MNM d          27.054  48.798  -2.899  0.00  0.00     0.217 C 
ATOM      3  C3  MNM d          27.234  48.224  -0.428  0.00  0.00     0.071 C 
ATOM      4  N6  MNM d          26.911  47.359  -3.083  0.00  0.00    -0.046 N 
ATOM      5  C8  MNM d          28.262  47.212  -1.007  0.00  0.00     0.017 C 
ATOM      6  C10 MNM d          27.569  46.442  -2.140  0.00  0.00     0.092 C 
ATOM      7  H1  MNM d          27.195  50.210  -1.280  0.00  0.00     0.093 H 
ATOM      8  H2  MNM d          28.097  49.087  -3.091  0.00  0.00     0.133 H 
ATOM      9  H3  MNM d          26.367  47.636  -0.090  0.00  0.00     0.087 H 
ATOM     10  H6  MNM d          27.269  47.143  -4.000  0.00  0.00     0.280 HD
ATOM     11  H7  MNM d          25.925  47.155  -3.051  0.00  0.00     0.280 HD
ATOM     12  H9  MNM d          29.098  47.783  -1.437  0.00  0.00     0.049 H 
ATOM     13  H12 MNM d          28.320  45.849  -2.682  0.00  0.00     0.076 H 
ATOM     14  H13 MNM d          26.814  45.770  -1.708  0.00  0.00     0.076 H 
ENDROOT
BRANCH   5  15
ATOM     15  C9  MNM d          28.859  46.261   0.064  0.00  0.00     0.024 C 
ATOM     16  H10 MNM d          28.906  46.788   1.029  0.00  0.00     0.074 H 
ATOM     17  H11 MNM d          29.872  45.964  -0.242  0.00  0.00     0.074 H 
BRANCH  15  18
ATOM     18  O11 MNM d          28.051  45.096   0.206  0.00  0.00    -0.400 OA
ATOM     19  H14 MNM d          28.394  44.405  -0.348  0.00  0.00     0.209 HD
ENDBRANCH  15  18
ENDBRANCH   5  15
BRANCH   3  20
ATOM     20  O7  MNM d          27.760  48.912   0.719  0.00  0.00    -0.392 OA
ATOM     21  H8  MNM d          28.459  48.397   1.104  0.00  0.00     0.210 HD
ENDBRANCH   3  20
BRANCH   1  22
ATOM     22  O4  MNM d          25.294  49.397  -1.308  0.00  0.00    -0.389 OA
ATOM     23  H4  MNM d          25.032  49.057  -0.460  0.00  0.00     0.210 HD
ENDBRANCH   1  22
BRANCH   2  24
ATOM     24  O5  MNM d          26.225  49.374  -3.901  0.00  0.00    -0.368 OA
ATOM     25  H5  MNM d          25.435  49.717  -3.498  0.00  0.00     0.212 HD
ENDBRANCH   2  24
TORSDOF 5
ENDMDL
