MODEL 1
REMARK VINA RESULT:      -7.5      0.000      0.000
REMARK  1 active torsions:
REMARK  status: ('A' for Active; 'I' for Inactive)
REMARK    1  A    between atoms: C3_3  and  N15_15 
ROOT
ATOM      1  C1  PRL d           9.028  23.285  49.518  0.00  0.00    -0.069 A 
ATOM      2  C2  PRL d           9.826  23.576  48.492  0.00  0.00    -0.057 A 
ATOM      3  C3  PRL d          10.822  22.646  48.008  0.00  0.00     0.028 A 
ATOM      4  C4  PRL d          10.939  21.430  48.654  0.00  0.00    -0.029 A 
ATOM      5  C5  PRL d           9.513  18.183  51.879  0.00  0.00    -0.029 A 
ATOM      6  C6  PRL d           8.687  17.748  52.901  0.00  0.00     0.028 A 
ATOM      7  C7  PRL d           7.676  18.659  53.394  0.00  0.00    -0.057 A 
ATOM      8  C8  PRL d           7.529  19.886  52.892  0.00  0.00    -0.069 A 
ATOM      9  C9  PRL d           8.278  21.622  51.237  0.00  0.00    -0.059 A 
ATOM     10  N10 PRL d          10.189  19.873  50.320  0.00  0.00    -0.247 NA
ATOM     11  C11 PRL d          10.117  21.108  49.714  0.00  0.00     0.070 A 
ATOM     12  C12 PRL d           8.376  20.369  51.821  0.00  0.00    -0.006 A 
ATOM     13  C13 PRL d           9.110  22.018  50.203  0.00  0.00    -0.006 A 
ATOM     14  C14 PRL d           9.377  19.446  51.347  0.00  0.00     0.070 A 
ATOM     15  N16 PRL d           8.799  16.502  53.417  0.00  0.00    -0.399 N 
ATOM     16  H1  PRL d           8.299  24.017  49.846  0.00  0.00     0.085 H 
ATOM     17  H2  PRL d           9.727  24.540  48.006  0.00  0.00     0.086 H 
ATOM     18  H3  PRL d          11.688  20.718  48.324  0.00  0.00     0.090 H 
ATOM     19  H4  PRL d          10.278  17.520  51.492  0.00  0.00     0.090 H 
ATOM     20  H5  PRL d           7.019  18.335  54.194  0.00  0.00     0.086 H 
ATOM     21  H6  PRL d           6.760  20.535  53.294  0.00  0.00     0.085 H 
ATOM     22  H7  PRL d           7.526  22.313  51.600  0.00  0.00     0.086 H 
ATOM     23  H10 PRL d           9.522  15.860  53.061  0.00  0.00     0.156 HD
ATOM     24  H11 PRL d           8.162  16.196  54.167  0.00  0.00     0.156 HD
ENDROOT
BRANCH   3  25
ATOM     25  N15 PRL d          11.548  22.940  46.906  0.00  0.00    -0.399 N 
ATOM     26  H8  PRL d          12.095  22.203  46.438  0.00  0.00     0.156 HD
ATOM     27  H9  PRL d          11.554  23.901  46.534  0.00  0.00     0.156 HD
ENDBRANCH   3  25
TORSDOF 1
ENDMDL
MODEL 2
REMARK VINA RESULT:      -7.4      0.205      5.666
REMARK  1 active torsions:
REMARK  status: ('A' for Active; 'I' for Inactive)
REMARK    1  A    between atoms: C3_3  and  N15_15 
ROOT
ATOM      1  C1  PRL d           7.661  19.777  52.797  0.00  0.00    -0.069 A 
ATOM      2  C2  PRL d           7.882  18.567  53.307  0.00  0.00    -0.057 A 
ATOM      3  C3  PRL d           8.881  17.676  52.760  0.00  0.00     0.028 A 
ATOM      4  C4  PRL d           9.606  18.110  51.666  0.00  0.00    -0.029 A 
ATOM      5  C5  PRL d          10.876  21.448  48.471  0.00  0.00    -0.029 A 
ATOM      6  C6  PRL d          10.783  22.711  47.911  0.00  0.00     0.028 A 
ATOM      7  C7  PRL d           9.797  23.624  48.451  0.00  0.00    -0.057 A 
ATOM      8  C8  PRL d           8.992  23.277  49.457  0.00  0.00    -0.069 A 
ATOM      9  C9  PRL d           8.280  21.535  51.120  0.00  0.00    -0.059 A 
ATOM     10  N10 PRL d          10.158  19.821  50.078  0.00  0.00    -0.247 NA
ATOM     11  C11 PRL d           9.395  19.361  51.128  0.00  0.00     0.070 A 
ATOM     12  C12 PRL d           9.067  21.965  50.065  0.00  0.00    -0.006 A 
ATOM     13  C13 PRL d           8.413  20.270  51.668  0.00  0.00    -0.006 A 
ATOM     14  C14 PRL d          10.055  21.072  49.511  0.00  0.00     0.070 A 
ATOM     15  N16 PRL d          11.598  23.098  46.903  0.00  0.00    -0.399 N 
ATOM     16  H1  PRL d           6.899  20.407  53.240  0.00  0.00     0.085 H 
ATOM     17  H2  PRL d           7.296  18.240  54.159  0.00  0.00     0.086 H 
ATOM     18  H3  PRL d          10.350  17.456  51.225  0.00  0.00     0.090 H 
ATOM     19  H4  PRL d          11.606  20.746  48.086  0.00  0.00     0.090 H 
ATOM     20  H5  PRL d           9.709  24.617  48.025  0.00  0.00     0.086 H 
ATOM     21  H6  PRL d           8.267  23.992  49.826  0.00  0.00     0.085 H 
ATOM     22  H7  PRL d           7.536  22.209  51.530  0.00  0.00     0.086 H 
ATOM     23  H10 PRL d          12.297  22.442  46.525  0.00  0.00     0.156 HD
ATOM     24  H11 PRL d          11.519  24.048  46.513  0.00  0.00     0.156 HD
ENDROOT
BRANCH   3  25
ATOM     25  N15 PRL d           9.141  16.494  53.364  0.00  0.00    -0.399 N 
ATOM     26  H8  PRL d           8.805  15.616  52.944  0.00  0.00     0.156 HD
ATOM     27  H9  PRL d           9.675  16.472  54.245  0.00  0.00     0.156 HD
ENDBRANCH   3  25
TORSDOF 1
ENDMDL
MODEL 3
REMARK VINA RESULT:      -7.2      1.471      6.145
REMARK  1 active torsions:
REMARK  status: ('A' for Active; 'I' for Inactive)
REMARK    1  A    between atoms: C3_3  and  N15_15 
ROOT
ATOM      1  C1  PRL d           9.719  18.734  51.489  0.00  0.00    -0.069 A 
ATOM      2  C2  PRL d           8.917  18.552  52.538  0.00  0.00    -0.057 A 
ATOM      3  C3  PRL d           8.002  19.576  52.990  0.00  0.00     0.028 A 
ATOM      4  C4  PRL d           7.987  20.777  52.307  0.00  0.00    -0.029 A 
ATOM      5  C5  PRL d           9.348  23.626  48.701  0.00  0.00    -0.029 A 
ATOM      6  C6  PRL d          10.079  23.895  47.557  0.00  0.00     0.028 A 
ATOM      7  C7  PRL d          10.994  22.879  47.079  0.00  0.00    -0.057 A 
ATOM      8  C8  PRL d          11.142  21.713  47.710  0.00  0.00    -0.069 A 
ATOM      9  C9  PRL d          10.476  20.211  49.610  0.00  0.00    -0.059 A 
ATOM     10  N10 PRL d           8.748  22.155  50.496  0.00  0.00    -0.247 NA
ATOM     11  C11 PRL d           8.805  20.983  51.216  0.00  0.00     0.070 A 
ATOM     12  C12 PRL d          10.390  21.402  48.908  0.00  0.00    -0.006 A 
ATOM     13  C13 PRL d           9.715  19.969  50.742  0.00  0.00    -0.006 A 
ATOM     14  C14 PRL d           9.486  22.428  49.366  0.00  0.00     0.070 A 
ATOM     15  N16 PRL d           9.936  25.060  46.885  0.00  0.00    -0.399 N 
ATOM     16  H1  PRL d          10.390  17.938  51.191  0.00  0.00     0.085 H 
ATOM     17  H2  PRL d           8.952  17.606  53.067  0.00  0.00     0.086 H 
ATOM     18  H3  PRL d           7.322  21.570  52.633  0.00  0.00     0.090 H 
ATOM     19  H4  PRL d           8.655  24.370  49.079  0.00  0.00     0.090 H 
ATOM     20  H5  PRL d          11.575  23.072  46.184  0.00  0.00     0.086 H 
ATOM     21  H6  PRL d          11.841  20.983  47.318  0.00  0.00     0.085 H 
ATOM     22  H7  PRL d          11.160  19.444  49.263  0.00  0.00     0.086 H 
ATOM     23  H10 PRL d           9.283  25.778  47.231  0.00  0.00     0.156 HD
ATOM     24  H11 PRL d          10.480  25.230  46.027  0.00  0.00     0.156 HD
ENDROOT
BRANCH   3  25
ATOM     25  N15 PRL d           7.138  19.318  53.998  0.00  0.00    -0.399 N 
ATOM     26  H8  PRL d           6.529  18.489  53.954  0.00  0.00     0.156 HD
ATOM     27  H9  PRL d           7.089  19.951  54.809  0.00  0.00     0.156 HD
ENDBRANCH   3  25
TORSDOF 1
ENDMDL
MODEL 4
REMARK VINA RESULT:      -6.9      1.514      2.474
REMARK  1 active torsions:
REMARK  status: ('A' for Active; 'I' for Inactive)
REMARK    1  A    between atoms: C3_3  and  N15_15 
ROOT
ATOM      1  C1  PRL d          11.233  21.636  47.662  0.00  0.00    -0.069 A 
ATOM      2  C2  PRL d          11.173  22.803  47.022  0.00  0.00    -0.057 A 
ATOM      3  C3  PRL d          10.253  23.847  47.415  0.00  0.00     0.028 A 
ATOM      4  C4  PRL d           9.411  23.598  48.482  0.00  0.00    -0.029 A 
ATOM      5  C5  PRL d           7.865  20.901  52.130  0.00  0.00    -0.029 A 
ATOM      6  C6  PRL d           7.896  19.760  52.913  0.00  0.00     0.028 A 
ATOM      7  C7  PRL d           8.817  18.706  52.544  0.00  0.00    -0.057 A 
ATOM      8  C8  PRL d           9.621  18.813  51.484  0.00  0.00    -0.069 A 
ATOM      9  C9  PRL d          10.426  20.188  49.542  0.00  0.00    -0.059 A 
ATOM     10  N10 PRL d           8.668  22.172  50.263  0.00  0.00    -0.247 NA
ATOM     11  C11 PRL d           9.462  22.400  49.161  0.00  0.00     0.070 A 
ATOM     12  C12 PRL d           9.614  19.995  50.648  0.00  0.00    -0.006 A 
ATOM     13  C13 PRL d          10.382  21.351  48.792  0.00  0.00    -0.006 A 
ATOM     14  C14 PRL d           8.688  21.031  51.033  0.00  0.00     0.070 A 
ATOM     15  N16 PRL d           7.107  19.631  54.004  0.00  0.00    -0.399 N 
ATOM     16  H1  PRL d          11.937  20.884  47.327  0.00  0.00     0.085 H 
ATOM     17  H2  PRL d          11.834  22.974  46.180  0.00  0.00     0.086 H 
ATOM     18  H3  PRL d           8.699  24.357  48.789  0.00  0.00     0.090 H 
ATOM     19  H4  PRL d           7.184  21.706  52.385  0.00  0.00     0.090 H 
ATOM     20  H5  PRL d           8.855  17.805  53.145  0.00  0.00     0.086 H 
ATOM     21  H6  PRL d          10.293  17.997  51.244  0.00  0.00     0.085 H 
ATOM     22  H7  PRL d          11.118  19.404  49.255  0.00  0.00     0.086 H 
ATOM     23  H10 PRL d           6.453  20.386  54.260  0.00  0.00     0.156 HD
ATOM     24  H11 PRL d           7.159  18.778  54.580  0.00  0.00     0.156 HD
ENDROOT
BRANCH   3  25
ATOM     25  N15 PRL d          10.288  25.051  46.800  0.00  0.00    -0.399 N 
ATOM     26  H8  PRL d           9.411  25.546  46.588  0.00  0.00     0.156 HD
ATOM     27  H9  PRL d          11.193  25.472  46.543  0.00  0.00     0.156 HD
ENDBRANCH   3  25
TORSDOF 1
ENDMDL
MODEL 5
REMARK VINA RESULT:      -5.5      1.661      6.054
REMARK  1 active torsions:
REMARK  status: ('A' for Active; 'I' for Inactive)
REMARK    1  A    between atoms: C3_3  and  N15_15 
ROOT
ATOM      1  C1  PRL d          10.374  16.968  51.574  0.00  0.00    -0.069 A 
ATOM      2  C2  PRL d           9.761  16.160  52.439  0.00  0.00    -0.057 A 
ATOM      3  C3  PRL d           8.618  16.591  53.212  0.00  0.00     0.028 A 
ATOM      4  C4  PRL d           8.174  17.889  53.042  0.00  0.00    -0.029 A 
ATOM      5  C5  PRL d           8.273  22.157  50.864  0.00  0.00    -0.029 A 
ATOM      6  C6  PRL d           8.784  23.053  49.941  0.00  0.00     0.028 A 
ATOM      7  C7  PRL d           9.922  22.639  49.147  0.00  0.00    -0.057 A 
ATOM      8  C8  PRL d          10.477  21.433  49.288  0.00  0.00    -0.069 A 
ATOM      9  C9  PRL d          10.473  19.200  50.437  0.00  0.00    -0.059 A 
ATOM     10  N10 PRL d           8.314  20.011  51.931  0.00  0.00    -0.247 NA
ATOM     11  C11 PRL d           8.791  18.738  52.148  0.00  0.00     0.070 A 
ATOM     12  C12 PRL d           9.964  20.474  50.243  0.00  0.00    -0.006 A 
ATOM     13  C13 PRL d           9.925  18.322  51.358  0.00  0.00    -0.006 A 
ATOM     14  C14 PRL d           8.831  20.908  51.023  0.00  0.00     0.070 A 
ATOM     15  N16 PRL d           8.231  24.275  49.762  0.00  0.00    -0.399 N 
ATOM     16  H1  PRL d          11.229  16.599  51.020  0.00  0.00     0.085 H 
ATOM     17  H2  PRL d          10.131  15.149  52.566  0.00  0.00     0.086 H 
ATOM     18  H3  PRL d           7.329  18.245  53.621  0.00  0.00     0.090 H 
ATOM     19  H4  PRL d           7.421  22.442  51.470  0.00  0.00     0.090 H 
ATOM     20  H5  PRL d          10.336  23.327  48.419  0.00  0.00     0.086 H 
ATOM     21  H6  PRL d          11.330  21.167  48.674  0.00  0.00     0.085 H 
ATOM     22  H7  PRL d          11.327  18.880  49.851  0.00  0.00     0.086 H 
ATOM     23  H10 PRL d           7.421  24.562  50.331  0.00  0.00     0.156 HD
ATOM     24  H11 PRL d           8.620  24.918  49.058  0.00  0.00     0.156 HD
ENDROOT
BRANCH   3  25
ATOM     25  N15 PRL d           7.966  15.714  54.008  0.00  0.00    -0.399 N 
ATOM     26  H8  PRL d           7.647  16.005  54.943  0.00  0.00     0.156 HD
ATOM     27  H9  PRL d           7.788  14.753  53.680  0.00  0.00     0.156 HD
ENDBRANCH   3  25
TORSDOF 1
ENDMDL
MODEL 6
REMARK VINA RESULT:      -5.0      1.430      5.636
REMARK  1 active torsions:
REMARK  status: ('A' for Active; 'I' for Inactive)
REMARK    1  A    between atoms: C3_3  and  N15_15 
ROOT
ATOM      1  C1  PRL d           8.307  17.493  53.128  0.00  0.00    -0.069 A 
ATOM      2  C2  PRL d           9.197  16.566  53.479  0.00  0.00    -0.057 A 
ATOM      3  C3  PRL d          10.559  16.589  52.994  0.00  0.00     0.028 A 
ATOM      4  C4  PRL d          10.921  17.605  52.130  0.00  0.00    -0.029 A 
ATOM      5  C5  PRL d          10.041  21.682  49.768  0.00  0.00    -0.029 A 
ATOM      6  C6  PRL d           9.223  22.736  49.400  0.00  0.00     0.028 A 
ATOM      7  C7  PRL d           7.858  22.739  49.883  0.00  0.00    -0.057 A 
ATOM      8  C8  PRL d           7.385  21.764  50.660  0.00  0.00    -0.069 A 
ATOM      9  C9  PRL d           7.805  19.608  51.880  0.00  0.00    -0.059 A 
ATOM     10  N10 PRL d          10.390  19.625  50.949  0.00  0.00    -0.247 NA
ATOM     11  C11 PRL d          10.016  18.577  51.760  0.00  0.00     0.070 A 
ATOM     12  C12 PRL d           8.216  20.649  51.064  0.00  0.00    -0.006 A 
ATOM     13  C13 PRL d           8.656  18.579  52.243  0.00  0.00    -0.006 A 
ATOM     14  C14 PRL d           9.571  20.666  50.570  0.00  0.00     0.070 A 
ATOM     15  N16 PRL d           9.681  23.748  48.628  0.00  0.00    -0.399 N 
ATOM     16  H1  PRL d           7.297  17.431  53.515  0.00  0.00     0.085 H 
ATOM     17  H2  PRL d           8.891  15.771  54.149  0.00  0.00     0.086 H 
ATOM     18  H3  PRL d          11.931  17.639  51.737  0.00  0.00     0.090 H 
ATOM     19  H4  PRL d          11.068  21.655  49.419  0.00  0.00     0.090 H 
ATOM     20  H5  PRL d           7.203  23.557  49.605  0.00  0.00     0.086 H 
ATOM     21  H6  PRL d           6.355  21.807  50.996  0.00  0.00     0.085 H 
ATOM     22  H7  PRL d           6.784  19.599  52.245  0.00  0.00     0.086 H 
ATOM     23  H10 PRL d          10.653  23.738  48.288  0.00  0.00     0.156 HD
ATOM     24  H11 PRL d           9.056  24.530  48.380  0.00  0.00     0.156 HD
ENDROOT
BRANCH   3  25
ATOM     25  N15 PRL d          11.457  15.686  53.447  0.00  0.00    -0.399 N 
ATOM     26  H8  PRL d          12.439  15.737  53.141  0.00  0.00     0.156 HD
ATOM     27  H9  PRL d          11.160  14.946  54.099  0.00  0.00     0.156 HD
ENDBRANCH   3  25
TORSDOF 1
ENDMDL
MODEL 7
REMARK VINA RESULT:      -4.6      1.796      5.977
REMARK  1 active torsions:
REMARK  status: ('A' for Active; 'I' for Inactive)
REMARK    1  A    between atoms: C3_3  and  N15_15 
ROOT
ATOM      1  C1  PRL d           9.125  16.736  50.291  0.00  0.00    -0.069 A 
ATOM      2  C2  PRL d           8.599  15.959  51.237  0.00  0.00    -0.057 A 
ATOM      3  C3  PRL d           8.133  16.494  52.497  0.00  0.00     0.028 A 
ATOM      4  C4  PRL d           8.261  17.854  52.710  0.00  0.00    -0.029 A 
ATOM      5  C5  PRL d           9.356  22.290  51.263  0.00  0.00    -0.029 A 
ATOM      6  C6  PRL d           9.814  23.197  50.323  0.00  0.00     0.028 A 
ATOM      7  C7  PRL d          10.275  22.685  49.050  0.00  0.00    -0.057 A 
ATOM      8  C8  PRL d          10.267  21.380  48.772  0.00  0.00    -0.069 A 
ATOM      9  C9  PRL d           9.737  19.040  49.515  0.00  0.00    -0.059 A 
ATOM     10  N10 PRL d           8.869  20.038  51.924  0.00  0.00    -0.247 NA
ATOM     11  C11 PRL d           8.797  18.675  51.741  0.00  0.00     0.070 A 
ATOM     12  C12 PRL d           9.792  20.407  49.733  0.00  0.00    -0.006 A 
ATOM     13  C13 PRL d           9.255  18.162  50.472  0.00  0.00    -0.006 A 
ATOM     14  C14 PRL d           9.339  20.939  50.994  0.00  0.00     0.070 A 
ATOM     15  N16 PRL d           9.817  24.528  50.569  0.00  0.00    -0.399 N 
ATOM     16  H1  PRL d           9.463  16.287  49.365  0.00  0.00     0.085 H 
ATOM     17  H2  PRL d           8.518  14.893  51.057  0.00  0.00     0.086 H 
ATOM     18  H3  PRL d           7.935  18.281  53.652  0.00  0.00     0.090 H 
ATOM     19  H4  PRL d           9.005  22.648  52.224  0.00  0.00     0.090 H 
ATOM     20  H5  PRL d          10.638  23.381  48.302  0.00  0.00     0.086 H 
ATOM     21  H6  PRL d          10.625  21.041  47.806  0.00  0.00     0.085 H 
ATOM     22  H7  PRL d          10.083  18.645  48.567  0.00  0.00     0.086 H 
ATOM     23  H10 PRL d           9.487  24.885  51.478  0.00  0.00     0.156 HD
ATOM     24  H11 PRL d          10.149  25.184  49.848  0.00  0.00     0.156 HD
ENDROOT
BRANCH   3  25
ATOM     25  N15 PRL d           7.520  15.688  53.393  0.00  0.00    -0.399 N 
ATOM     26  H8  PRL d           7.622  15.867  54.402  0.00  0.00     0.156 HD
ATOM     27  H9  PRL d           6.950  14.895  53.066  0.00  0.00     0.156 HD
ENDBRANCH   3  25
TORSDOF 1
ENDMDL
