MODEL 1
REMARK VINA RESULT:      -5.9      0.000      0.000
REMARK  5 active torsions:
REMARK  status: ('A' for Active; 'I' for Inactive)
REMARK    1  A    between atoms: C2_2  and  O2_8 
REMARK    2  A    between atoms: C3_3  and  O3_9 
REMARK    3  A    between atoms: C4_4  and  O4_10 
REMARK    4  A    between atoms: C5_5  and  C6_6 
REMARK    5  A    between atoms: C6_6  and  O6_12 
ROOT
ATOM      1  C1  MOL d         -10.339 -29.685 -28.887  0.00  0.00     0.291 C 
ATOM      2  C2  MOL d         -11.426 -28.874 -28.165  0.00  0.00     0.146 C 
ATOM      3  C3  MOL d         -10.918 -28.430 -26.794  0.00  0.00     0.096 C 
ATOM      4  C4  MOL d         -10.385 -29.628 -26.011  0.00  0.00     0.090 C 
ATOM      5  C5  MOL d          -9.104 -30.124 -26.708  0.00  0.00     0.095 C 
ATOM      6  O1  MOL d         -10.398 -29.840 -30.080  0.00  0.00    -0.262 OA
ATOM      7  O5  MOL d          -9.289 -30.246 -28.177  0.00  0.00    -0.309 OA
ATOM      8  H1  MOL d         -12.324 -29.497 -28.042  0.00  0.00     0.103 H 
ATOM      9  H2  MOL d         -10.107 -27.699 -26.927  0.00  0.00     0.091 H 
ATOM     10  H3  MOL d         -10.156 -29.325 -24.979  0.00  0.00     0.091 H 
ATOM     11  H4  MOL d          -8.296 -29.405 -26.508  0.00  0.00     0.091 H 
ENDROOT
BRANCH   5  12
ATOM     12  C6  MOL d          -8.703 -31.497 -26.169  0.00  0.00     0.044 C 
ATOM     13  H5  MOL d          -7.658 -31.703 -26.444  0.00  0.00     0.078 H 
ATOM     14  H6  MOL d          -9.356 -32.265 -26.609  0.00  0.00     0.078 H 
BRANCH  12  15
ATOM     15  O6  MOL d          -8.831 -31.526 -24.749  0.00  0.00    -0.398 OA
ATOM     16  H10 MOL d          -9.751 -31.577 -24.516  0.00  0.00     0.209 HD
ENDBRANCH  12  15
ENDBRANCH   5  12
BRANCH   4  17
ATOM     17  O4  MOL d         -11.365 -30.675 -25.996  0.00  0.00    -0.390 OA
ATOM     18  H9  MOL d         -11.684 -30.823 -26.878  0.00  0.00     0.210 HD
ENDBRANCH   4  17
BRANCH   3  19
ATOM     19  O3  MOL d         -11.982 -27.826 -26.087  0.00  0.00    -0.390 OA
ATOM     20  H8  MOL d         -12.265 -28.404 -25.388  0.00  0.00     0.210 HD
ENDBRANCH   3  19
BRANCH   2  21
ATOM     21  O2  MOL d         -11.755 -27.701 -28.928  0.00  0.00    -0.383 OA
ATOM     22  H7  MOL d         -11.160 -27.627 -29.665  0.00  0.00     0.210 HD
ENDBRANCH   2  21
TORSDOF 5
ENDMDL
MODEL 2
REMARK VINA RESULT:      -5.4      1.446      3.927
REMARK  5 active torsions:
REMARK  status: ('A' for Active; 'I' for Inactive)
REMARK    1  A    between atoms: C2_2  and  O2_8 
REMARK    2  A    between atoms: C3_3  and  O3_9 
REMARK    3  A    between atoms: C4_4  and  O4_10 
REMARK    4  A    between atoms: C5_5  and  C6_6 
REMARK    5  A    between atoms: C6_6  and  O6_12 
ROOT
ATOM      1  C1  MOL d         -10.849 -27.834 -26.595  0.00  0.00     0.291 C 
ATOM      2  C2  MOL d          -9.973 -28.887 -25.900  0.00  0.00     0.146 C 
ATOM      3  C3  MOL d          -9.012 -29.513 -26.911  0.00  0.00     0.096 C 
ATOM      4  C4  MOL d          -9.780 -30.019 -28.130  0.00  0.00     0.090 C 
ATOM      5  C5  MOL d         -10.331 -28.798 -28.890  0.00  0.00     0.095 C 
ATOM      6  O1  MOL d         -11.422 -27.003 -25.939  0.00  0.00    -0.262 OA
ATOM      7  O5  MOL d         -10.988 -27.830 -27.974  0.00  0.00    -0.309 OA
ATOM      8  H1  MOL d         -10.617 -29.669 -25.469  0.00  0.00     0.103 H 
ATOM      9  H2  MOL d          -8.283 -28.756 -27.236  0.00  0.00     0.091 H 
ATOM     10  H3  MOL d          -9.105 -30.592 -28.783  0.00  0.00     0.091 H 
ATOM     11  H4  MOL d          -9.495 -28.297 -29.400  0.00  0.00     0.091 H 
ENDROOT
BRANCH   5  12
ATOM     12  C6  MOL d         -11.364 -29.238 -29.928  0.00  0.00     0.044 C 
ATOM     13  H5  MOL d         -11.669 -28.368 -30.527  0.00  0.00     0.078 H 
ATOM     14  H6  MOL d         -12.241 -29.656 -29.412  0.00  0.00     0.078 H 
BRANCH  12  15
ATOM     15  O6  MOL d         -10.807 -30.230 -30.788  0.00  0.00    -0.398 OA
ATOM     16  H10 MOL d          -9.959 -30.500 -30.452  0.00  0.00     0.209 HD
ENDBRANCH  12  15
ENDBRANCH   5  12
BRANCH   4  17
ATOM     17  O4  MOL d         -10.865 -30.859 -27.710  0.00  0.00    -0.390 OA
ATOM     18  H9  MOL d         -10.551 -31.481 -27.064  0.00  0.00     0.210 HD
ENDBRANCH   4  17
BRANCH   3  19
ATOM     19  O3  MOL d          -8.332 -30.584 -26.290  0.00  0.00    -0.390 OA
ATOM     20  H8  MOL d          -7.823 -30.254 -25.559  0.00  0.00     0.210 HD
ENDBRANCH   3  19
BRANCH   2  21
ATOM     21  O2  MOL d          -9.196 -28.275 -24.857  0.00  0.00    -0.383 OA
ATOM     22  H7  MOL d          -9.540 -28.538 -24.012  0.00  0.00     0.210 HD
ENDBRANCH   2  21
TORSDOF 5
ENDMDL
MODEL 3
REMARK VINA RESULT:      -4.6      1.245      4.182
REMARK  5 active torsions:
REMARK  status: ('A' for Active; 'I' for Inactive)
REMARK    1  A    between atoms: C2_2  and  O2_8 
REMARK    2  A    between atoms: C3_3  and  O3_9 
REMARK    3  A    between atoms: C4_4  and  O4_10 
REMARK    4  A    between atoms: C5_5  and  C6_6 
REMARK    5  A    between atoms: C6_6  and  O6_12 
ROOT
ATOM      1  C1  MOL d         -11.342 -30.897 -26.191  0.00  0.00     0.291 C 
ATOM      2  C2  MOL d          -9.807 -30.841 -26.182  0.00  0.00     0.146 C 
ATOM      3  C3  MOL d          -9.339 -29.417 -26.478  0.00  0.00     0.096 C 
ATOM      4  C4  MOL d          -9.993 -28.896 -27.755  0.00  0.00     0.090 C 
ATOM      5  C5  MOL d         -11.498 -28.713 -27.481  0.00  0.00     0.095 C 
ATOM      6  O1  MOL d         -11.912 -31.818 -25.663  0.00  0.00    -0.262 OA
ATOM      7  O5  MOL d         -12.082 -29.897 -26.802  0.00  0.00    -0.309 OA
ATOM      8  H1  MOL d          -9.414 -31.526 -26.949  0.00  0.00     0.103 H 
ATOM      9  H2  MOL d          -9.617 -28.762 -25.640  0.00  0.00     0.091 H 
ATOM     10  H3  MOL d          -9.545 -27.932 -28.037  0.00  0.00     0.091 H 
ATOM     11  H4  MOL d         -11.631 -27.830 -26.839  0.00  0.00     0.091 H 
ENDROOT
BRANCH   5  12
ATOM     12  C6  MOL d         -12.255 -28.501 -28.792  0.00  0.00     0.044 C 
ATOM     13  H5  MOL d         -13.128 -27.857 -28.607  0.00  0.00     0.078 H 
ATOM     14  H6  MOL d         -12.593 -29.475 -29.177  0.00  0.00     0.078 H 
BRANCH  12  15
ATOM     15  O6  MOL d         -11.409 -27.881 -29.757  0.00  0.00    -0.398 OA
ATOM     16  H10 MOL d         -10.957 -27.147 -29.356  0.00  0.00     0.209 HD
ENDBRANCH  12  15
ENDBRANCH   5  12
BRANCH   4  17
ATOM     17  O4  MOL d          -9.806 -29.840 -28.820  0.00  0.00    -0.390 OA
ATOM     18  H9  MOL d         -10.411 -29.644 -29.525  0.00  0.00     0.210 HD
ENDBRANCH   4  17
BRANCH   3  19
ATOM     19  O3  MOL d          -7.933 -29.421 -26.624  0.00  0.00    -0.390 OA
ATOM     20  H8  MOL d          -7.534 -29.746 -25.825  0.00  0.00     0.210 HD
ENDBRANCH   3  19
BRANCH   2  21
ATOM     21  O2  MOL d          -9.305 -31.224 -24.891  0.00  0.00    -0.383 OA
ATOM     22  H7  MOL d         -10.034 -31.412 -24.313  0.00  0.00     0.210 HD
ENDBRANCH   2  21
TORSDOF 5
ENDMDL
MODEL 4
REMARK VINA RESULT:      -4.5      1.418      3.645
REMARK  5 active torsions:
REMARK  status: ('A' for Active; 'I' for Inactive)
REMARK    1  A    between atoms: C2_2  and  O2_8 
REMARK    2  A    between atoms: C3_3  and  O3_9 
REMARK    3  A    between atoms: C4_4  and  O4_10 
REMARK    4  A    between atoms: C5_5  and  C6_6 
REMARK    5  A    between atoms: C6_6  and  O6_12 
ROOT
ATOM      1  C1  MOL d          -9.107 -30.748 -27.413  0.00  0.00     0.291 C 
ATOM      2  C2  MOL d          -9.036 -29.617 -26.375  0.00  0.00     0.146 C 
ATOM      3  C3  MOL d         -10.385 -28.903 -26.294  0.00  0.00     0.096 C 
ATOM      4  C4  MOL d         -10.842 -28.470 -27.684  0.00  0.00     0.090 C 
ATOM      5  C5  MOL d         -11.173 -29.737 -28.496  0.00  0.00     0.095 C 
ATOM      6  O1  MOL d          -8.287 -31.630 -27.396  0.00  0.00    -0.262 OA
ATOM      7  O5  MOL d         -10.106 -30.763 -28.374  0.00  0.00    -0.309 OA
ATOM      8  H1  MOL d          -8.256 -28.901 -26.671  0.00  0.00     0.103 H 
ATOM      9  H2  MOL d         -11.133 -29.587 -25.867  0.00  0.00     0.091 H 
ATOM     10  H3  MOL d         -11.737 -27.836 -27.601  0.00  0.00     0.091 H 
ATOM     11  H4  MOL d         -12.118 -30.156 -28.119  0.00  0.00     0.091 H 
ENDROOT
BRANCH   5  12
ATOM     12  C6  MOL d         -11.329 -29.395 -29.977  0.00  0.00     0.044 C 
ATOM     13  H5  MOL d         -10.983 -28.365 -30.150  0.00  0.00     0.078 H 
ATOM     14  H6  MOL d         -12.389 -29.478 -30.259  0.00  0.00     0.078 H 
BRANCH  12  15
ATOM     15  O6  MOL d         -10.558 -30.290 -30.775  0.00  0.00    -0.398 OA
ATOM     16  H10 MOL d         -11.107 -30.659 -31.457  0.00  0.00     0.209 HD
ENDBRANCH  12  15
ENDBRANCH   5  12
BRANCH   4  17
ATOM     17  O4  MOL d          -9.795 -27.737 -28.336  0.00  0.00    -0.390 OA
ATOM     18  H9  MOL d          -9.917 -26.808 -28.181  0.00  0.00     0.210 HD
ENDBRANCH   4  17
BRANCH   3  19
ATOM     19  O3  MOL d         -10.252 -27.773 -25.456  0.00  0.00    -0.390 OA
ATOM     20  H8  MOL d         -11.040 -27.245 -25.510  0.00  0.00     0.210 HD
ENDBRANCH   3  19
BRANCH   2  21
ATOM     21  O2  MOL d          -8.729 -30.155 -25.078  0.00  0.00    -0.383 OA
ATOM     22  H7  MOL d          -9.526 -30.214 -24.564  0.00  0.00     0.210 HD
ENDBRANCH   2  21
TORSDOF 5
ENDMDL
MODEL 5
REMARK VINA RESULT:      -4.4      1.227      2.839
REMARK  5 active torsions:
REMARK  status: ('A' for Active; 'I' for Inactive)
REMARK    1  A    between atoms: C2_2  and  O2_8 
REMARK    2  A    between atoms: C3_3  and  O3_9 
REMARK    3  A    between atoms: C4_4  and  O4_10 
REMARK    4  A    between atoms: C5_5  and  C6_6 
REMARK    5  A    between atoms: C6_6  and  O6_12 
ROOT
ATOM      1  C1  MOL d         -11.683 -28.269 -27.282  0.00  0.00     0.291 C 
ATOM      2  C2  MOL d         -11.300 -28.405 -28.764  0.00  0.00     0.146 C 
ATOM      3  C3  MOL d         -10.816 -29.827 -29.045  0.00  0.00     0.096 C 
ATOM      4  C4  MOL d          -9.718 -30.219 -28.060  0.00  0.00     0.090 C 
ATOM      5  C5  MOL d         -10.351 -30.343 -26.662  0.00  0.00     0.095 C 
ATOM      6  O1  MOL d         -12.388 -27.360 -26.926  0.00  0.00    -0.262 OA
ATOM      7  O5  MOL d         -11.222 -29.182 -26.347  0.00  0.00    -0.309 OA
ATOM      8  H1  MOL d         -10.500 -27.688 -29.000  0.00  0.00     0.103 H 
ATOM      9  H2  MOL d         -11.659 -30.526 -28.940  0.00  0.00     0.091 H 
ATOM     10  H3  MOL d          -9.278 -31.183 -28.358  0.00  0.00     0.091 H 
ATOM     11  H4  MOL d         -10.956 -31.262 -26.632  0.00  0.00     0.091 H 
ENDROOT
BRANCH   5  12
ATOM     12  C6  MOL d          -9.264 -30.420 -25.590  0.00  0.00     0.044 C 
ATOM     13  H5  MOL d          -8.462 -31.089 -25.934  0.00  0.00     0.078 H 
ATOM     14  H6  MOL d          -9.699 -30.816 -24.660  0.00  0.00     0.078 H 
BRANCH  12  15
ATOM     15  O6  MOL d          -8.723 -29.124 -25.342  0.00  0.00    -0.398 OA
ATOM     16  H10 MOL d          -9.387 -28.467 -25.514  0.00  0.00     0.209 HD
ENDBRANCH  12  15
ENDBRANCH   5  12
BRANCH   4  17
ATOM     17  O4  MOL d          -8.696 -29.213 -28.042  0.00  0.00    -0.390 OA
ATOM     18  H9  MOL d          -8.232 -29.219 -28.871  0.00  0.00     0.210 HD
ENDBRANCH   4  17
BRANCH   3  19
ATOM     19  O3  MOL d         -10.321 -29.886 -30.368  0.00  0.00    -0.390 OA
ATOM     20  H8  MOL d         -10.156 -29.005 -30.683  0.00  0.00     0.210 HD
ENDBRANCH   3  19
BRANCH   2  21
ATOM     21  O2  MOL d         -12.443 -28.143 -29.596  0.00  0.00    -0.383 OA
ATOM     22  H7  MOL d         -12.356 -28.623 -30.411  0.00  0.00     0.210 HD
ENDBRANCH   2  21
TORSDOF 5
ENDMDL
MODEL 6
REMARK VINA RESULT:      -4.3      1.328      3.873
REMARK  5 active torsions:
REMARK  status: ('A' for Active; 'I' for Inactive)
REMARK    1  A    between atoms: C2_2  and  O2_8 
REMARK    2  A    between atoms: C3_3  and  O3_9 
REMARK    3  A    between atoms: C4_4  and  O4_10 
REMARK    4  A    between atoms: C5_5  and  C6_6 
REMARK    5  A    between atoms: C6_6  and  O6_12 
ROOT
ATOM      1  C1  MOL d          -9.361 -29.697 -26.970  0.00  0.00     0.291 C 
ATOM      2  C2  MOL d         -10.151 -30.423 -25.870  0.00  0.00     0.146 C 
ATOM      3  C3  MOL d         -11.411 -31.050 -26.466  0.00  0.00     0.096 C 
ATOM      4  C4  MOL d         -12.207 -30.006 -27.246  0.00  0.00     0.090 C 
ATOM      5  C5  MOL d         -11.393 -29.619 -28.495  0.00  0.00     0.095 C 
ATOM      6  O1  MOL d          -8.199 -29.430 -26.796  0.00  0.00    -0.262 OA
ATOM      7  O5  MOL d          -9.972 -29.343 -28.162  0.00  0.00    -0.309 OA
ATOM      8  H1  MOL d         -10.431 -29.702 -25.088  0.00  0.00     0.103 H 
ATOM      9  H2  MOL d         -11.124 -31.865 -27.147  0.00  0.00     0.091 H 
ATOM     10  H3  MOL d         -13.177 -30.427 -27.548  0.00  0.00     0.091 H 
ATOM     11  H4  MOL d         -11.437 -30.451 -29.213  0.00  0.00     0.091 H 
ENDROOT
BRANCH   5  12
ATOM     12  C6  MOL d         -11.976 -28.363 -29.143  0.00  0.00     0.044 C 
ATOM     13  H5  MOL d         -12.285 -27.659 -28.356  0.00  0.00     0.078 H 
ATOM     14  H6  MOL d         -12.850 -28.641 -29.750  0.00  0.00     0.078 H 
BRANCH  12  15
ATOM     15  O6  MOL d         -11.002 -27.739 -29.976  0.00  0.00    -0.398 OA
ATOM     16  H10 MOL d         -10.201 -28.250 -29.963  0.00  0.00     0.209 HD
ENDBRANCH  12  15
ENDBRANCH   5  12
BRANCH   4  17
ATOM     17  O4  MOL d         -12.423 -28.846 -26.429  0.00  0.00    -0.390 OA
ATOM     18  H9  MOL d         -12.405 -29.098 -25.514  0.00  0.00     0.210 HD
ENDBRANCH   4  17
BRANCH   3  19
ATOM     19  O3  MOL d         -12.200 -31.572 -25.416  0.00  0.00    -0.390 OA
ATOM     20  H8  MOL d         -11.738 -32.291 -25.002  0.00  0.00     0.210 HD
ENDBRANCH   3  19
BRANCH   2  21
ATOM     21  O2  MOL d          -9.352 -31.470 -25.297  0.00  0.00    -0.383 OA
ATOM     22  H7  MOL d          -9.686 -32.313 -25.579  0.00  0.00     0.210 HD
ENDBRANCH   2  21
TORSDOF 5
ENDMDL
MODEL 7
REMARK VINA RESULT:      -4.2      1.475      2.489
REMARK  5 active torsions:
REMARK  status: ('A' for Active; 'I' for Inactive)
REMARK    1  A    between atoms: C2_2  and  O2_8 
REMARK    2  A    between atoms: C3_3  and  O3_9 
REMARK    3  A    between atoms: C4_4  and  O4_10 
REMARK    4  A    between atoms: C5_5  and  C6_6 
REMARK    5  A    between atoms: C6_6  and  O6_12 
ROOT
ATOM      1  C1  MOL d         -11.382 -30.605 -26.360  0.00  0.00     0.291 C 
ATOM      2  C2  MOL d         -11.200 -29.291 -27.135  0.00  0.00     0.146 C 
ATOM      3  C3  MOL d          -9.984 -29.395 -28.054  0.00  0.00     0.096 C 
ATOM      4  C4  MOL d          -8.758 -29.849 -27.264  0.00  0.00     0.090 C 
ATOM      5  C5  MOL d          -8.985 -31.309 -26.829  0.00  0.00     0.095 C 
ATOM      6  O1  MOL d         -12.442 -30.859 -25.848  0.00  0.00    -0.262 OA
ATOM      7  O5  MOL d         -10.335 -31.506 -26.242  0.00  0.00    -0.309 OA
ATOM      8  H1  MOL d         -11.056 -28.466 -26.421  0.00  0.00     0.103 H 
ATOM      9  H2  MOL d         -10.190 -30.126 -28.849  0.00  0.00     0.091 H 
ATOM     10  H3  MOL d          -7.862 -29.783 -27.899  0.00  0.00     0.091 H 
ATOM     11  H4  MOL d          -8.880 -31.958 -27.711  0.00  0.00     0.091 H 
ENDROOT
BRANCH   5  12
ATOM     12  C6  MOL d          -7.952 -31.718 -25.779  0.00  0.00     0.044 C 
ATOM     13  H5  MOL d          -7.104 -31.017 -25.811  0.00  0.00     0.078 H 
ATOM     14  H6  MOL d          -7.595 -32.735 -25.997  0.00  0.00     0.078 H 
BRANCH  12  15
ATOM     15  O6  MOL d          -8.534 -31.691 -24.477  0.00  0.00    -0.398 OA
ATOM     16  H10 MOL d          -9.256 -32.308 -24.442  0.00  0.00     0.209 HD
ENDBRANCH  12  15
ENDBRANCH   5  12
BRANCH   4  17
ATOM     17  O4  MOL d          -8.587 -29.019 -26.107  0.00  0.00    -0.390 OA
ATOM     18  H9  MOL d          -9.186 -28.283 -26.155  0.00  0.00     0.210 HD
ENDBRANCH   4  17
BRANCH   3  19
ATOM     19  O3  MOL d          -9.742 -28.128 -28.633  0.00  0.00    -0.390 OA
ATOM     20  H8  MOL d         -10.464 -27.900 -29.207  0.00  0.00     0.210 HD
ENDBRANCH   3  19
BRANCH   2  21
ATOM     21  O2  MOL d         -12.359 -29.030 -27.944  0.00  0.00    -0.383 OA
ATOM     22  H7  MOL d         -13.108 -29.486 -27.579  0.00  0.00     0.210 HD
ENDBRANCH   2  21
TORSDOF 5
ENDMDL
