MODEL 1
REMARK VINA RESULT:     -10.0      0.000      0.000
REMARK  11 active torsions:
REMARK  status: ('A' for Active; 'I' for Inactive)
REMARK    1  A    between atoms: CAA_1  and  CAP_2 
REMARK    2  A    between atoms: CAP_2  and  CAQ_3 
REMARK    3  A    between atoms: CAQ_3  and  CAS_4 
REMARK    4  A    between atoms: CAS_4  and  CAV_5 
REMARK    5  A    between atoms: CAX_10  and  CAY_11 
REMARK    6  A    between atoms: CAW_16  and  CAT_17 
REMARK    7  A    between atoms: CAT_17  and  CAR_18 
REMARK    8  A    between atoms: CAR_18  and  CAU_19 
REMARK    9  A    between atoms: CAU_19  and  CAZ_20 
REMARK   10  A    between atoms: CAZ_20  and  PBA_21 
REMARK   11  A    between atoms: CAZ_20  and  SBB_25 
ROOT
ATOM      1  CAY B69 d          14.262  56.738  37.776  0.00  0.00    -0.026 A 
ATOM      2  CAO B69 d          15.050  56.226  38.802  0.00  0.00    -0.072 A 
ATOM      3  CAK B69 d          15.941  55.189  38.539  0.00  0.00    -0.076 A 
ATOM      4  CAN B69 d          14.354  56.197  36.500  0.00  0.00    -0.072 A 
ATOM      5  CAJ B69 d          15.246  55.163  36.237  0.00  0.00    -0.076 A 
ATOM      6  CAW B69 d          16.046  54.661  37.258  0.00  0.00    -0.058 A 
ATOM      7  H14 B69 d          14.970  56.633  39.804  0.00  0.00     0.084 H 
ATOM      8  H15 B69 d          16.556  54.791  39.338  0.00  0.00     0.084 H 
ATOM      9  H16 B69 d          13.727  56.584  35.704  0.00  0.00     0.084 H 
ATOM     10  H17 B69 d          15.318  54.748  35.238  0.00  0.00     0.084 H 
ENDROOT
BRANCH   1  11
ATOM     11  CAX B69 d          13.474  57.862  38.002  0.00  0.00    -0.026 A 
ATOM     12  CAM B69 d          12.473  58.234  37.111  0.00  0.00    -0.072 A 
ATOM     13  CAI B69 d          11.759  59.410  37.316  0.00  0.00    -0.076 A 
ATOM     14  H11 B69 d          12.250  57.608  36.255  0.00  0.00     0.084 H 
ATOM     15  CAV B69 d          12.029  60.215  38.418  0.00  0.00    -0.058 A 
ATOM     16  H10 B69 d          10.987  59.700  36.613  0.00  0.00     0.084 H 
ATOM     17  CAH B69 d          13.039  59.850  39.299  0.00  0.00    -0.076 A 
ATOM     18  CAL B69 d          13.755  58.676  39.093  0.00  0.00    -0.072 A 
ATOM     19  H12 B69 d          13.271  60.483  40.148  0.00  0.00     0.084 H 
ATOM     20  H13 B69 d          14.538  58.394  39.788  0.00  0.00     0.084 H 
BRANCH  15  21
ATOM     21  CAS B69 d          11.060  61.332  38.816  0.00  0.00    -0.041 C 
ATOM     22  H8  B69 d          10.658  61.089  39.810  0.00  0.00     0.040 H 
ATOM     23  H9  B69 d          11.631  62.269  38.870  0.00  0.00     0.040 H 
BRANCH  21  24
ATOM     24  CAQ B69 d           9.874  61.559  37.875  0.00  0.00    -0.062 C 
ATOM     25  H6  B69 d           9.794  62.628  37.628  0.00  0.00     0.033 H 
ATOM     26  H7  B69 d          10.014  60.978  36.951  0.00  0.00     0.033 H 
BRANCH  24  27
ATOM     27  CAP B69 d           8.604  61.095  38.595  0.00  0.00    -0.068 C 
ATOM     28  H4  B69 d           8.694  61.335  39.665  0.00  0.00     0.032 H 
ATOM     29  H5  B69 d           7.741  61.628  38.172  0.00  0.00     0.032 H 
BRANCH  27  30
ATOM     30  CAA B69 d           8.379  59.590  38.443  0.00  0.00    -0.077 C 
ATOM     31  H1  B69 d           7.883  59.201  39.345  0.00  0.00     0.027 H 
ATOM     32  H2  B69 d           9.348  59.085  38.312  0.00  0.00     0.027 H 
ATOM     33  H3  B69 d           7.745  59.400  37.565  0.00  0.00     0.027 H 
ENDBRANCH  27  30
ENDBRANCH  24  27
ENDBRANCH  21  24
ENDBRANCH  15  21
ENDBRANCH   1  11
BRANCH   6  34
ATOM     34  CAT B69 d          17.068  53.553  36.978  0.00  0.00    -0.041 C 
ATOM     35  H18 B69 d          17.991  54.008  36.589  0.00  0.00     0.040 H 
ATOM     36  H19 B69 d          16.652  52.865  36.227  0.00  0.00     0.040 H 
BRANCH  34  37
ATOM     37  CAR B69 d          17.399  52.763  38.245  0.00  0.00    -0.059 C 
ATOM     38  H20 B69 d          16.740  51.885  38.304  0.00  0.00     0.033 H 
ATOM     39  H21 B69 d          17.234  53.406  39.123  0.00  0.00     0.033 H 
BRANCH  37  40
ATOM     40  CAU B69 d          18.856  52.294  38.237  0.00  0.00    -0.034 C 
ATOM     41  H22 B69 d          18.873  51.203  38.368  0.00  0.00     0.036 H 
ATOM     42  H23 B69 d          19.384  52.774  39.075  0.00  0.00     0.036 H 
BRANCH  40  43
ATOM     43  CAZ B69 d          19.586  52.640  36.939  0.00  0.00     0.169 C 
ATOM     44  H24 B69 d          18.855  53.006  36.202  0.00  0.00     0.090 H 
BRANCH  43  45
ATOM     45  PBA B69 d          20.429  51.156  36.253  0.00  0.00     0.281 P 
ATOM     46  OAC B69 d          19.285  50.153  35.722  0.00  0.00    -0.639 OA
ATOM     47  OAD B69 d          21.241  51.663  34.959  0.00  0.00    -0.639 OA
ATOM     48  OAB B69 d          21.297  50.509  37.263  0.00  0.00    -0.639 OA
ENDBRANCH  43  45
BRANCH  43  49
ATOM     49  SBB B69 d          20.810  53.958  37.277  0.00  0.00     0.119 S 
ATOM     50  OAG B69 d          20.421  54.669  38.455  0.00  0.00    -0.594 OA
ATOM     51  OAF B69 d          20.861  54.900  36.112  0.00  0.00    -0.594 OA
ATOM     52  OAE B69 d          22.162  53.335  37.476  0.00  0.00    -0.594 OA
ENDBRANCH  43  49
ENDBRANCH  40  43
ENDBRANCH  37  40
ENDBRANCH  34  37
ENDBRANCH   6  34
TORSDOF 11
ENDMDL
MODEL 2
REMARK VINA RESULT:      -9.8      0.955      2.470
REMARK  11 active torsions:
REMARK  status: ('A' for Active; 'I' for Inactive)
REMARK    1  A    between atoms: CAA_1  and  CAP_2 
REMARK    2  A    between atoms: CAP_2  and  CAQ_3 
REMARK    3  A    between atoms: CAQ_3  and  CAS_4 
REMARK    4  A    between atoms: CAS_4  and  CAV_5 
REMARK    5  A    between atoms: CAX_10  and  CAY_11 
REMARK    6  A    between atoms: CAW_16  and  CAT_17 
REMARK    7  A    between atoms: CAT_17  and  CAR_18 
REMARK    8  A    between atoms: CAR_18  and  CAU_19 
REMARK    9  A    between atoms: CAU_19  and  CAZ_20 
REMARK   10  A    between atoms: CAZ_20  and  PBA_21 
REMARK   11  A    between atoms: CAZ_20  and  SBB_25 
ROOT
ATOM      1  CAY B69 d          14.614  56.774  38.082  0.00  0.00    -0.026 A 
ATOM      2  CAO B69 d          14.707  56.040  36.903  0.00  0.00    -0.072 A 
ATOM      3  CAK B69 d          15.462  54.871  36.873  0.00  0.00    -0.076 A 
ATOM      4  CAN B69 d          15.292  56.345  39.216  0.00  0.00    -0.072 A 
ATOM      5  CAJ B69 d          16.044  55.175  39.186  0.00  0.00    -0.076 A 
ATOM      6  CAW B69 d          16.125  54.433  38.013  0.00  0.00    -0.058 A 
ATOM      7  H14 B69 d          14.193  56.379  36.011  0.00  0.00     0.084 H 
ATOM      8  H15 B69 d          15.532  54.299  35.955  0.00  0.00     0.084 H 
ATOM      9  H16 B69 d          15.234  56.925  40.130  0.00  0.00     0.084 H 
ATOM     10  H17 B69 d          16.567  54.842  40.076  0.00  0.00     0.084 H 
ENDROOT
BRANCH   1  11
ATOM     11  CAX B69 d          13.752  57.863  38.155  0.00  0.00    -0.026 A 
ATOM     12  CAM B69 d          12.741  58.049  37.218  0.00  0.00    -0.072 A 
ATOM     13  CAI B69 d          11.950  59.192  37.264  0.00  0.00    -0.076 A 
ATOM     14  H11 B69 d          12.569  57.303  36.452  0.00  0.00     0.084 H 
ATOM     15  CAV B69 d          12.154  60.151  38.252  0.00  0.00    -0.058 A 
ATOM     16  H10 B69 d          11.170  59.337  36.526  0.00  0.00     0.084 H 
ATOM     17  CAH B69 d          13.174  59.972  39.178  0.00  0.00    -0.076 A 
ATOM     18  CAL B69 d          13.966  58.830  39.131  0.00  0.00    -0.072 A 
ATOM     19  H12 B69 d          13.353  60.723  39.937  0.00  0.00     0.084 H 
ATOM     20  H13 B69 d          14.756  58.693  39.860  0.00  0.00     0.084 H 
BRANCH  15  21
ATOM     21  CAS B69 d          11.109  61.244  38.496  0.00  0.00    -0.041 C 
ATOM     22  H8  B69 d          10.718  61.114  39.515  0.00  0.00     0.040 H 
ATOM     23  H9  B69 d          11.616  62.216  38.419  0.00  0.00     0.040 H 
BRANCH  21  24
ATOM     24  CAQ B69 d           9.917  61.260  37.536  0.00  0.00    -0.062 C 
ATOM     25  H6  B69 d           9.801  62.264  37.102  0.00  0.00     0.033 H 
ATOM     26  H7  B69 d          10.077  60.528  36.730  0.00  0.00     0.033 H 
BRANCH  24  27
ATOM     27  CAP B69 d           8.663  60.890  38.335  0.00  0.00    -0.068 C 
ATOM     28  H4  B69 d           8.736  61.337  39.337  0.00  0.00     0.032 H 
ATOM     29  H5  B69 d           7.781  61.293  37.817  0.00  0.00     0.032 H 
BRANCH  27  30
ATOM     30  CAA B69 d           8.503  59.376  38.478  0.00  0.00    -0.077 C 
ATOM     31  H1  B69 d           8.237  58.941  37.503  0.00  0.00     0.027 H 
ATOM     32  H2  B69 d           7.707  59.159  39.206  0.00  0.00     0.027 H 
ATOM     33  H3  B69 d           9.449  58.939  38.829  0.00  0.00     0.027 H 
ENDBRANCH  27  30
ENDBRANCH  24  27
ENDBRANCH  21  24
ENDBRANCH  15  21
ENDBRANCH   1  11
BRANCH   6  34
ATOM     34  CAT B69 d          16.911  53.118  37.972  0.00  0.00    -0.041 C 
ATOM     35  H18 B69 d          16.374  52.362  38.564  0.00  0.00     0.040 H 
ATOM     36  H19 B69 d          17.908  53.284  38.406  0.00  0.00     0.040 H 
BRANCH  34  37
ATOM     37  CAR B69 d          17.071  52.605  36.540  0.00  0.00    -0.059 C 
ATOM     38  H20 B69 d          16.329  53.098  35.896  0.00  0.00     0.033 H 
ATOM     39  H21 B69 d          16.903  51.518  36.527  0.00  0.00     0.033 H 
BRANCH  37  40
ATOM     40  CAU B69 d          18.473  52.900  36.003  0.00  0.00    -0.034 C 
ATOM     41  H22 B69 d          18.579  53.988  35.878  0.00  0.00     0.036 H 
ATOM     42  H23 B69 d          18.586  52.406  35.027  0.00  0.00     0.036 H 
BRANCH  40  43
ATOM     43  CAZ B69 d          19.584  52.407  36.931  0.00  0.00     0.169 C 
ATOM     44  H24 B69 d          19.134  52.044  37.868  0.00  0.00     0.090 H 
BRANCH  43  45
ATOM     45  PBA B69 d          20.755  53.769  37.324  0.00  0.00     0.281 P 
ATOM     46  OAC B69 d          20.739  54.794  36.080  0.00  0.00    -0.639 OA
ATOM     47  OAD B69 d          20.123  54.552  38.580  0.00  0.00    -0.639 OA
ATOM     48  OAB B69 d          22.117  53.255  37.589  0.00  0.00    -0.639 OA
ENDBRANCH  43  45
BRANCH  43  49
ATOM     49  SBB B69 d          20.472  51.029  36.116  0.00  0.00     0.119 S 
ATOM     50  OAG B69 d          19.520  50.086  35.619  0.00  0.00    -0.594 OA
ATOM     51  OAF B69 d          21.373  50.362  37.111  0.00  0.00    -0.594 OA
ATOM     52  OAE B69 d          21.294  51.575  34.985  0.00  0.00    -0.594 OA
ENDBRANCH  43  49
ENDBRANCH  40  43
ENDBRANCH  37  40
ENDBRANCH  34  37
ENDBRANCH   6  34
TORSDOF 11
ENDMDL
MODEL 3
REMARK VINA RESULT:      -9.6      1.213      2.197
REMARK  11 active torsions:
REMARK  status: ('A' for Active; 'I' for Inactive)
REMARK    1  A    between atoms: CAA_1  and  CAP_2 
REMARK    2  A    between atoms: CAP_2  and  CAQ_3 
REMARK    3  A    between atoms: CAQ_3  and  CAS_4 
REMARK    4  A    between atoms: CAS_4  and  CAV_5 
REMARK    5  A    between atoms: CAX_10  and  CAY_11 
REMARK    6  A    between atoms: CAW_16  and  CAT_17 
REMARK    7  A    between atoms: CAT_17  and  CAR_18 
REMARK    8  A    between atoms: CAR_18  and  CAU_19 
REMARK    9  A    between atoms: CAU_19  and  CAZ_20 
REMARK   10  A    between atoms: CAZ_20  and  PBA_21 
REMARK   11  A    between atoms: CAZ_20  and  SBB_25 
ROOT
ATOM      1  CAY B69 d          15.180  55.740  37.895  0.00  0.00    -0.026 A 
ATOM      2  CAO B69 d          15.363  55.284  36.593  0.00  0.00    -0.072 A 
ATOM      3  CAK B69 d          15.914  54.024  36.371  0.00  0.00    -0.076 A 
ATOM      4  CAN B69 d          15.567  54.943  38.965  0.00  0.00    -0.072 A 
ATOM      5  CAJ B69 d          16.115  53.684  38.743  0.00  0.00    -0.076 A 
ATOM      6  CAW B69 d          16.284  53.221  37.443  0.00  0.00    -0.058 A 
ATOM      7  H14 B69 d          15.078  55.908  35.753  0.00  0.00     0.084 H 
ATOM      8  H15 B69 d          16.054  53.669  35.357  0.00  0.00     0.084 H 
ATOM      9  H16 B69 d          15.441  55.305  39.979  0.00  0.00     0.084 H 
ATOM     10  H17 B69 d          16.410  53.064  39.582  0.00  0.00     0.084 H 
ENDROOT
BRANCH   1  11
ATOM     11  CAX B69 d          14.506  56.934  38.122  0.00  0.00    -0.026 A 
ATOM     12  CAM B69 d          14.886  57.795  39.147  0.00  0.00    -0.072 A 
ATOM     13  CAI B69 d          14.140  58.940  39.408  0.00  0.00    -0.076 A 
ATOM     14  H11 B69 d          15.763  57.573  39.743  0.00  0.00     0.084 H 
ATOM     15  CAV B69 d          13.019  59.241  38.640  0.00  0.00    -0.058 A 
ATOM     16  H10 B69 d          14.435  59.602  40.214  0.00  0.00     0.084 H 
ATOM     17  CAH B69 d          12.632  58.373  37.628  0.00  0.00    -0.076 A 
ATOM     18  CAL B69 d          13.375  57.227  37.368  0.00  0.00    -0.072 A 
ATOM     19  H12 B69 d          11.748  58.589  37.039  0.00  0.00     0.084 H 
ATOM     20  H13 B69 d          13.072  56.557  36.571  0.00  0.00     0.084 H 
BRANCH  15  21
ATOM     21  CAS B69 d          12.382  60.631  38.716  0.00  0.00    -0.041 C 
ATOM     22  H8  B69 d          13.090  61.298  39.228  0.00  0.00     0.040 H 
ATOM     23  H9  B69 d          12.224  60.985  37.687  0.00  0.00     0.040 H 
BRANCH  21  24
ATOM     24  CAQ B69 d          11.042  60.717  39.451  0.00  0.00    -0.062 C 
ATOM     25  H6  B69 d          10.625  59.709  39.585  0.00  0.00     0.033 H 
ATOM     26  H7  B69 d          11.186  61.189  40.435  0.00  0.00     0.033 H 
BRANCH  24  27
ATOM     27  CAP B69 d          10.091  61.565  38.601  0.00  0.00    -0.068 C 
ATOM     28  H4  B69 d           9.070  61.459  38.998  0.00  0.00     0.032 H 
ATOM     29  H5  B69 d          10.400  62.618  38.665  0.00  0.00     0.032 H 
BRANCH  27  30
ATOM     30  CAA B69 d          10.098  61.135  37.134  0.00  0.00    -0.077 C 
ATOM     31  H1  B69 d           9.457  60.250  37.008  0.00  0.00     0.027 H 
ATOM     32  H2  B69 d          11.126  60.890  36.829  0.00  0.00     0.027 H 
ATOM     33  H3  B69 d           9.717  61.957  36.509  0.00  0.00     0.027 H 
ENDBRANCH  27  30
ENDBRANCH  24  27
ENDBRANCH  21  24
ENDBRANCH  15  21
ENDBRANCH   1  11
BRANCH   6  34
ATOM     34  CAT B69 d          16.842  51.818  37.179  0.00  0.00    -0.041 C 
ATOM     35  H18 B69 d          16.053  51.198  36.728  0.00  0.00     0.040 H 
ATOM     36  H19 B69 d          17.158  51.374  38.134  0.00  0.00     0.040 H 
BRANCH  34  37
ATOM     37  CAR B69 d          18.042  51.862  36.230  0.00  0.00    -0.059 C 
ATOM     38  H20 B69 d          18.049  52.828  35.705  0.00  0.00     0.033 H 
ATOM     39  H21 B69 d          17.950  51.046  35.498  0.00  0.00     0.033 H 
BRANCH  37  40
ATOM     40  CAU B69 d          19.356  51.700  36.997  0.00  0.00    -0.034 C 
ATOM     41  H22 B69 d          19.606  50.630  37.044  0.00  0.00     0.036 H 
ATOM     42  H23 B69 d          19.218  52.090  38.017  0.00  0.00     0.036 H 
BRANCH  40  43
ATOM     43  CAZ B69 d          20.522  52.444  36.345  0.00  0.00     0.169 C 
ATOM     44  H24 B69 d          20.284  52.628  35.287  0.00  0.00     0.090 H 
BRANCH  43  45
ATOM     45  PBA B69 d          22.064  51.447  36.443  0.00  0.00     0.281 P 
ATOM     46  OAC B69 d          21.725  50.114  37.283  0.00  0.00    -0.639 OA
ATOM     47  OAD B69 d          22.388  50.979  34.938  0.00  0.00    -0.639 OA
ATOM     48  OAB B69 d          23.169  52.214  37.060  0.00  0.00    -0.639 OA
ENDBRANCH  43  45
BRANCH  43  49
ATOM     49  SBB B69 d          20.756  54.048  37.197  0.00  0.00     0.119 S 
ATOM     50  OAG B69 d          20.780  55.096  36.225  0.00  0.00    -0.594 OA
ATOM     51  OAF B69 d          22.051  54.026  37.950  0.00  0.00    -0.594 OA
ATOM     52  OAE B69 d          19.622  54.264  38.158  0.00  0.00    -0.594 OA
ENDBRANCH  43  49
ENDBRANCH  40  43
ENDBRANCH  37  40
ENDBRANCH  34  37
ENDBRANCH   6  34
TORSDOF 11
ENDMDL
MODEL 4
REMARK VINA RESULT:      -9.3      2.000      3.366
REMARK  11 active torsions:
REMARK  status: ('A' for Active; 'I' for Inactive)
REMARK    1  A    between atoms: CAA_1  and  CAP_2 
REMARK    2  A    between atoms: CAP_2  and  CAQ_3 
REMARK    3  A    between atoms: CAQ_3  and  CAS_4 
REMARK    4  A    between atoms: CAS_4  and  CAV_5 
REMARK    5  A    between atoms: CAX_10  and  CAY_11 
REMARK    6  A    between atoms: CAW_16  and  CAT_17 
REMARK    7  A    between atoms: CAT_17  and  CAR_18 
REMARK    8  A    between atoms: CAR_18  and  CAU_19 
REMARK    9  A    between atoms: CAU_19  and  CAZ_20 
REMARK   10  A    between atoms: CAZ_20  and  PBA_21 
REMARK   11  A    between atoms: CAZ_20  and  SBB_25 
ROOT
ATOM      1  CAY B69 d          16.165  55.964  37.470  0.00  0.00    -0.026 A 
ATOM      2  CAO B69 d          16.762  55.027  38.307  0.00  0.00    -0.072 A 
ATOM      3  CAK B69 d          17.901  54.346  37.883  0.00  0.00    -0.076 A 
ATOM      4  CAN B69 d          16.696  56.200  36.208  0.00  0.00    -0.072 A 
ATOM      5  CAJ B69 d          17.835  55.521  35.786  0.00  0.00    -0.076 A 
ATOM      6  CAW B69 d          18.442  54.596  36.628  0.00  0.00    -0.058 A 
ATOM      7  H14 B69 d          16.343  54.827  39.287  0.00  0.00     0.084 H 
ATOM      8  H15 B69 d          18.367  53.618  38.536  0.00  0.00     0.084 H 
ATOM      9  H16 B69 d          16.220  56.917  35.549  0.00  0.00     0.084 H 
ATOM     10  H17 B69 d          18.248  55.713  34.802  0.00  0.00     0.084 H 
ENDROOT
BRANCH   1  11
ATOM     11  CAX B69 d          15.114  56.744  37.941  0.00  0.00    -0.026 A 
ATOM     12  CAM B69 d          15.173  57.363  39.185  0.00  0.00    -0.072 A 
ATOM     13  CAI B69 d          14.073  58.064  39.668  0.00  0.00    -0.076 A 
ATOM     14  H11 B69 d          16.077  57.298  39.779  0.00  0.00     0.084 H 
ATOM     15  CAV B69 d          12.912  58.165  38.907  0.00  0.00    -0.058 A 
ATOM     16  H10 B69 d          14.121  58.536  40.642  0.00  0.00     0.084 H 
ATOM     17  CAH B69 d          12.849  57.533  37.672  0.00  0.00    -0.076 A 
ATOM     18  CAL B69 d          13.947  56.830  37.190  0.00  0.00    -0.072 A 
ATOM     19  H12 B69 d          11.941  57.589  37.082  0.00  0.00     0.084 H 
ATOM     20  H13 B69 d          13.893  56.345  36.221  0.00  0.00     0.084 H 
BRANCH  15  21
ATOM     21  CAS B69 d          11.825  59.174  39.286  0.00  0.00    -0.041 C 
ATOM     22  H8  B69 d          10.854  58.749  38.993  0.00  0.00     0.040 H 
ATOM     23  H9  B69 d          11.854  59.306  40.377  0.00  0.00     0.040 H 
BRANCH  21  24
ATOM     24  CAQ B69 d          11.941  60.559  38.645  0.00  0.00    -0.062 C 
ATOM     25  H6  B69 d          12.870  61.046  38.975  0.00  0.00     0.033 H 
ATOM     26  H7  B69 d          11.946  60.463  37.549  0.00  0.00     0.033 H 
BRANCH  24  27
ATOM     27  CAP B69 d          10.733  61.388  39.090  0.00  0.00    -0.068 C 
ATOM     28  H4  B69 d          10.199  60.842  39.882  0.00  0.00     0.032 H 
ATOM     29  H5  B69 d          11.089  62.351  39.486  0.00  0.00     0.032 H 
BRANCH  27  30
ATOM     30  CAA B69 d           9.766  61.656  37.936  0.00  0.00    -0.077 C 
ATOM     31  H1  B69 d           8.910  62.241  38.303  0.00  0.00     0.027 H 
ATOM     32  H2  B69 d           9.409  60.699  37.527  0.00  0.00     0.027 H 
ATOM     33  H3  B69 d          10.284  62.221  37.147  0.00  0.00     0.027 H 
ENDBRANCH  27  30
ENDBRANCH  24  27
ENDBRANCH  21  24
ENDBRANCH  15  21
ENDBRANCH   1  11
BRANCH   6  34
ATOM     34  CAT B69 d          19.723  53.872  36.200  0.00  0.00    -0.041 C 
ATOM     35  H18 B69 d          20.478  54.619  35.914  0.00  0.00     0.040 H 
ATOM     36  H19 B69 d          19.498  53.228  35.336  0.00  0.00     0.040 H 
BRANCH  34  37
ATOM     37  CAR B69 d          20.283  53.007  37.331  0.00  0.00    -0.059 C 
ATOM     38  H20 B69 d          19.764  52.038  37.333  0.00  0.00     0.033 H 
ATOM     39  H21 B69 d          20.112  53.517  38.291  0.00  0.00     0.033 H 
BRANCH  37  40
ATOM     40  CAU B69 d          21.784  52.770  37.151  0.00  0.00    -0.034 C 
ATOM     41  H22 B69 d          22.320  53.279  37.965  0.00  0.00     0.036 H 
ATOM     42  H23 B69 d          22.094  53.197  36.185  0.00  0.00     0.036 H 
BRANCH  40  43
ATOM     43  CAZ B69 d          22.160  51.288  37.172  0.00  0.00     0.169 C 
ATOM     44  H24 B69 d          21.721  50.819  38.065  0.00  0.00     0.090 H 
BRANCH  43  45
ATOM     45  PBA B69 d          23.987  51.083  37.232  0.00  0.00     0.281 P 
ATOM     46  OAC B69 d          24.597  52.394  37.942  0.00  0.00    -0.639 OA
ATOM     47  OAD B69 d          24.264  49.845  38.222  0.00  0.00    -0.639 OA
ATOM     48  OAB B69 d          24.555  50.880  35.880  0.00  0.00    -0.639 OA
ENDBRANCH  43  45
BRANCH  43  49
ATOM     49  SBB B69 d          21.486  50.481  35.674  0.00  0.00     0.119 S 
ATOM     50  OAG B69 d          20.110  50.160  35.893  0.00  0.00    -0.594 OA
ATOM     51  OAF B69 d          22.260  49.229  35.393  0.00  0.00    -0.594 OA
ATOM     52  OAE B69 d          21.615  51.420  34.509  0.00  0.00    -0.594 OA
ENDBRANCH  43  49
ENDBRANCH  40  43
ENDBRANCH  37  40
ENDBRANCH  34  37
ENDBRANCH   6  34
TORSDOF 11
ENDMDL
MODEL 5
REMARK VINA RESULT:      -8.6      2.214      3.710
REMARK  11 active torsions:
REMARK  status: ('A' for Active; 'I' for Inactive)
REMARK    1  A    between atoms: CAA_1  and  CAP_2 
REMARK    2  A    between atoms: CAP_2  and  CAQ_3 
REMARK    3  A    between atoms: CAQ_3  and  CAS_4 
REMARK    4  A    between atoms: CAS_4  and  CAV_5 
REMARK    5  A    between atoms: CAX_10  and  CAY_11 
REMARK    6  A    between atoms: CAW_16  and  CAT_17 
REMARK    7  A    between atoms: CAT_17  and  CAR_18 
REMARK    8  A    between atoms: CAR_18  and  CAU_19 
REMARK    9  A    between atoms: CAU_19  and  CAZ_20 
REMARK   10  A    between atoms: CAZ_20  and  PBA_21 
REMARK   11  A    between atoms: CAZ_20  and  SBB_25 
ROOT
ATOM      1  CAY B69 d          16.263  55.111  37.427  0.00  0.00    -0.026 A 
ATOM      2  CAO B69 d          17.614  55.358  37.654  0.00  0.00    -0.072 A 
ATOM      3  CAK B69 d          18.563  54.409  37.284  0.00  0.00    -0.076 A 
ATOM      4  CAN B69 d          15.870  53.909  36.852  0.00  0.00    -0.072 A 
ATOM      5  CAJ B69 d          16.819  52.962  36.481  0.00  0.00    -0.076 A 
ATOM      6  CAW B69 d          18.170  53.215  36.693  0.00  0.00    -0.058 A 
ATOM      7  H14 B69 d          17.926  56.287  38.117  0.00  0.00     0.084 H 
ATOM      8  H15 B69 d          19.615  54.603  37.460  0.00  0.00     0.084 H 
ATOM      9  H16 B69 d          14.816  53.708  36.692  0.00  0.00     0.084 H 
ATOM     10  H17 B69 d          16.506  52.028  36.027  0.00  0.00     0.084 H 
ENDROOT
BRANCH   1  11
ATOM     11  CAX B69 d          15.325  56.109  37.666  0.00  0.00    -0.026 A 
ATOM     12  CAM B69 d          15.329  56.836  38.853  0.00  0.00    -0.072 A 
ATOM     13  CAI B69 d          14.328  57.768  39.102  0.00  0.00    -0.076 A 
ATOM     14  H11 B69 d          16.113  56.675  39.583  0.00  0.00     0.084 H 
ATOM     15  CAV B69 d          13.323  57.991  38.166  0.00  0.00    -0.058 A 
ATOM     16  H10 B69 d          14.330  58.324  40.033  0.00  0.00     0.084 H 
ATOM     17  CAH B69 d          13.311  57.254  36.989  0.00  0.00    -0.076 A 
ATOM     18  CAL B69 d          14.311  56.321  36.739  0.00  0.00    -0.072 A 
ATOM     19  H12 B69 d          12.521  57.406  36.263  0.00  0.00     0.084 H 
ATOM     20  H13 B69 d          14.300  55.753  35.815  0.00  0.00     0.084 H 
BRANCH  15  21
ATOM     21  CAS B69 d          12.407  59.211  38.291  0.00  0.00    -0.041 C 
ATOM     22  H8  B69 d          11.574  58.940  38.955  0.00  0.00     0.040 H 
ATOM     23  H9  B69 d          12.990  60.024  38.748  0.00  0.00     0.040 H 
BRANCH  21  24
ATOM     24  CAQ B69 d          11.810  59.741  36.985  0.00  0.00    -0.062 C 
ATOM     25  H6  B69 d          12.290  60.692  36.714  0.00  0.00     0.033 H 
ATOM     26  H7  B69 d          11.967  59.008  36.179  0.00  0.00     0.033 H 
BRANCH  24  27
ATOM     27  CAP B69 d          10.310  59.959  37.206  0.00  0.00    -0.068 C 
ATOM     28  H4  B69 d          10.114  61.039  37.271  0.00  0.00     0.032 H 
ATOM     29  H5  B69 d           9.760  59.539  36.351  0.00  0.00     0.032 H 
BRANCH  27  30
ATOM     30  CAA B69 d           9.817  59.287  38.488  0.00  0.00    -0.077 C 
ATOM     31  H1  B69 d          10.516  59.507  39.309  0.00  0.00     0.027 H 
ATOM     32  H2  B69 d           9.762  58.199  38.335  0.00  0.00     0.027 H 
ATOM     33  H3  B69 d           8.819  59.672  38.743  0.00  0.00     0.027 H 
ENDBRANCH  27  30
ENDBRANCH  24  27
ENDBRANCH  21  24
ENDBRANCH  15  21
ENDBRANCH   1  11
BRANCH   6  34
ATOM     34  CAT B69 d          19.233  52.205  36.248  0.00  0.00    -0.041 C 
ATOM     35  H18 B69 d          19.624  52.506  35.265  0.00  0.00     0.040 H 
ATOM     36  H19 B69 d          18.771  51.210  36.171  0.00  0.00     0.040 H 
BRANCH  34  37
ATOM     37  CAR B69 d          20.393  52.138  37.244  0.00  0.00    -0.059 C 
ATOM     38  H20 B69 d          20.287  51.231  37.857  0.00  0.00     0.033 H 
ATOM     39  H21 B69 d          20.361  53.025  37.893  0.00  0.00     0.033 H 
BRANCH  37  40
ATOM     40  CAU B69 d          21.740  52.096  36.519  0.00  0.00    -0.034 C 
ATOM     41  H22 B69 d          22.317  52.989  36.799  0.00  0.00     0.036 H 
ATOM     42  H23 B69 d          21.555  52.104  35.434  0.00  0.00     0.036 H 
BRANCH  40  43
ATOM     43  CAZ B69 d          22.564  50.855  36.863  0.00  0.00     0.169 C 
ATOM     44  H24 B69 d          22.023  50.261  37.615  0.00  0.00     0.090 H 
BRANCH  43  45
ATOM     45  PBA B69 d          24.202  51.334  37.550  0.00  0.00     0.281 P 
ATOM     46  OAC B69 d          24.632  50.200  38.610  0.00  0.00    -0.639 OA
ATOM     47  OAD B69 d          25.241  51.246  36.326  0.00  0.00    -0.639 OA
ATOM     48  OAB B69 d          24.157  52.676  38.175  0.00  0.00    -0.639 OA
ENDBRANCH  43  45
BRANCH  43  49
ATOM     49  SBB B69 d          22.788  49.850  35.350  0.00  0.00     0.119 S 
ATOM     50  OAG B69 d          23.707  48.789  35.622  0.00  0.00    -0.594 OA
ATOM     51  OAF B69 d          23.327  50.717  34.252  0.00  0.00    -0.594 OA
ATOM     52  OAE B69 d          21.460  49.285  34.934  0.00  0.00    -0.594 OA
ENDBRANCH  43  49
ENDBRANCH  40  43
ENDBRANCH  37  40
ENDBRANCH  34  37
ENDBRANCH   6  34
TORSDOF 11
ENDMDL
MODEL 6
REMARK VINA RESULT:      -8.3      1.815      3.351
REMARK  11 active torsions:
REMARK  status: ('A' for Active; 'I' for Inactive)
REMARK    1  A    between atoms: CAA_1  and  CAP_2 
REMARK    2  A    between atoms: CAP_2  and  CAQ_3 
REMARK    3  A    between atoms: CAQ_3  and  CAS_4 
REMARK    4  A    between atoms: CAS_4  and  CAV_5 
REMARK    5  A    between atoms: CAX_10  and  CAY_11 
REMARK    6  A    between atoms: CAW_16  and  CAT_17 
REMARK    7  A    between atoms: CAT_17  and  CAR_18 
REMARK    8  A    between atoms: CAR_18  and  CAU_19 
REMARK    9  A    between atoms: CAU_19  and  CAZ_20 
REMARK   10  A    between atoms: CAZ_20  and  PBA_21 
REMARK   11  A    between atoms: CAZ_20  and  SBB_25 
ROOT
ATOM      1  CAY B69 d          16.090  53.830  37.305  0.00  0.00    -0.026 A 
ATOM      2  CAO B69 d          16.124  52.693  38.106  0.00  0.00    -0.072 A 
ATOM      3  CAK B69 d          16.756  51.541  37.647  0.00  0.00    -0.076 A 
ATOM      4  CAN B69 d          16.669  53.802  36.042  0.00  0.00    -0.072 A 
ATOM      5  CAJ B69 d          17.302  52.651  35.584  0.00  0.00    -0.076 A 
ATOM      6  CAW B69 d          17.351  51.519  36.391  0.00  0.00    -0.058 A 
ATOM      7  H14 B69 d          15.659  52.704  39.086  0.00  0.00     0.084 H 
ATOM      8  H15 B69 d          16.784  50.656  38.272  0.00  0.00     0.084 H 
ATOM      9  H16 B69 d          16.627  54.682  35.411  0.00  0.00     0.084 H 
ATOM     10  H17 B69 d          17.758  52.636  34.601  0.00  0.00     0.084 H 
ENDROOT
BRANCH   1  11
ATOM     11  CAX B69 d          15.583  55.021  37.813  0.00  0.00    -0.026 A 
ATOM     12  CAM B69 d          14.893  55.918  37.003  0.00  0.00    -0.072 A 
ATOM     13  CAI B69 d          14.474  57.140  37.516  0.00  0.00    -0.076 A 
ATOM     14  H11 B69 d          14.683  55.663  35.971  0.00  0.00     0.084 H 
ATOM     15  CAV B69 d          14.727  57.472  38.844  0.00  0.00    -0.058 A 
ATOM     16  H10 B69 d          13.945  57.839  36.878  0.00  0.00     0.084 H 
ATOM     17  CAH B69 d          15.430  56.583  39.647  0.00  0.00    -0.076 A 
ATOM     18  CAL B69 d          15.851  55.361  39.134  0.00  0.00    -0.072 A 
ATOM     19  H12 B69 d          15.650  56.842  40.676  0.00  0.00     0.084 H 
ATOM     20  H13 B69 d          16.393  54.669  39.769  0.00  0.00     0.084 H 
BRANCH  15  21
ATOM     21  CAS B69 d          14.014  58.661  39.493  0.00  0.00    -0.041 C 
ATOM     22  H8  B69 d          13.352  58.268  40.279  0.00  0.00     0.040 H 
ATOM     23  H9  B69 d          14.780  59.305  39.948  0.00  0.00     0.040 H 
BRANCH  21  24
ATOM     24  CAQ B69 d          13.167  59.528  38.559  0.00  0.00    -0.062 C 
ATOM     25  H6  B69 d          13.415  60.589  38.709  0.00  0.00     0.033 H 
ATOM     26  H7  B69 d          13.362  59.250  37.513  0.00  0.00     0.033 H 
BRANCH  24  27
ATOM     27  CAP B69 d          11.693  59.286  38.897  0.00  0.00    -0.068 C 
ATOM     28  H4  B69 d          11.495  58.204  38.869  0.00  0.00     0.032 H 
ATOM     29  H5  B69 d          11.493  59.668  39.909  0.00  0.00     0.032 H 
BRANCH  27  30
ATOM     30  CAA B69 d          10.757  59.986  37.911  0.00  0.00    -0.077 C 
ATOM     31  H1  B69 d           9.860  60.336  38.442  0.00  0.00     0.027 H 
ATOM     32  H2  B69 d          10.463  59.279  37.120  0.00  0.00     0.027 H 
ATOM     33  H3  B69 d          11.275  60.845  37.460  0.00  0.00     0.027 H 
ENDBRANCH  27  30
ENDBRANCH  24  27
ENDBRANCH  21  24
ENDBRANCH  15  21
ENDBRANCH   1  11
BRANCH   6  34
ATOM     34  CAT B69 d          18.084  50.257  35.924  0.00  0.00    -0.041 C 
ATOM     35  H18 B69 d          17.431  49.696  35.238  0.00  0.00     0.040 H 
ATOM     36  H19 B69 d          18.317  49.634  36.800  0.00  0.00     0.040 H 
BRANCH  34  37
ATOM     37  CAR B69 d          19.386  50.601  35.198  0.00  0.00    -0.059 C 
ATOM     38  H20 B69 d          19.397  51.678  34.972  0.00  0.00     0.033 H 
ATOM     39  H21 B69 d          19.438  50.028  34.261  0.00  0.00     0.033 H 
BRANCH  37  40
ATOM     40  CAU B69 d          20.604  50.260  36.061  0.00  0.00    -0.034 C 
ATOM     41  H22 B69 d          20.987  49.277  35.752  0.00  0.00     0.036 H 
ATOM     42  H23 B69 d          20.287  50.218  37.114  0.00  0.00     0.036 H 
BRANCH  40  43
ATOM     43  CAZ B69 d          21.731  51.285  35.932  0.00  0.00     0.169 C 
ATOM     44  H24 B69 d          21.842  51.566  34.874  0.00  0.00     0.090 H 
BRANCH  43  45
ATOM     45  PBA B69 d          23.321  50.577  36.527  0.00  0.00     0.281 P 
ATOM     46  OAC B69 d          23.803  49.490  35.441  0.00  0.00    -0.639 OA
ATOM     47  OAD B69 d          24.388  51.782  36.485  0.00  0.00    -0.639 OA
ATOM     48  OAB B69 d          23.179  49.979  37.874  0.00  0.00    -0.639 OA
ENDBRANCH  43  45
BRANCH  43  49
ATOM     49  SBB B69 d          21.300  52.771  36.908  0.00  0.00     0.119 S 
ATOM     50  OAG B69 d          20.227  52.453  37.798  0.00  0.00    -0.594 OA
ATOM     51  OAF B69 d          20.879  53.870  35.980  0.00  0.00    -0.594 OA
ATOM     52  OAE B69 d          22.503  53.212  37.691  0.00  0.00    -0.594 OA
ENDBRANCH  43  49
ENDBRANCH  40  43
ENDBRANCH  37  40
ENDBRANCH  34  37
ENDBRANCH   6  34
TORSDOF 11
ENDMDL
MODEL 7
REMARK VINA RESULT:      -8.0      1.500      2.595
REMARK  11 active torsions:
REMARK  status: ('A' for Active; 'I' for Inactive)
REMARK    1  A    between atoms: CAA_1  and  CAP_2 
REMARK    2  A    between atoms: CAP_2  and  CAQ_3 
REMARK    3  A    between atoms: CAQ_3  and  CAS_4 
REMARK    4  A    between atoms: CAS_4  and  CAV_5 
REMARK    5  A    between atoms: CAX_10  and  CAY_11 
REMARK    6  A    between atoms: CAW_16  and  CAT_17 
REMARK    7  A    between atoms: CAT_17  and  CAR_18 
REMARK    8  A    between atoms: CAR_18  and  CAU_19 
REMARK    9  A    between atoms: CAU_19  and  CAZ_20 
REMARK   10  A    between atoms: CAZ_20  and  PBA_21 
REMARK   11  A    between atoms: CAZ_20  and  SBB_25 
ROOT
ATOM      1  CAY B69 d          14.608  56.637  37.982  0.00  0.00    -0.026 A 
ATOM      2  CAO B69 d          14.656  55.974  36.760  0.00  0.00    -0.072 A 
ATOM      3  CAK B69 d          15.283  54.734  36.668  0.00  0.00    -0.076 A 
ATOM      4  CAN B69 d          15.206  56.067  39.099  0.00  0.00    -0.072 A 
ATOM      5  CAJ B69 d          15.831  54.827  39.007  0.00  0.00    -0.076 A 
ATOM      6  CAW B69 d          15.864  54.157  37.790  0.00  0.00    -0.058 A 
ATOM      7  H14 B69 d          14.205  56.422  35.881  0.00  0.00     0.084 H 
ATOM      8  H15 B69 d          15.318  54.218  35.715  0.00  0.00     0.084 H 
ATOM      9  H16 B69 d          15.185  56.591  40.048  0.00  0.00     0.084 H 
ATOM     10  H17 B69 d          16.290  54.384  39.884  0.00  0.00     0.084 H 
ENDROOT
BRANCH   1  11
ATOM     11  CAX B69 d          13.865  57.806  38.109  0.00  0.00    -0.026 A 
ATOM     12  CAM B69 d          12.878  58.139  37.188  0.00  0.00    -0.072 A 
ATOM     13  CAI B69 d          12.211  59.355  37.290  0.00  0.00    -0.076 A 
ATOM     14  H11 B69 d          12.628  57.450  36.390  0.00  0.00     0.084 H 
ATOM     15  CAV B69 d          12.515  60.241  38.318  0.00  0.00    -0.058 A 
ATOM     16  H10 B69 d          11.449  59.613  36.564  0.00  0.00     0.084 H 
ATOM     17  CAH B69 d          13.512  59.915  39.228  0.00  0.00    -0.076 A 
ATOM     18  CAL B69 d          14.181  58.700  39.126  0.00  0.00    -0.072 A 
ATOM     19  H12 B69 d          13.770  60.609  40.020  0.00  0.00     0.084 H 
ATOM     20  H13 B69 d          14.954  58.448  39.843  0.00  0.00     0.084 H 
BRANCH  15  21
ATOM     21  CAS B69 d          11.591  61.425  38.617  0.00  0.00    -0.041 C 
ATOM     22  H8  B69 d          12.157  62.149  39.220  0.00  0.00     0.040 H 
ATOM     23  H9  B69 d          11.313  61.885  37.658  0.00  0.00     0.040 H 
BRANCH  21  24
ATOM     24  CAQ B69 d          10.300  61.096  39.370  0.00  0.00    -0.062 C 
ATOM     25  H6  B69 d          10.414  60.145  39.909  0.00  0.00     0.033 H 
ATOM     26  H7  B69 d          10.071  61.899  40.087  0.00  0.00     0.033 H 
BRANCH  24  27
ATOM     27  CAP B69 d           9.170  60.979  38.341  0.00  0.00    -0.068 C 
ATOM     28  H4  B69 d           8.402  61.733  38.570  0.00  0.00     0.032 H 
ATOM     29  H5  B69 d           9.581  61.168  37.339  0.00  0.00     0.032 H 
BRANCH  27  30
ATOM     30  CAA B69 d           8.524  59.594  38.358  0.00  0.00    -0.077 C 
ATOM     31  H1  B69 d           8.160  59.371  39.372  0.00  0.00     0.027 H 
ATOM     32  H2  B69 d           9.267  58.839  38.060  0.00  0.00     0.027 H 
ATOM     33  H3  B69 d           7.680  59.574  37.653  0.00  0.00     0.027 H 
ENDBRANCH  27  30
ENDBRANCH  24  27
ENDBRANCH  21  24
ENDBRANCH  15  21
ENDBRANCH   1  11
BRANCH   6  34
ATOM     34  CAT B69 d          16.507  52.769  37.679  0.00  0.00    -0.041 C 
ATOM     35  H18 B69 d          15.774  52.010  37.989  0.00  0.00     0.040 H 
ATOM     36  H19 B69 d          17.383  52.727  38.342  0.00  0.00     0.040 H 
BRANCH  34  37
ATOM     37  CAR B69 d          16.954  52.472  36.246  0.00  0.00    -0.059 C 
ATOM     38  H20 B69 d          16.328  53.046  35.548  0.00  0.00     0.033 H 
ATOM     39  H21 B69 d          16.832  51.396  36.048  0.00  0.00     0.033 H 
BRANCH  37  40
ATOM     40  CAU B69 d          18.420  52.856  36.035  0.00  0.00    -0.034 C 
ATOM     41  H22 B69 d          18.581  53.048  34.965  0.00  0.00     0.036 H 
ATOM     42  H23 B69 d          19.053  52.016  36.358  0.00  0.00     0.036 H 
BRANCH  40  43
ATOM     43  CAZ B69 d          18.828  54.103  36.821  0.00  0.00     0.169 C 
ATOM     44  H24 B69 d          18.038  54.344  37.548  0.00  0.00     0.090 H 
BRANCH  43  45
ATOM     45  PBA B69 d          19.053  55.537  35.691  0.00  0.00     0.281 P 
ATOM     46  OAC B69 d          19.413  56.817  36.601  0.00  0.00    -0.639 OA
ATOM     47  OAD B69 d          20.359  55.209  34.810  0.00  0.00    -0.639 OA
ATOM     48  OAB B69 d          17.846  55.774  34.868  0.00  0.00    -0.639 OA
ENDBRANCH  43  45
BRANCH  43  49
ATOM     49  SBB B69 d          20.386  53.758  37.717  0.00  0.00     0.119 S 
ATOM     50  OAG B69 d          21.457  54.464  37.085  0.00  0.00    -0.594 OA
ATOM     51  OAF B69 d          20.662  52.285  37.685  0.00  0.00    -0.594 OA
ATOM     52  OAE B69 d          20.244  54.209  39.142  0.00  0.00    -0.594 OA
ENDBRANCH  43  49
ENDBRANCH  40  43
ENDBRANCH  37  40
ENDBRANCH  34  37
ENDBRANCH   6  34
TORSDOF 11
ENDMDL
MODEL 8
REMARK VINA RESULT:      -7.2      1.751      3.619
REMARK  11 active torsions:
REMARK  status: ('A' for Active; 'I' for Inactive)
REMARK    1  A    between atoms: CAA_1  and  CAP_2 
REMARK    2  A    between atoms: CAP_2  and  CAQ_3 
REMARK    3  A    between atoms: CAQ_3  and  CAS_4 
REMARK    4  A    between atoms: CAS_4  and  CAV_5 
REMARK    5  A    between atoms: CAX_10  and  CAY_11 
REMARK    6  A    between atoms: CAW_16  and  CAT_17 
REMARK    7  A    between atoms: CAT_17  and  CAR_18 
REMARK    8  A    between atoms: CAR_18  and  CAU_19 
REMARK    9  A    between atoms: CAU_19  and  CAZ_20 
REMARK   10  A    between atoms: CAZ_20  and  PBA_21 
REMARK   11  A    between atoms: CAZ_20  and  SBB_25 
ROOT
ATOM      1  CAY B69 d          16.055  53.965  37.185  0.00  0.00    -0.026 A 
ATOM      2  CAO B69 d          16.012  52.801  37.946  0.00  0.00    -0.072 A 
ATOM      3  CAK B69 d          16.661  51.654  37.495  0.00  0.00    -0.076 A 
ATOM      4  CAN B69 d          16.727  53.969  35.969  0.00  0.00    -0.072 A 
ATOM      5  CAJ B69 d          17.377  52.824  35.520  0.00  0.00    -0.076 A 
ATOM      6  CAW B69 d          17.348  51.665  36.288  0.00  0.00    -0.058 A 
ATOM      7  H14 B69 d          15.475  52.787  38.888  0.00  0.00     0.084 H 
ATOM      8  H15 B69 d          16.629  50.748  38.090  0.00  0.00     0.084 H 
ATOM      9  H16 B69 d          16.746  54.871  35.367  0.00  0.00     0.084 H 
ATOM     10  H17 B69 d          17.905  52.835  34.573  0.00  0.00     0.084 H 
ENDROOT
BRANCH   1  11
ATOM     11  CAX B69 d          15.528  55.147  37.695  0.00  0.00    -0.026 A 
ATOM     12  CAM B69 d          14.800  56.019  36.892  0.00  0.00    -0.072 A 
ATOM     13  CAI B69 d          14.360  57.235  37.405  0.00  0.00    -0.076 A 
ATOM     14  H11 B69 d          14.576  55.752  35.866  0.00  0.00     0.084 H 
ATOM     15  CAV B69 d          14.631  57.582  38.725  0.00  0.00    -0.058 A 
ATOM     16  H10 B69 d          13.802  57.915  36.773  0.00  0.00     0.084 H 
ATOM     17  CAH B69 d          15.372  56.717  39.521  0.00  0.00    -0.076 A 
ATOM     18  CAL B69 d          15.814  55.503  39.008  0.00  0.00    -0.072 A 
ATOM     19  H12 B69 d          15.606  56.989  40.543  0.00  0.00     0.084 H 
ATOM     20  H13 B69 d          16.385  54.829  39.636  0.00  0.00     0.084 H 
BRANCH  15  21
ATOM     21  CAS B69 d          13.901  58.758  39.381  0.00  0.00    -0.041 C 
ATOM     22  H8  B69 d          13.328  58.365  40.233  0.00  0.00     0.040 H 
ATOM     23  H9  B69 d          14.661  59.465  39.745  0.00  0.00     0.040 H 
BRANCH  21  24
ATOM     24  CAQ B69 d          12.933  59.532  38.483  0.00  0.00    -0.062 C 
ATOM     25  H6  B69 d          13.171  60.606  38.517  0.00  0.00     0.033 H 
ATOM     26  H7  B69 d          13.014  59.171  37.447  0.00  0.00     0.033 H 
BRANCH  24  27
ATOM     27  CAP B69 d          11.513  59.298  39.007  0.00  0.00    -0.068 C 
ATOM     28  H4  B69 d          11.382  58.224  39.208  0.00  0.00     0.032 H 
ATOM     29  H5  B69 d          11.381  59.863  39.941  0.00  0.00     0.032 H 
BRANCH  27  30
ATOM     30  CAA B69 d          10.451  59.747  38.003  0.00  0.00    -0.077 C 
ATOM     31  H1  B69 d           9.585  60.156  38.544  0.00  0.00     0.027 H 
ATOM     32  H2  B69 d          10.132  58.886  37.397  0.00  0.00     0.027 H 
ATOM     33  H3  B69 d          10.873  60.522  37.346  0.00  0.00     0.027 H 
ENDBRANCH  27  30
ENDBRANCH  24  27
ENDBRANCH  21  24
ENDBRANCH  15  21
ENDBRANCH   1  11
BRANCH   6  34
ATOM     34  CAT B69 d          18.097  50.407  35.833  0.00  0.00    -0.041 C 
ATOM     35  H18 B69 d          17.721  50.105  34.844  0.00  0.00     0.040 H 
ATOM     36  H19 B69 d          17.913  49.601  36.558  0.00  0.00     0.040 H 
BRANCH  34  37
ATOM     37  CAR B69 d          19.603  50.655  35.737  0.00  0.00    -0.059 C 
ATOM     38  H20 B69 d          19.776  51.654  35.309  0.00  0.00     0.033 H 
ATOM     39  H21 B69 d          20.051  49.893  35.082  0.00  0.00     0.033 H 
BRANCH  37  40
ATOM     40  CAU B69 d          20.262  50.582  37.115  0.00  0.00    -0.034 C 
ATOM     41  H22 B69 d          20.523  49.534  37.324  0.00  0.00     0.036 H 
ATOM     42  H23 B69 d          19.543  50.939  37.868  0.00  0.00     0.036 H 
BRANCH  40  43
ATOM     43  CAZ B69 d          21.532  51.428  37.215  0.00  0.00     0.169 C 
ATOM     44  H24 B69 d          22.042  51.200  38.163  0.00  0.00     0.090 H 
BRANCH  43  45
ATOM     45  PBA B69 d          21.121  53.221  37.178  0.00  0.00     0.281 P 
ATOM     46  OAC B69 d          22.341  54.010  37.875  0.00  0.00    -0.639 OA
ATOM     47  OAD B69 d          21.119  53.645  35.626  0.00  0.00    -0.639 OA
ATOM     48  OAB B69 d          19.834  53.497  37.854  0.00  0.00    -0.639 OA
ENDBRANCH  43  45
BRANCH  43  49
ATOM     49  SBB B69 d          22.639  51.008  35.819  0.00  0.00     0.119 S 
ATOM     50  OAG B69 d          22.033  51.431  34.596  0.00  0.00    -0.594 OA
ATOM     51  OAF B69 d          22.859  49.525  35.789  0.00  0.00    -0.594 OA
ATOM     52  OAE B69 d          23.955  51.704  36.008  0.00  0.00    -0.594 OA
ENDBRANCH  43  49
ENDBRANCH  40  43
ENDBRANCH  37  40
ENDBRANCH  34  37
ENDBRANCH   6  34
TORSDOF 11
ENDMDL
MODEL 9
REMARK VINA RESULT:      -7.1      1.941      3.305
REMARK  11 active torsions:
REMARK  status: ('A' for Active; 'I' for Inactive)
REMARK    1  A    between atoms: CAA_1  and  CAP_2 
REMARK    2  A    between atoms: CAP_2  and  CAQ_3 
REMARK    3  A    between atoms: CAQ_3  and  CAS_4 
REMARK    4  A    between atoms: CAS_4  and  CAV_5 
REMARK    5  A    between atoms: CAX_10  and  CAY_11 
REMARK    6  A    between atoms: CAW_16  and  CAT_17 
REMARK    7  A    between atoms: CAT_17  and  CAR_18 
REMARK    8  A    between atoms: CAR_18  and  CAU_19 
REMARK    9  A    between atoms: CAU_19  and  CAZ_20 
REMARK   10  A    between atoms: CAZ_20  and  PBA_21 
REMARK   11  A    between atoms: CAZ_20  and  SBB_25 
ROOT
ATOM      1  CAY B69 d          16.477  55.023  37.672  0.00  0.00    -0.026 A 
ATOM      2  CAO B69 d          17.558  54.634  38.458  0.00  0.00    -0.072 A 
ATOM      3  CAK B69 d          18.548  53.817  37.919  0.00  0.00    -0.076 A 
ATOM      4  CAN B69 d          16.383  54.575  36.360  0.00  0.00    -0.072 A 
ATOM      5  CAJ B69 d          17.373  53.760  35.821  0.00  0.00    -0.076 A 
ATOM      6  CAW B69 d          18.461  53.384  36.601  0.00  0.00    -0.058 A 
ATOM      7  H14 B69 d          17.629  54.968  39.487  0.00  0.00     0.084 H 
ATOM      8  H15 B69 d          19.390  53.516  38.531  0.00  0.00     0.084 H 
ATOM      9  H16 B69 d          15.532  54.863  35.753  0.00  0.00     0.084 H 
ATOM     10  H17 B69 d          17.297  53.418  34.795  0.00  0.00     0.084 H 
ENDROOT
BRANCH   1  11
ATOM     11  CAX B69 d          15.561  55.948  38.160  0.00  0.00    -0.026 A 
ATOM     12  CAM B69 d          15.515  56.276  39.511  0.00  0.00    -0.072 A 
ATOM     13  CAI B69 d          14.533  57.138  39.986  0.00  0.00    -0.076 A 
ATOM     14  H11 B69 d          16.245  55.859  40.195  0.00  0.00     0.084 H 
ATOM     15  CAV B69 d          13.598  57.690  39.115  0.00  0.00    -0.058 A 
ATOM     16  H10 B69 d          14.495  57.383  41.041  0.00  0.00     0.084 H 
ATOM     17  CAH B69 d          13.635  57.350  37.769  0.00  0.00    -0.076 A 
ATOM     18  CAL B69 d          14.616  56.486  37.294  0.00  0.00    -0.072 A 
ATOM     19  H12 B69 d          12.898  57.758  37.087  0.00  0.00     0.084 H 
ATOM     20  H13 B69 d          14.644  56.230  36.241  0.00  0.00     0.084 H 
BRANCH  15  21
ATOM     21  CAS B69 d          12.718  58.860  39.565  0.00  0.00    -0.041 C 
ATOM     22  H8  B69 d          11.990  58.473  40.292  0.00  0.00     0.040 H 
ATOM     23  H9  B69 d          13.368  59.600  40.054  0.00  0.00     0.040 H 
BRANCH  21  24
ATOM     24  CAQ B69 d          11.939  59.578  38.460  0.00  0.00    -0.062 C 
ATOM     25  H6  B69 d          12.311  60.607  38.350  0.00  0.00     0.033 H 
ATOM     26  H7  B69 d          12.060  59.040  37.508  0.00  0.00     0.033 H 
BRANCH  24  27
ATOM     27  CAP B69 d          10.461  59.600  38.863  0.00  0.00    -0.068 C 
ATOM     28  H4  B69 d          10.247  58.711  39.474  0.00  0.00     0.032 H 
ATOM     29  H5  B69 d          10.268  60.506  39.455  0.00  0.00     0.032 H 
BRANCH  27  30
ATOM     30  CAA B69 d           9.537  59.598  37.645  0.00  0.00    -0.077 C 
ATOM     31  H1  B69 d           9.275  60.634  37.382  0.00  0.00     0.027 H 
ATOM     32  H2  B69 d           8.621  59.037  37.881  0.00  0.00     0.027 H 
ATOM     33  H3  B69 d          10.050  59.123  36.796  0.00  0.00     0.027 H 
ENDBRANCH  27  30
ENDBRANCH  24  27
ENDBRANCH  21  24
ENDBRANCH  15  21
ENDBRANCH   1  11
BRANCH   6  34
ATOM     34  CAT B69 d          19.586  52.525  36.013  0.00  0.00    -0.041 C 
ATOM     35  H18 B69 d          20.458  53.165  35.814  0.00  0.00     0.040 H 
ATOM     36  H19 B69 d          19.237  52.077  35.071  0.00  0.00     0.040 H 
BRANCH  34  37
ATOM     37  CAR B69 d          19.998  51.407  36.972  0.00  0.00    -0.059 C 
ATOM     38  H20 B69 d          20.088  50.466  36.410  0.00  0.00     0.033 H 
ATOM     39  H21 B69 d          19.227  51.298  37.749  0.00  0.00     0.033 H 
BRANCH  37  40
ATOM     40  CAU B69 d          21.340  51.720  37.638  0.00  0.00    -0.034 C 
ATOM     41  H22 B69 d          21.493  51.014  38.467  0.00  0.00     0.036 H 
ATOM     42  H23 B69 d          21.305  52.748  38.032  0.00  0.00     0.036 H 
BRANCH  40  43
ATOM     43  CAZ B69 d          22.524  51.607  36.678  0.00  0.00     0.169 C 
ATOM     44  H24 B69 d          22.464  52.418  35.936  0.00  0.00     0.090 H 
BRANCH  43  45
ATOM     45  PBA B69 d          22.492  49.993  35.797  0.00  0.00     0.281 P 
ATOM     46  OAC B69 d          23.867  49.869  34.966  0.00  0.00    -0.639 OA
ATOM     47  OAD B69 d          22.536  48.861  36.940  0.00  0.00    -0.639 OA
ATOM     48  OAB B69 d          21.309  49.878  34.915  0.00  0.00    -0.639 OA
ENDBRANCH  43  45
BRANCH  43  49
ATOM     49  SBB B69 d          24.079  51.775  37.628  0.00  0.00     0.119 S 
ATOM     50  OAG B69 d          24.187  50.686  38.548  0.00  0.00    -0.594 OA
ATOM     51  OAF B69 d          24.066  53.073  38.378  0.00  0.00    -0.594 OA
ATOM     52  OAE B69 d          25.241  51.760  36.676  0.00  0.00    -0.594 OA
ENDBRANCH  43  49
ENDBRANCH  40  43
ENDBRANCH  37  40
ENDBRANCH  34  37
ENDBRANCH   6  34
TORSDOF 11
ENDMDL
