REMARK  17 active torsions:
REMARK  status: ('A' for Active; 'I' for Inactive)
REMARK    1  A    between atoms: C24_4  and  C22_7 
REMARK    2  A    between atoms: C22_7  and  O23_8 
REMARK    3  A    between atoms: O23_8  and  C21_9 
REMARK       I    between atoms: C21_9  and  N20_11 
REMARK    4  A    between atoms: N20_11  and  C19_12 
REMARK    5  A    between atoms: C19_12  and  C32_13 
REMARK    6  A    between atoms: C19_12  and  C17_20 
REMARK    7  A    between atoms: C32_13  and  C38_14 
REMARK    8  A    between atoms: C17_20  and  O18_21 
REMARK    9  A    between atoms: C17_20  and  C16_22 
REMARK   10  A    between atoms: C16_22  and  N11_23 
REMARK   11  A    between atoms: N11_23  and  C12_24 
REMARK   12  A    between atoms: N11_23  and  S8_29 
REMARK   13  A    between atoms: C12_24  and  C13_25 
REMARK   14  A    between atoms: C13_25  and  C14_26 
REMARK   15  A    between atoms: C13_25  and  C15_27 
REMARK   16  A    between atoms: C15_27  and  C18_28 
REMARK   17  A    between atoms: S8_29  and  C5_32 
ROOT
ATOM      1  C17 MOL d          19.944  29.299  15.452  0.00  0.00     0.067 C 
ATOM      2  H18 MOL d          20.986  29.645  15.394  0.00  0.00     0.088 H 
ENDROOT
BRANCH   1   3
ATOM      3  C19 MOL d          19.510  28.885  14.044  0.00  0.00     0.044 C 
ATOM      4  H10 MOL d          19.390  29.802  13.448  0.00  0.00     0.077 H 
BRANCH   3   5
ATOM      5  N20 MOL d          20.545  28.063  13.438  0.00  0.00    -0.329 N 
ATOM      6  C21 MOL d          21.329  28.418  12.425  0.00  0.00     0.361 C 
ATOM      7  O22 MOL d          21.344  29.510  11.881  0.00  0.00    -0.239 OA
ATOM      8  H9  MOL d          20.679  27.148  13.818  0.00  0.00     0.165 HD
BRANCH   6   9
ATOM      9  O23 MOL d          22.210  27.381  11.917  0.00  0.00    -0.302 OA
BRANCH   9  10
ATOM     10  C22 MOL d          22.855  27.552  10.654  0.00  0.00     0.049 C 
ATOM     11  H7  MOL d          22.527  28.491  10.184  0.00  0.00     0.078 H 
ATOM     12  H8  MOL d          23.947  27.568  10.784  0.00  0.00     0.078 H 
BRANCH  10  13
ATOM     13  C24 MOL d          22.446  26.366   9.798  0.00  0.00     0.034 C 
ATOM     14  N29 MOL d          22.801  25.142  10.465  0.00  0.00    -0.354 N 
ATOM     15  C27 MOL d          21.765  24.441  10.891  0.00  0.00     0.218 C 
ATOM     16  H1  MOL d          23.748  24.848  10.595  0.00  0.00     0.162 HD
ATOM     17  O28 MOL d          21.820  23.393  11.491  0.00  0.00    -0.274 OA
ATOM     18  C26 MOL d          20.470  25.110  10.505  0.00  0.00     0.011 C 
ATOM     19  C25 MOL d          20.931  26.258   9.621  0.00  0.00    -0.036 C 
ATOM     20  H5  MOL d          19.937  25.483  11.392  0.00  0.00     0.047 H 
ATOM     21  H6  MOL d          19.818  24.420   9.949  0.00  0.00     0.047 H 
ATOM     22  H3  MOL d          20.686  26.049   8.569  0.00  0.00     0.036 H 
ATOM     23  H4  MOL d          20.445  27.195   9.932  0.00  0.00     0.036 H 
ATOM     24  H2  MOL d          22.941  26.439   8.819  0.00  0.00     0.075 H 
ENDBRANCH  10  13
ENDBRANCH   9  10
ENDBRANCH   6   9
ENDBRANCH   3   5
BRANCH   3  25
ATOM     25  C32 MOL d          18.188  28.113  13.992  0.00  0.00    -0.020 C 
ATOM     26  H11 MOL d          17.396  28.729  14.443  0.00  0.00     0.043 H 
ATOM     27  H12 MOL d          18.296  27.179  14.562  0.00  0.00     0.043 H 
BRANCH  25  28
ATOM     28  C38 MOL d          17.799  27.777  12.560  0.00  0.00    -0.056 A 
ATOM     29  C37 MOL d          17.701  26.447  12.170  0.00  0.00    -0.077 A 
ATOM     30  C36 MOL d          17.341  26.124  10.863  0.00  0.00    -0.082 A 
ATOM     31  H13 MOL d          17.905  25.658  12.885  0.00  0.00     0.084 H 
ATOM     32  C35 MOL d          17.071  27.130   9.943  0.00  0.00    -0.083 A 
ATOM     33  H14 MOL d          17.271  25.085  10.563  0.00  0.00     0.083 H 
ATOM     34  C34 MOL d          17.166  28.461  10.332  0.00  0.00    -0.082 A 
ATOM     35  H15 MOL d          16.788  26.878   8.927  0.00  0.00     0.083 H 
ATOM     36  C33 MOL d          17.522  28.778  11.640  0.00  0.00    -0.077 A 
ATOM     37  H16 MOL d          16.963  29.251   9.618  0.00  0.00     0.083 H 
ATOM     38  H17 MOL d          17.583  29.817  11.943  0.00  0.00     0.084 H 
ENDBRANCH  25  28
ENDBRANCH   3  25
ENDBRANCH   1   3
BRANCH   1  39
ATOM     39  O18 MOL d          19.878  28.176  16.336  0.00  0.00    -0.392 OA
ATOM     40  H19 MOL d          20.149  28.443  17.206  0.00  0.00     0.210 HD
ENDBRANCH   1  39
BRANCH   1  41
ATOM     41  C16 MOL d          19.096  30.432  16.048  0.00  0.00     0.019 C 
ATOM     42  H20 MOL d          19.381  30.594  17.098  0.00  0.00     0.061 H 
ATOM     43  H21 MOL d          18.031  30.164  15.995  0.00  0.00     0.061 H 
BRANCH  41  44
ATOM     44  N11 MOL d          19.338  31.674  15.267  0.00  0.00    -0.204 NA
BRANCH  44  45
ATOM     45  C12 MOL d          20.117  32.672  16.036  0.00  0.00    -0.004 C 
ATOM     46  H22 MOL d          19.784  32.653  17.084  0.00  0.00     0.058 H 
ATOM     47  H23 MOL d          19.934  33.670  15.611  0.00  0.00     0.058 H 
BRANCH  45  48
ATOM     48  C13 MOL d          21.627  32.379  15.988  0.00  0.00    -0.046 C 
ATOM     49  H24 MOL d          21.781  31.361  16.374  0.00  0.00     0.041 H 
BRANCH  48  50
ATOM     50  C14 MOL d          22.233  32.432  14.585  0.00  0.00    -0.072 C 
ATOM     51  H25 MOL d          23.309  32.212  14.642  0.00  0.00     0.028 H 
ATOM     52  H26 MOL d          22.086  33.436  14.160  0.00  0.00     0.028 H 
ATOM     53  H27 MOL d          21.740  31.686  13.944  0.00  0.00     0.028 H 
ENDBRANCH  48  50
BRANCH  48  54
ATOM     54  C15 MOL d          22.354  33.363  16.912  0.00  0.00    -0.064 C 
ATOM     55  H28 MOL d          23.425  33.113  16.912  0.00  0.00     0.033 H 
ATOM     56  H29 MOL d          21.950  33.248  17.929  0.00  0.00     0.033 H 
BRANCH  54  57
ATOM     57  C18 MOL d          22.201  34.818  16.497  0.00  0.00    -0.076 C 
ATOM     58  H30 MOL d          22.747  35.460  17.204  0.00  0.00     0.027 H 
ATOM     59  H31 MOL d          21.135  35.091  16.502  0.00  0.00     0.027 H 
ATOM     60  H32 MOL d          22.610  34.956  15.485  0.00  0.00     0.027 H 
ENDBRANCH  54  57
ENDBRANCH  48  54
ENDBRANCH  45  48
ENDBRANCH  44  45
BRANCH  44  61
ATOM     61  S8  MOL d          18.017  32.292  14.541  0.00  0.00     0.243 S 
ATOM     62  O10 MOL d          17.247  31.187  14.058  0.00  0.00    -0.206 OA
ATOM     63  O9  MOL d          18.513  33.171  13.508  0.00  0.00    -0.206 OA
BRANCH  61  64
ATOM     64  C5  MOL d          17.127  33.193  15.590  0.00  0.00     0.076 A 
ATOM     65  C6  MOL d          16.147  32.544  16.344  0.00  0.00    -0.059 A 
ATOM     66  C7  MOL d          15.393  33.227  17.297  0.00  0.00    -0.052 A 
ATOM     67  H33 MOL d          15.969  31.487  16.185  0.00  0.00     0.086 H 
ATOM     68  C2  MOL d          15.581  34.577  17.514  0.00  0.00     0.074 A 
ATOM     69  H34 MOL d          14.649  32.691  17.875  0.00  0.00     0.087 H 
ATOM     70  C3  MOL d          16.541  35.263  16.767  0.00  0.00     0.036 A 
ATOM     71  N1  MOL d          14.956  35.414  18.375  0.00  0.00    -0.253 NA
ATOM     72  C4  MOL d          17.305  34.567  15.815  0.00  0.00    -0.042 A 
ATOM     73  S1  MOL d          16.674  36.933  17.121  0.00  0.00    -0.081 SA
ATOM     74  H35 MOL d          18.050  35.105  15.240  0.00  0.00     0.088 H 
ATOM     75  C1  MOL d          15.414  36.673  18.288  0.00  0.00     0.041 A 
ATOM     76  H36 MOL d          15.022  37.478  18.908  0.00  0.00     0.126 H 
ENDBRANCH  61  64
ENDBRANCH  44  61
ENDBRANCH  41  44
ENDBRANCH   1  41
TORSDOF 17
