MODEL 1
REMARK VINA RESULT:      -7.2      0.000      0.000
REMARK  5 active torsions:
REMARK  status: ('A' for Active; 'I' for Inactive)
REMARK    1  A    between atoms: C2_2  and  O2_12 
REMARK    2  A    between atoms: C3_4  and  O3_11 
REMARK    3  A    between atoms: C4_5  and  O4_13 
REMARK    4  A    between atoms: C5_6  and  C6_7 
REMARK    5  A    between atoms: C6_7  and  O6_14 
ROOT
ATOM      1  C1  GIM d          30.174  65.840   9.815  0.00  0.00     0.138 A 
ATOM      2  C2  GIM d          31.475  65.287   9.230  0.00  0.00     0.119 C 
ATOM      3  N10 GIM d          29.306  66.508   8.971  0.00  0.00    -0.332 N 
ATOM      4  C3  GIM d          32.034  66.342   8.273  0.00  0.00     0.093 C 
ATOM      5  C4  GIM d          31.051  66.501   7.128  0.00  0.00     0.085 C 
ATOM      6  C5  GIM d          29.617  66.844   7.573  0.00  0.00     0.065 C 
ATOM      7  C7  GIM d          28.479  66.439  10.990  0.00  0.00     0.019 A 
ATOM      8  C8  GIM d          28.234  66.836   9.740  0.00  0.00    -0.001 A 
ATOM      9  N1  GIM d          29.670  65.813  11.029  0.00  0.00    -0.243 NA
ATOM     10  H1  GIM d          31.221  64.393   8.644  0.00  0.00     0.099 H 
ATOM     11  H2  GIM d          32.201  67.303   8.782  0.00  0.00     0.091 H 
ATOM     12  H3  GIM d          31.032  65.561   6.558  0.00  0.00     0.090 H 
ATOM     13  H4  GIM d          29.472  67.929   7.457  0.00  0.00     0.080 H 
ATOM     14  H7  GIM d          27.820  66.597  11.843  0.00  0.00     0.117 H 
ATOM     15  H8  GIM d          27.330  67.337   9.395  0.00  0.00     0.113 H 
ENDROOT
BRANCH   6  16
ATOM     16  C6  GIM d          28.666  66.098   6.597  0.00  0.00     0.038 C 
ATOM     17  H5  GIM d          28.503  66.712   5.699  0.00  0.00     0.077 H 
ATOM     18  H6  GIM d          27.702  65.910   7.093  0.00  0.00     0.077 H 
BRANCH  16  19
ATOM     19  O6  GIM d          29.267  64.848   6.222  0.00  0.00    -0.399 OA
ATOM     20  H12 GIM d          28.817  64.497   5.463  0.00  0.00     0.209 HD
ENDBRANCH  16  19
ENDBRANCH   6  16
BRANCH   5  21
ATOM     21  O4  GIM d          31.473  67.577   6.278  0.00  0.00    -0.391 OA
ATOM     22  H11 GIM d          32.061  68.147   6.759  0.00  0.00     0.210 HD
ENDBRANCH   5  21
BRANCH   4  23
ATOM     23  O3  GIM d          33.282  65.785   7.766  0.00  0.00    -0.390 OA
ATOM     24  H9  GIM d          33.755  66.454   7.286  0.00  0.00     0.210 HD
ENDBRANCH   4  23
BRANCH   2  25
ATOM     25  O2  GIM d          32.426  64.888  10.184  0.00  0.00    -0.385 OA
ATOM     26  H10 GIM d          31.987  64.451  10.903  0.00  0.00     0.210 HD
ENDBRANCH   2  25
TORSDOF 5
ENDMDL
MODEL 2
REMARK VINA RESULT:      -6.1      1.773      3.651
REMARK  5 active torsions:
REMARK  status: ('A' for Active; 'I' for Inactive)
REMARK    1  A    between atoms: C2_2  and  O2_12 
REMARK    2  A    between atoms: C3_4  and  O3_11 
REMARK    3  A    between atoms: C4_5  and  O4_13 
REMARK    4  A    between atoms: C5_6  and  C6_7 
REMARK    5  A    between atoms: C6_7  and  O6_14 
ROOT
ATOM      1  C1  GIM d          30.490  66.190   7.644  0.00  0.00     0.138 A 
ATOM      2  C2  GIM d          31.703  66.216   8.575  0.00  0.00     0.119 C 
ATOM      3  N10 GIM d          29.229  66.140   8.210  0.00  0.00    -0.332 N 
ATOM      4  C3  GIM d          31.435  65.224   9.708  0.00  0.00     0.093 C 
ATOM      5  C4  GIM d          30.243  65.728  10.499  0.00  0.00     0.085 C 
ATOM      6  C5  GIM d          28.982  65.970   9.649  0.00  0.00     0.065 C 
ATOM      7  C7  GIM d          29.070  66.185   6.033  0.00  0.00     0.019 A 
ATOM      8  C8  GIM d          28.361  66.177   7.163  0.00  0.00    -0.001 A 
ATOM      9  N1  GIM d          30.382  66.208   6.334  0.00  0.00    -0.243 NA
ATOM     10  H1  GIM d          31.766  67.224   9.010  0.00  0.00     0.099 H 
ATOM     11  H2  GIM d          31.249  64.210   9.323  0.00  0.00     0.091 H 
ATOM     12  H3  GIM d          30.528  66.670  10.989  0.00  0.00     0.090 H 
ATOM     13  H4  GIM d          28.316  65.102   9.767  0.00  0.00     0.080 H 
ATOM     14  H7  GIM d          28.654  66.175   5.027  0.00  0.00     0.117 H 
ATOM     15  H8  GIM d          27.275  66.197   7.235  0.00  0.00     0.113 H 
ENDROOT
BRANCH   6  16
ATOM     16  C6  GIM d          28.287  67.225  10.246  0.00  0.00     0.038 C 
ATOM     17  H5  GIM d          27.195  67.095  10.211  0.00  0.00     0.077 H 
ATOM     18  H6  GIM d          28.569  68.115   9.663  0.00  0.00     0.077 H 
BRANCH  16  19
ATOM     19  O6  GIM d          28.708  67.390  11.610  0.00  0.00    -0.399 OA
ATOM     20  H12 GIM d          29.533  66.937  11.742  0.00  0.00     0.209 HD
ENDBRANCH  16  19
ENDBRANCH   6  16
BRANCH   5  21
ATOM     21  O4  GIM d          29.876  64.756  11.489  0.00  0.00    -0.391 OA
ATOM     22  H11 GIM d          29.166  64.220  11.158  0.00  0.00     0.210 HD
ENDBRANCH   5  21
BRANCH   4  23
ATOM     23  O3  GIM d          32.626  65.262  10.549  0.00  0.00    -0.390 OA
ATOM     24  H9  GIM d          32.577  66.010  11.132  0.00  0.00     0.210 HD
ENDBRANCH   4  23
BRANCH   2  25
ATOM     25  O2  GIM d          32.935  65.972   7.945  0.00  0.00    -0.385 OA
ATOM     26  H10 GIM d          32.831  65.273   7.312  0.00  0.00     0.210 HD
ENDBRANCH   2  25
TORSDOF 5
ENDMDL
MODEL 3
REMARK VINA RESULT:      -6.1      1.638      3.465
REMARK  5 active torsions:
REMARK  status: ('A' for Active; 'I' for Inactive)
REMARK    1  A    between atoms: C2_2  and  O2_12 
REMARK    2  A    between atoms: C3_4  and  O3_11 
REMARK    3  A    between atoms: C4_5  and  O4_13 
REMARK    4  A    between atoms: C5_6  and  C6_7 
REMARK    5  A    between atoms: C6_7  and  O6_14 
ROOT
ATOM      1  C1  GIM d          29.382  66.353   7.369  0.00  0.00     0.138 A 
ATOM      2  C2  GIM d          30.851  66.772   7.270  0.00  0.00     0.119 C 
ATOM      3  N10 GIM d          28.918  65.868   8.578  0.00  0.00    -0.332 N 
ATOM      4  C3  GIM d          31.679  65.726   8.021  0.00  0.00     0.093 C 
ATOM      5  C4  GIM d          31.286  65.782   9.485  0.00  0.00     0.085 C 
ATOM      6  C5  GIM d          29.778  65.598   9.739  0.00  0.00     0.065 C 
ATOM      7  C7  GIM d          27.300  65.897   7.112  0.00  0.00     0.019 A 
ATOM      8  C8  GIM d          27.593  65.628   8.386  0.00  0.00    -0.001 A 
ATOM      9  N1  GIM d          28.403  66.357   6.493  0.00  0.00    -0.243 NA
ATOM     10  H1  GIM d          30.957  67.733   7.794  0.00  0.00     0.099 H 
ATOM     11  H2  GIM d          31.523  64.717   7.612  0.00  0.00     0.091 H 
ATOM     12  H3  GIM d          31.599  66.756   9.888  0.00  0.00     0.090 H 
ATOM     13  H4  GIM d          29.605  64.554  10.039  0.00  0.00     0.080 H 
ATOM     14  H7  GIM d          26.324  65.764   6.648  0.00  0.00     0.117 H 
ATOM     15  H8  GIM d          26.892  65.278   9.142  0.00  0.00     0.113 H 
ENDROOT
BRANCH   6  16
ATOM     16  C6  GIM d          29.419  66.532  10.927  0.00  0.00     0.038 C 
ATOM     17  H5  GIM d          29.189  67.539  10.549  0.00  0.00     0.077 H 
ATOM     18  H6  GIM d          30.269  66.587  11.624  0.00  0.00     0.077 H 
BRANCH  16  19
ATOM     19  O6  GIM d          28.271  66.001  11.610  0.00  0.00    -0.399 OA
ATOM     20  H12 GIM d          27.803  66.708  12.038  0.00  0.00     0.209 HD
ENDBRANCH  16  19
ENDBRANCH   6  16
BRANCH   5  21
ATOM     21  O4  GIM d          31.943  64.726  10.200  0.00  0.00    -0.391 OA
ATOM     22  H11 GIM d          31.412  64.471  10.945  0.00  0.00     0.210 HD
ENDBRANCH   5  21
BRANCH   4  23
ATOM     23  O3  GIM d          33.066  66.151   7.874  0.00  0.00    -0.390 OA
ATOM     24  H9  GIM d          33.093  67.082   7.688  0.00  0.00     0.210 HD
ENDBRANCH   4  23
BRANCH   2  25
ATOM     25  O2  GIM d          31.320  66.971   5.962  0.00  0.00    -0.385 OA
ATOM     26  H10 GIM d          30.600  67.250   5.408  0.00  0.00     0.210 HD
ENDBRANCH   2  25
TORSDOF 5
ENDMDL
MODEL 4
REMARK VINA RESULT:      -4.8      2.067      4.605
REMARK  5 active torsions:
REMARK  status: ('A' for Active; 'I' for Inactive)
REMARK    1  A    between atoms: C2_2  and  O2_12 
REMARK    2  A    between atoms: C3_4  and  O3_11 
REMARK    3  A    between atoms: C4_5  and  O4_13 
REMARK    4  A    between atoms: C5_6  and  C6_7 
REMARK    5  A    between atoms: C6_7  and  O6_14 
ROOT
ATOM      1  C1  GIM d          29.776  66.267   7.478  0.00  0.00     0.138 A 
ATOM      2  C2  GIM d          28.428  65.895   8.098  0.00  0.00     0.119 C 
ATOM      3  N10 GIM d          30.901  66.229   8.281  0.00  0.00    -0.332 N 
ATOM      4  C3  GIM d          28.370  66.528   9.489  0.00  0.00     0.093 C 
ATOM      5  C4  GIM d          29.454  65.890  10.338  0.00  0.00     0.085 C 
ATOM      6  C5  GIM d          30.866  65.986   9.731  0.00  0.00     0.065 C 
ATOM      7  C7  GIM d          31.449  66.832   6.256  0.00  0.00     0.019 A 
ATOM      8  C8  GIM d          31.939  66.553   7.465  0.00  0.00    -0.001 A 
ATOM      9  N1  GIM d          30.117  66.641   6.265  0.00  0.00    -0.243 NA
ATOM     10  H1  GIM d          28.408  64.803   8.217  0.00  0.00     0.099 H 
ATOM     11  H2  GIM d          28.501  67.619   9.444  0.00  0.00     0.091 H 
ATOM     12  H3  GIM d          29.199  64.830  10.482  0.00  0.00     0.090 H 
ATOM     13  H4  GIM d          31.392  66.821  10.216  0.00  0.00     0.080 H 
ATOM     14  H7  GIM d          32.034  67.162   5.399  0.00  0.00     0.117 H 
ATOM     15  H8  GIM d          32.990  66.581   7.750  0.00  0.00     0.113 H 
ENDROOT
BRANCH   6  16
ATOM     16  C6  GIM d          31.587  64.657  10.090  0.00  0.00     0.038 C 
ATOM     17  H5  GIM d          31.609  64.000   9.208  0.00  0.00     0.077 H 
ATOM     18  H6  GIM d          31.049  64.155  10.908  0.00  0.00     0.077 H 
BRANCH  16  19
ATOM     19  O6  GIM d          32.930  64.951  10.506  0.00  0.00    -0.399 OA
ATOM     20  H12 GIM d          33.543  64.526   9.917  0.00  0.00     0.209 HD
ENDBRANCH  16  19
ENDBRANCH   6  16
BRANCH   5  21
ATOM     21  O4  GIM d          29.520  66.551  11.610  0.00  0.00    -0.391 OA
ATOM     22  H11 GIM d          29.295  65.935  12.297  0.00  0.00     0.210 HD
ENDBRANCH   5  21
BRANCH   4  23
ATOM     23  O3  GIM d          27.062  66.172  10.025  0.00  0.00    -0.390 OA
ATOM     24  H9  GIM d          26.895  66.676  10.812  0.00  0.00     0.210 HD
ENDBRANCH   4  23
BRANCH   2  25
ATOM     25  O2  GIM d          27.308  66.235   7.320  0.00  0.00    -0.385 OA
ATOM     26  H10 GIM d          26.742  65.478   7.235  0.00  0.00     0.210 HD
ENDBRANCH   2  25
TORSDOF 5
ENDMDL
