MODEL 1
REMARK VINA RESULT:      -6.4      0.000      0.000
REMARK  6 active torsions:
REMARK  status: ('A' for Active; 'I' for Inactive)
REMARK    1  A    between atoms: CA_1  and  C_2 
REMARK    2  A    between atoms: C6_6  and  CA_1 
REMARK    3  A    between atoms: CA_1  and  N_8 
REMARK    4  A    between atoms: C7_7  and  C3_3 
REMARK    5  A    between atoms: C4_4  and  N4_11 
REMARK    6  A    between atoms: C6_6  and  C7_7 
ROOT
ATOM      1  C7  Z70 d         -20.565  14.213  -5.208  0.00  0.00    -0.023 C 
ATOM      2  H5  Z70 d         -20.910  14.297  -4.167  0.00  0.00     0.042 H 
ATOM      3  H6  Z70 d         -21.312  14.663  -5.880  0.00  0.00     0.042 H 
ENDROOT
BRANCH   1   4
ATOM      4  C3  Z70 d         -20.431  12.735  -5.555  0.00  0.00     0.029 A 
ATOM      5  C5  Z70 d         -19.276  12.262  -6.343  0.00  0.00     0.028 A 
ATOM      6  N3  Z70 d         -19.507  10.894  -6.464  0.00  0.00    -0.226 NA
ATOM      7  H2  Z70 d         -18.443  12.844  -6.736  0.00  0.00     0.117 H 
ATOM      8  C4  Z70 d         -20.701  10.596  -5.800  0.00  0.00     0.199 A 
ATOM      9  N2  Z70 d         -21.272  11.687  -5.246  0.00  0.00    -0.329 N 
ATOM     10  H10 Z70 d         -22.149  11.728  -4.708  0.00  0.00     0.169 HD
BRANCH   8  11
ATOM     11  N4  Z70 d         -21.242   9.325  -5.720  0.00  0.00    -0.369 N 
ATOM     12  H11 Z70 d         -21.823   8.963  -6.489  0.00  0.00     0.159 HD
ATOM     13  H12 Z70 d         -21.064   8.741  -4.890  0.00  0.00     0.159 HD
ENDBRANCH   8  11
ENDBRANCH   1   4
BRANCH   1  14
ATOM     14  C6  Z70 d         -19.259  14.994  -5.348  0.00  0.00    -0.024 C 
ATOM     15  H3  Z70 d         -18.488  14.486  -4.751  0.00  0.00     0.037 H 
ATOM     16  H4  Z70 d         -18.966  14.987  -6.409  0.00  0.00     0.037 H 
BRANCH  14  17
ATOM     17  CA  Z70 d         -19.342  16.468  -4.878  0.00  0.00     0.182 C 
ATOM     18  H1  Z70 d         -18.396  16.971  -5.128  0.00  0.00     0.101 H 
BRANCH  17  19
ATOM     19  C   Z70 d         -20.502  17.287  -5.489  0.00  0.00     0.204 C 
ATOM     20  OXT Z70 d         -21.547  17.583  -4.789  0.00  0.00    -0.646 OA
ATOM     21  O   Z70 d         -20.442  17.678  -6.709  0.00  0.00    -0.646 OA
ENDBRANCH  17  19
BRANCH  17  22
ATOM     22  N   Z70 d         -19.513  16.424  -3.466  0.00  0.00    -0.065 N 
ATOM     23  H7  Z70 d         -19.423  15.472  -3.146  0.00  0.00     0.275 HD
ATOM     24  H8  Z70 d         -20.427  16.775  -3.227  0.00  0.00     0.275 HD
ATOM     25  H9  Z70 d         -18.808  16.995  -3.025  0.00  0.00     0.275 HD
ENDBRANCH  17  22
ENDBRANCH  14  17
ENDBRANCH   1  14
TORSDOF 6
ENDMDL
MODEL 2
REMARK VINA RESULT:      -5.7      3.496      5.920
REMARK  6 active torsions:
REMARK  status: ('A' for Active; 'I' for Inactive)
REMARK    1  A    between atoms: CA_1  and  C_2 
REMARK    2  A    between atoms: C6_6  and  CA_1 
REMARK    3  A    between atoms: CA_1  and  N_8 
REMARK    4  A    between atoms: C7_7  and  C3_3 
REMARK    5  A    between atoms: C4_4  and  N4_11 
REMARK    6  A    between atoms: C6_6  and  C7_7 
ROOT
ATOM      1  C7  Z70 d         -20.188  13.968  -4.400  0.00  0.00    -0.023 C 
ATOM      2  H5  Z70 d         -20.611  13.956  -3.385  0.00  0.00     0.042 H 
ATOM      3  H6  Z70 d         -19.098  13.828  -4.345  0.00  0.00     0.042 H 
ENDROOT
BRANCH   1   4
ATOM      4  C3  Z70 d         -20.470  15.330  -5.025  0.00  0.00     0.029 A 
ATOM      5  C5  Z70 d         -21.193  15.418  -6.309  0.00  0.00     0.028 A 
ATOM      6  N3  Z70 d         -21.244  16.788  -6.555  0.00  0.00    -0.226 NA
ATOM      7  H2  Z70 d         -21.591  14.608  -6.917  0.00  0.00     0.117 H 
ATOM      8  C4  Z70 d         -20.602  17.443  -5.499  0.00  0.00     0.199 A 
ATOM      9  N2  Z70 d         -20.130  16.585  -4.569  0.00  0.00    -0.329 N 
ATOM     10  H10 Z70 d         -19.624  16.819  -3.703  0.00  0.00     0.169 HD
BRANCH   8  11
ATOM     11  N4  Z70 d         -20.460  18.816  -5.415  0.00  0.00    -0.369 N 
ATOM     12  H11 Z70 d         -19.568  19.259  -5.676  0.00  0.00     0.159 HD
ATOM     13  H12 Z70 d         -21.247  19.397  -5.092  0.00  0.00     0.159 HD
ENDBRANCH   8  11
ENDBRANCH   1   4
BRANCH   1  14
ATOM     14  C6  Z70 d         -20.784  12.801  -5.186  0.00  0.00    -0.024 C 
ATOM     15  H3  Z70 d         -21.472  12.255  -4.523  0.00  0.00     0.037 H 
ATOM     16  H4  Z70 d         -21.345  13.211  -6.039  0.00  0.00     0.037 H 
BRANCH  14  17
ATOM     17  CA  Z70 d         -19.738  11.796  -5.730  0.00  0.00     0.182 C 
ATOM     18  H1  Z70 d         -18.887  11.761  -5.034  0.00  0.00     0.101 H 
BRANCH  17  19
ATOM     19  C   Z70 d         -20.257  10.354  -5.934  0.00  0.00     0.204 C 
ATOM     20  OXT Z70 d         -21.214   9.884  -5.202  0.00  0.00    -0.646 OA
ATOM     21  O   Z70 d         -19.734   9.602  -6.831  0.00  0.00    -0.646 OA
ENDBRANCH  17  19
BRANCH  17  22
ATOM     22  N   Z70 d         -19.316  12.308  -6.989  0.00  0.00    -0.065 N 
ATOM     23  H7  Z70 d         -20.088  12.284  -7.638  0.00  0.00     0.275 HD
ATOM     24  H8  Z70 d         -18.560  11.743  -7.345  0.00  0.00     0.275 HD
ATOM     25  H9  Z70 d         -19.001  13.259  -6.877  0.00  0.00     0.275 HD
ENDBRANCH  17  22
ENDBRANCH  14  17
ENDBRANCH   1  14
TORSDOF 6
ENDMDL
MODEL 3
REMARK VINA RESULT:      -5.6      1.603      1.701
REMARK  6 active torsions:
REMARK  status: ('A' for Active; 'I' for Inactive)
REMARK    1  A    between atoms: CA_1  and  C_2 
REMARK    2  A    between atoms: C6_6  and  CA_1 
REMARK    3  A    between atoms: CA_1  and  N_8 
REMARK    4  A    between atoms: C7_7  and  C3_3 
REMARK    5  A    between atoms: C4_4  and  N4_11 
REMARK    6  A    between atoms: C6_6  and  C7_7 
ROOT
ATOM      1  C7  Z70 d         -20.707  14.375  -4.852  0.00  0.00    -0.023 C 
ATOM      2  H5  Z70 d         -19.884  14.666  -4.182  0.00  0.00     0.042 H 
ATOM      3  H6  Z70 d         -21.650  14.352  -4.285  0.00  0.00     0.042 H 
ENDROOT
BRANCH   1   4
ATOM      4  C3  Z70 d         -20.428  12.973  -5.381  0.00  0.00     0.029 A 
ATOM      5  C5  Z70 d         -19.267  12.733  -6.260  0.00  0.00     0.028 A 
ATOM      6  N3  Z70 d         -19.350  11.371  -6.539  0.00  0.00    -0.226 NA
ATOM      7  H2  Z70 d         -18.523  13.449  -6.607  0.00  0.00     0.117 H 
ATOM      8  C4  Z70 d         -20.470  10.861  -5.875  0.00  0.00     0.199 A 
ATOM      9  N2  Z70 d         -21.131  11.806  -5.173  0.00  0.00    -0.329 N 
ATOM     10  H10 Z70 d         -21.980  11.682  -4.603  0.00  0.00     0.169 HD
BRANCH   8  11
ATOM     11  N4  Z70 d         -20.863   9.536  -5.931  0.00  0.00    -0.369 N 
ATOM     12  H11 Z70 d         -21.131   9.115  -6.833  0.00  0.00     0.159 HD
ATOM     13  H12 Z70 d         -20.889   8.968  -5.072  0.00  0.00     0.159 HD
ENDBRANCH   8  11
ENDBRANCH   1   4
BRANCH   1  14
ATOM     14  C6  Z70 d         -20.830  15.429  -5.951  0.00  0.00    -0.024 C 
ATOM     15  H3  Z70 d         -20.252  15.088  -6.821  0.00  0.00     0.037 H 
ATOM     16  H4  Z70 d         -21.892  15.516  -6.226  0.00  0.00     0.037 H 
BRANCH  14  17
ATOM     17  CA  Z70 d         -20.317  16.835  -5.548  0.00  0.00     0.182 C 
ATOM     18  H1  Z70 d         -20.209  16.871  -4.454  0.00  0.00     0.101 H 
BRANCH  17  19
ATOM     19  C   Z70 d         -18.967  17.245  -6.181  0.00  0.00     0.204 C 
ATOM     20  OXT Z70 d         -18.485  18.432  -6.004  0.00  0.00    -0.646 OA
ATOM     21  O   Z70 d         -18.311  16.409  -6.898  0.00  0.00    -0.646 OA
ENDBRANCH  17  19
BRANCH  17  22
ATOM     22  N   Z70 d         -21.314  17.757  -5.971  0.00  0.00    -0.065 N 
ATOM     23  H7  Z70 d         -22.218  17.443  -5.653  0.00  0.00     0.275 HD
ATOM     24  H8  Z70 d         -21.313  17.816  -6.977  0.00  0.00     0.275 HD
ATOM     25  H9  Z70 d         -21.119  18.666  -5.581  0.00  0.00     0.275 HD
ENDBRANCH  17  22
ENDBRANCH  14  17
ENDBRANCH   1  14
TORSDOF 6
ENDMDL
MODEL 4
REMARK VINA RESULT:      -5.1      1.701      2.080
REMARK  6 active torsions:
REMARK  status: ('A' for Active; 'I' for Inactive)
REMARK    1  A    between atoms: CA_1  and  C_2 
REMARK    2  A    between atoms: C6_6  and  CA_1 
REMARK    3  A    between atoms: CA_1  and  N_8 
REMARK    4  A    between atoms: C7_7  and  C3_3 
REMARK    5  A    between atoms: C4_4  and  N4_11 
REMARK    6  A    between atoms: C6_6  and  C7_7 
ROOT
ATOM      1  C7  Z70 d         -18.799  13.804  -6.603  0.00  0.00    -0.023 C 
ATOM      2  H5  Z70 d         -17.945  13.559  -7.251  0.00  0.00     0.042 H 
ATOM      3  H6  Z70 d         -18.434  14.265  -5.673  0.00  0.00     0.042 H 
ENDROOT
BRANCH   1   4
ATOM      4  C3  Z70 d         -19.523  12.510  -6.249  0.00  0.00     0.029 A 
ATOM      5  C5  Z70 d         -20.761  12.551  -5.447  0.00  0.00     0.028 A 
ATOM      6  N3  Z70 d         -21.110  11.209  -5.322  0.00  0.00    -0.226 NA
ATOM      7  H2  Z70 d         -21.278  13.423  -5.047  0.00  0.00     0.117 H 
ATOM      8  C4  Z70 d         -20.150  10.448  -5.998  0.00  0.00     0.199 A 
ATOM      9  N2  Z70 d         -19.189  11.210  -6.562  0.00  0.00    -0.329 N 
ATOM     10  H10 Z70 d         -18.378  10.888  -7.110  0.00  0.00     0.169 HD
BRANCH   8  11
ATOM     11  N4  Z70 d         -20.178   9.067  -6.079  0.00  0.00    -0.369 N 
ATOM     12  H11 Z70 d         -19.701   8.587  -6.856  0.00  0.00     0.159 HD
ATOM     13  H12 Z70 d         -20.675   8.519  -5.363  0.00  0.00     0.159 HD
ENDBRANCH   8  11
ENDBRANCH   1   4
BRANCH   1  14
ATOM     14  C6  Z70 d         -19.682  14.818  -7.329  0.00  0.00    -0.024 C 
ATOM     15  H3  Z70 d         -19.029  15.564  -7.804  0.00  0.00     0.037 H 
ATOM     16  H4  Z70 d         -20.252  14.284  -8.104  0.00  0.00     0.037 H 
BRANCH  14  17
ATOM     17  CA  Z70 d         -20.685  15.563  -6.414  0.00  0.00     0.182 C 
ATOM     18  H1  Z70 d         -20.891  14.937  -5.533  0.00  0.00     0.101 H 
BRANCH  17  19
ATOM     19  C   Z70 d         -20.216  16.952  -5.921  0.00  0.00     0.204 C 
ATOM     20  OXT Z70 d         -21.037  17.949  -5.868  0.00  0.00    -0.646 OA
ATOM     21  O   Z70 d         -18.997  17.131  -5.565  0.00  0.00    -0.646 OA
ENDBRANCH  17  19
BRANCH  17  22
ATOM     22  N   Z70 d         -21.872  15.731  -7.181  0.00  0.00    -0.065 N 
ATOM     23  H7  Z70 d         -22.473  16.402  -6.728  0.00  0.00     0.275 HD
ATOM     24  H8  Z70 d         -22.350  14.846  -7.256  0.00  0.00     0.275 HD
ATOM     25  H9  Z70 d         -21.632  16.062  -8.102  0.00  0.00     0.275 HD
ENDBRANCH  17  22
ENDBRANCH  14  17
ENDBRANCH   1  14
TORSDOF 6
ENDMDL
MODEL 5
REMARK VINA RESULT:      -4.8      3.469      5.769
REMARK  6 active torsions:
REMARK  status: ('A' for Active; 'I' for Inactive)
REMARK    1  A    between atoms: CA_1  and  C_2 
REMARK    2  A    between atoms: C6_6  and  CA_1 
REMARK    3  A    between atoms: CA_1  and  N_8 
REMARK    4  A    between atoms: C7_7  and  C3_3 
REMARK    5  A    between atoms: C4_4  and  N4_11 
REMARK    6  A    between atoms: C6_6  and  C7_7 
ROOT
ATOM      1  C7  Z70 d         -20.275  14.178  -4.286  0.00  0.00    -0.023 C 
ATOM      2  H5  Z70 d         -21.114  14.498  -3.650  0.00  0.00     0.042 H 
ATOM      3  H6  Z70 d         -19.491  13.725  -3.660  0.00  0.00     0.042 H 
ENDROOT
BRANCH   1   4
ATOM      4  C3  Z70 d         -19.693  15.407  -4.975  0.00  0.00     0.029 A 
ATOM      5  C5  Z70 d         -18.446  16.015  -4.470  0.00  0.00     0.028 A 
ATOM      6  N3  Z70 d         -18.245  17.095  -5.326  0.00  0.00    -0.226 NA
ATOM      7  H2  Z70 d         -17.831  15.696  -3.630  0.00  0.00     0.117 H 
ATOM      8  C4  Z70 d         -19.292  17.113  -6.254  0.00  0.00     0.199 A 
ATOM      9  N2  Z70 d         -20.172  16.107  -6.060  0.00  0.00    -0.329 N 
ATOM     10  H10 Z70 d         -21.021  15.906  -6.608  0.00  0.00     0.169 HD
BRANCH   8  11
ATOM     11  N4  Z70 d         -19.417  18.057  -7.257  0.00  0.00    -0.369 N 
ATOM     12  H11 Z70 d         -20.327  18.204  -7.716  0.00  0.00     0.159 HD
ATOM     13  H12 Z70 d         -18.600  18.615  -7.545  0.00  0.00     0.159 HD
ENDBRANCH   8  11
ENDBRANCH   1   4
BRANCH   1  14
ATOM     14  C6  Z70 d         -20.786  13.117  -5.260  0.00  0.00    -0.024 C 
ATOM     15  H3  Z70 d         -21.609  12.573  -4.776  0.00  0.00     0.037 H 
ATOM     16  H4  Z70 d         -21.162  13.628  -6.159  0.00  0.00     0.037 H 
BRANCH  14  17
ATOM     17  CA  Z70 d         -19.716  12.086  -5.701  0.00  0.00     0.182 C 
ATOM     18  H1  Z70 d         -18.881  12.118  -4.986  0.00  0.00     0.101 H 
BRANCH  17  19
ATOM     19  C   Z70 d         -20.214  10.626  -5.799  0.00  0.00     0.204 C 
ATOM     20  OXT Z70 d         -21.358  10.280  -5.307  0.00  0.00    -0.646 OA
ATOM     21  O   Z70 d         -19.488   9.735  -6.368  0.00  0.00    -0.646 OA
ENDBRANCH  17  19
BRANCH  17  22
ATOM     22  N   Z70 d         -19.273  12.502  -6.988  0.00  0.00    -0.065 N 
ATOM     23  H7  Z70 d         -18.364  12.931  -6.907  0.00  0.00     0.275 HD
ATOM     24  H8  Z70 d         -19.927  13.167  -7.370  0.00  0.00     0.275 HD
ATOM     25  H9  Z70 d         -19.213  11.701  -7.597  0.00  0.00     0.275 HD
ENDBRANCH  17  22
ENDBRANCH  14  17
ENDBRANCH   1  14
TORSDOF 6
ENDMDL
MODEL 6
REMARK VINA RESULT:      -4.8      2.464      5.023
REMARK  6 active torsions:
REMARK  status: ('A' for Active; 'I' for Inactive)
REMARK    1  A    between atoms: CA_1  and  C_2 
REMARK    2  A    between atoms: C6_6  and  CA_1 
REMARK    3  A    between atoms: CA_1  and  N_8 
REMARK    4  A    between atoms: C7_7  and  C3_3 
REMARK    5  A    between atoms: C4_4  and  N4_11 
REMARK    6  A    between atoms: C6_6  and  C7_7 
ROOT
ATOM      1  C7  Z70 d         -19.624  14.487  -7.329  0.00  0.00    -0.023 C 
ATOM      2  H5  Z70 d         -19.064  14.488  -8.277  0.00  0.00     0.042 H 
ATOM      3  H6  Z70 d         -20.630  14.076  -7.499  0.00  0.00     0.042 H 
ENDROOT
BRANCH   1   4
ATOM      4  C3  Z70 d         -19.764  15.927  -6.849  0.00  0.00     0.029 A 
ATOM      5  C5  Z70 d         -18.588  16.818  -6.832  0.00  0.00     0.028 A 
ATOM      6  N3  Z70 d         -19.098  18.014  -6.332  0.00  0.00    -0.226 NA
ATOM      7  H2  Z70 d         -17.567  16.595  -7.137  0.00  0.00     0.117 H 
ATOM      8  C4  Z70 d         -20.461  17.832  -6.079  0.00  0.00     0.199 A 
ATOM      9  N2  Z70 d         -20.882  16.585  -6.383  0.00  0.00    -0.329 N 
ATOM     10  H10 Z70 d         -21.835  16.207  -6.287  0.00  0.00     0.169 HD
BRANCH   8  11
ATOM     11  N4  Z70 d         -21.289  18.815  -5.569  0.00  0.00    -0.369 N 
ATOM     12  H11 Z70 d         -22.235  18.944  -5.955  0.00  0.00     0.159 HD
ATOM     13  H12 Z70 d         -20.960  19.420  -4.802  0.00  0.00     0.159 HD
ENDBRANCH   8  11
ENDBRANCH   1   4
BRANCH   1  14
ATOM     14  C6  Z70 d         -18.893  13.581  -6.339  0.00  0.00    -0.024 C 
ATOM     15  H3  Z70 d         -18.699  12.618  -6.832  0.00  0.00     0.037 H 
ATOM     16  H4  Z70 d         -17.937  14.059  -6.077  0.00  0.00     0.037 H 
BRANCH  14  17
ATOM     17  CA  Z70 d         -19.673  13.307  -5.029  0.00  0.00     0.182 C 
ATOM     18  H1  Z70 d         -19.198  12.464  -4.505  0.00  0.00     0.101 H 
BRANCH  17  19
ATOM     19  C   Z70 d         -19.752  14.501  -4.050  0.00  0.00     0.204 C 
ATOM     20  OXT Z70 d         -20.894  14.983  -3.682  0.00  0.00    -0.646 OA
ATOM     21  O   Z70 d         -18.678  15.036  -3.598  0.00  0.00    -0.646 OA
ENDBRANCH  17  19
BRANCH  17  22
ATOM     22  N   Z70 d         -20.994  12.954  -5.421  0.00  0.00    -0.065 N 
ATOM     23  H7  Z70 d         -21.557  12.794  -4.600  0.00  0.00     0.275 HD
ATOM     24  H8  Z70 d         -20.966  12.114  -5.979  0.00  0.00     0.275 HD
ATOM     25  H9  Z70 d         -21.396  13.703  -5.963  0.00  0.00     0.275 HD
ENDBRANCH  17  22
ENDBRANCH  14  17
ENDBRANCH   1  14
TORSDOF 6
ENDMDL
MODEL 7
REMARK VINA RESULT:      -4.4      3.228      5.851
REMARK  6 active torsions:
REMARK  status: ('A' for Active; 'I' for Inactive)
REMARK    1  A    between atoms: CA_1  and  C_2 
REMARK    2  A    between atoms: C6_6  and  CA_1 
REMARK    3  A    between atoms: CA_1  and  N_8 
REMARK    4  A    between atoms: C7_7  and  C3_3 
REMARK    5  A    between atoms: C4_4  and  N4_11 
REMARK    6  A    between atoms: C6_6  and  C7_7 
ROOT
ATOM      1  C7  Z70 d         -18.132  15.489  -5.901  0.00  0.00    -0.023 C 
ATOM      2  H5  Z70 d         -17.292  15.721  -5.229  0.00  0.00     0.042 H 
ATOM      3  H6  Z70 d         -17.747  15.273  -6.909  0.00  0.00     0.042 H 
ENDROOT
BRANCH   1   4
ATOM      4  C3  Z70 d         -19.038  16.713  -5.982  0.00  0.00     0.029 A 
ATOM      5  C5  Z70 d         -18.642  17.871  -6.806  0.00  0.00     0.028 A 
ATOM      6  N3  Z70 d         -19.690  18.770  -6.622  0.00  0.00    -0.226 NA
ATOM      7  H2  Z70 d         -17.747  17.994  -7.413  0.00  0.00     0.117 H 
ATOM      8  C4  Z70 d         -20.620  18.181  -5.759  0.00  0.00     0.199 A 
ATOM      9  N2  Z70 d         -20.248  16.944  -5.364  0.00  0.00    -0.329 N 
ATOM     10  H10 Z70 d         -20.759  16.309  -4.734  0.00  0.00     0.169 HD
BRANCH   8  11
ATOM     11  N4  Z70 d         -21.791  18.794  -5.351  0.00  0.00    -0.369 N 
ATOM     12  H11 Z70 d         -22.623  18.227  -5.138  0.00  0.00     0.159 HD
ATOM     13  H12 Z70 d         -21.830  19.820  -5.260  0.00  0.00     0.159 HD
ENDBRANCH   8  11
ENDBRANCH   1   4
BRANCH   1  14
ATOM     14  C6  Z70 d         -18.838  14.240  -5.376  0.00  0.00    -0.024 C 
ATOM     15  H3  Z70 d         -18.148  13.711  -4.704  0.00  0.00     0.037 H 
ATOM     16  H4  Z70 d         -19.727  14.559  -4.812  0.00  0.00     0.037 H 
BRANCH  14  17
ATOM     17  CA  Z70 d         -19.293  13.252  -6.479  0.00  0.00     0.182 C 
ATOM     18  H1  Z70 d         -18.408  12.923  -7.044  0.00  0.00     0.101 H 
BRANCH  17  19
ATOM     19  C   Z70 d         -20.036  11.996  -5.969  0.00  0.00     0.204 C 
ATOM     20  OXT Z70 d         -19.617  10.810  -6.267  0.00  0.00    -0.646 OA
ATOM     21  O   Z70 d         -21.089  12.119  -5.247  0.00  0.00    -0.646 OA
ENDBRANCH  17  19
BRANCH  17  22
ATOM     22  N   Z70 d         -20.169  13.984  -7.329  0.00  0.00    -0.065 N 
ATOM     23  H7  Z70 d         -20.614  14.718  -6.801  0.00  0.00     0.275 HD
ATOM     24  H8  Z70 d         -20.871  13.363  -7.702  0.00  0.00     0.275 HD
ATOM     25  H9  Z70 d         -19.642  14.388  -8.088  0.00  0.00     0.275 HD
ENDBRANCH  17  22
ENDBRANCH  14  17
ENDBRANCH   1  14
TORSDOF 6
ENDMDL
