MODEL 1
REMARK VINA RESULT:      -6.2      0.000      0.000
REMARK  10 active torsions:
REMARK  status: ('A' for Active; 'I' for Inactive)
REMARK    1  A    between atoms: C1_1  and  C2_2 
REMARK    2  A    between atoms: C4_4  and  O4_15 
REMARK    3  A    between atoms: C5_5  and  N5_12 
REMARK    4  A    between atoms: C6_6  and  C7_7 
REMARK    5  A    between atoms: C7_7  and  O7_17 
REMARK    6  A    between atoms: C7_7  and  C8_8 
REMARK    7  A    between atoms: C8_8  and  O8_18 
REMARK    8  A    between atoms: C8_8  and  C9_9 
REMARK    9  A    between atoms: C9_9  and  O9_19 
REMARK       I    between atoms: N5_12  and  C10_10 
REMARK   10  A    between atoms: C10_10  and  C11_11 
ROOT
ATOM      1  C2  DAN d          24.417  19.008  64.317  0.00  0.00     0.144 C 
ATOM      2  C3  DAN d          23.625  17.914  64.091  0.00  0.00    -0.035 C 
ATOM      3  C4  DAN d          23.936  16.840  63.001  0.00  0.00     0.076 C 
ATOM      4  C5  DAN d          25.425  16.830  62.646  0.00  0.00     0.068 C 
ATOM      5  C6  DAN d          25.916  18.310  62.442  0.00  0.00     0.094 C 
ATOM      6  O6  DAN d          25.631  19.113  63.645  0.00  0.00    -0.335 OA
ATOM      7  H1  DAN d          22.735  17.786  64.704  0.00  0.00     0.085 H 
ATOM      8  H2  DAN d          23.357  17.080  62.098  0.00  0.00     0.092 H 
ATOM      9  H3  DAN d          25.998  16.364  63.462  0.00  0.00     0.081 H 
ATOM     10  H4  DAN d          25.395  18.742  61.576  0.00  0.00     0.091 H 
ENDROOT
BRANCH   5  11
ATOM     11  C7  DAN d          27.466  18.377  62.206  0.00  0.00     0.089 C 
ATOM     12  H5  DAN d          27.658  18.169  61.142  0.00  0.00     0.091 H 
BRANCH  11  13
ATOM     13  O7  DAN d          28.195  17.443  62.999  0.00  0.00    -0.390 OA
ATOM     14  H14 DAN d          28.037  17.618  63.919  0.00  0.00     0.210 HD
ENDBRANCH  11  13
BRANCH  11  15
ATOM     15  C8  DAN d          27.994  19.726  62.550  0.00  0.00     0.083 C 
ATOM     16  H6  DAN d          27.610  20.021  63.537  0.00  0.00     0.090 H 
BRANCH  15  17
ATOM     17  O8  DAN d          27.541  20.625  61.594  0.00  0.00    -0.391 OA
ATOM     18  H15 DAN d          27.854  20.360  60.738  0.00  0.00     0.210 HD
ENDBRANCH  15  17
BRANCH  15  19
ATOM     19  C9  DAN d          29.532  19.732  62.601  0.00  0.00     0.043 C 
ATOM     20  H7  DAN d          29.857  19.431  63.608  0.00  0.00     0.078 H 
ATOM     21  H8  DAN d          29.893  20.750  62.388  0.00  0.00     0.078 H 
BRANCH  19  22
ATOM     22  O9  DAN d          30.090  18.830  61.642  0.00  0.00    -0.398 OA
ATOM     23  H16 DAN d          29.816  19.088  60.769  0.00  0.00     0.209 HD
ENDBRANCH  19  22
ENDBRANCH  15  19
ENDBRANCH  11  15
ENDBRANCH   5  11
BRANCH   4  24
ATOM     24  N5  DAN d          25.614  16.052  61.407  0.00  0.00    -0.351 N 
ATOM     25  C10 DAN d          26.372  14.960  61.366  0.00  0.00     0.214 C 
ATOM     26  O10 DAN d          26.972  14.532  62.346  0.00  0.00    -0.274 OA
ATOM     27  H12 DAN d          25.157  16.356  60.570  0.00  0.00     0.163 HD
BRANCH  25  28
ATOM     28  C11 DAN d          26.505  14.206  60.060  0.00  0.00    -0.003 C 
ATOM     29  H9  DAN d          27.163  13.336  60.204  0.00  0.00     0.040 H 
ATOM     30  H10 DAN d          26.937  14.870  59.297  0.00  0.00     0.040 H 
ATOM     31  H11 DAN d          25.513  13.865  59.730  0.00  0.00     0.040 H 
ENDBRANCH  25  28
ENDBRANCH   4  24
BRANCH   3  32
ATOM     32  O4  DAN d          23.569  15.563  63.453  0.00  0.00    -0.389 OA
ATOM     33  H13 DAN d          23.764  14.922  62.779  0.00  0.00     0.210 HD
ENDBRANCH   3  32
BRANCH   1  34
ATOM     34  C1  DAN d          24.079  20.039  65.187  0.00  0.00     0.233 C 
ATOM     35  O1B DAN d          23.164  19.889  66.020  0.00  0.00    -0.642 OA
ATOM     36  O1A DAN d          24.714  21.111  65.119  0.00  0.00    -0.642 OA
ENDBRANCH   1  34
TORSDOF 10
ENDMDL
