MODEL 1
REMARK VINA RESULT:      -6.2      0.000      0.000
REMARK  10 active torsions:
REMARK  status: ('A' for Active; 'I' for Inactive)
REMARK    1  A    between atoms: C1_1  and  C2_2 
REMARK    2  A    between atoms: C4_4  and  O4_15 
REMARK    3  A    between atoms: C5_5  and  N5_12 
REMARK    4  A    between atoms: C6_6  and  C7_7 
REMARK    5  A    between atoms: C7_7  and  O7_17 
REMARK    6  A    between atoms: C7_7  and  C8_8 
REMARK    7  A    between atoms: C8_8  and  O8_18 
REMARK    8  A    between atoms: C8_8  and  C9_9 
REMARK    9  A    between atoms: C9_9  and  O9_19 
REMARK       I    between atoms: N5_12  and  C10_10 
REMARK   10  A    between atoms: C10_10  and  C11_11 
ROOT
ATOM      1  C2  DAN d          24.412  18.880  64.113  0.00  0.00     0.144 C 
ATOM      2  C3  DAN d          23.654  17.764  63.882  0.00  0.00    -0.035 C 
ATOM      3  C4  DAN d          24.029  16.675  62.827  0.00  0.00     0.076 C 
ATOM      4  C5  DAN d          25.530  16.691  62.528  0.00  0.00     0.068 C 
ATOM      5  C6  DAN d          25.997  18.178  62.312  0.00  0.00     0.094 C 
ATOM      6  O6  DAN d          25.649  18.998  63.486  0.00  0.00    -0.335 OA
ATOM      7  H1  DAN d          22.743  17.629  64.463  0.00  0.00     0.085 H 
ATOM      8  H2  DAN d          23.479  16.884  61.898  0.00  0.00     0.092 H 
ATOM      9  H3  DAN d          26.081  16.255  63.375  0.00  0.00     0.081 H 
ATOM     10  H4  DAN d          25.499  18.580  61.417  0.00  0.00     0.091 H 
ENDROOT
BRANCH   5  11
ATOM     11  C7  DAN d          27.552  18.275  62.132  0.00  0.00     0.089 C 
ATOM     12  H5  DAN d          27.783  18.123  61.067  0.00  0.00     0.091 H 
BRANCH  11  13
ATOM     13  O7  DAN d          28.267  17.310  62.903  0.00  0.00    -0.390 OA
ATOM     14  H14 DAN d          27.989  17.362  63.810  0.00  0.00     0.210 HD
ENDBRANCH  11  13
BRANCH  11  15
ATOM     15  C8  DAN d          28.051  19.611  62.561  0.00  0.00     0.083 C 
ATOM     16  H6  DAN d          27.631  19.850  63.550  0.00  0.00     0.090 H 
BRANCH  15  17
ATOM     17  O8  DAN d          27.615  20.552  61.639  0.00  0.00    -0.391 OA
ATOM     18  H15 DAN d          27.898  20.296  60.769  0.00  0.00     0.210 HD
ENDBRANCH  15  17
BRANCH  15  19
ATOM     19  C9  DAN d          29.585  19.634  62.662  0.00  0.00     0.043 C 
ATOM     20  H7  DAN d          29.892  19.108  63.579  0.00  0.00     0.078 H 
ATOM     21  H8  DAN d          29.926  20.679  62.707  0.00  0.00     0.078 H 
BRANCH  19  22
ATOM     22  O9  DAN d          30.192  18.996  61.536  0.00  0.00    -0.398 OA
ATOM     23  H16 DAN d          30.056  18.057  61.593  0.00  0.00     0.209 HD
ENDBRANCH  19  22
ENDBRANCH  15  19
ENDBRANCH  11  15
ENDBRANCH   5  11
BRANCH   4  24
ATOM     24  N5  DAN d          25.783  15.893  61.314  0.00  0.00    -0.351 N 
ATOM     25  C10 DAN d          26.622  14.860  61.308  0.00  0.00     0.214 C 
ATOM     26  O10 DAN d          27.249  14.510  62.302  0.00  0.00    -0.274 OA
ATOM     27  H12 DAN d          25.308  16.135  60.468  0.00  0.00     0.163 HD
BRANCH  25  28
ATOM     28  C11 DAN d          26.818  14.080  60.027  0.00  0.00    -0.003 C 
ATOM     29  H9  DAN d          27.342  13.138  60.247  0.00  0.00     0.040 H 
ATOM     30  H10 DAN d          27.416  14.677  59.322  0.00  0.00     0.040 H 
ATOM     31  H11 DAN d          25.838  13.858  59.579  0.00  0.00     0.040 H 
ENDBRANCH  25  28
ENDBRANCH   4  24
BRANCH   3  32
ATOM     32  O4  DAN d          23.673  15.400  63.292  0.00  0.00    -0.389 OA
ATOM     33  H13 DAN d          22.745  15.257  63.143  0.00  0.00     0.210 HD
ENDBRANCH   3  32
BRANCH   1  34
ATOM     34  C1  DAN d          24.019  19.920  64.949  0.00  0.00     0.233 C 
ATOM     35  O1B DAN d          24.841  20.782  65.316  0.00  0.00    -0.642 OA
ATOM     36  O1A DAN d          22.828  19.973  65.316  0.00  0.00    -0.642 OA
ENDBRANCH   1  34
TORSDOF 10
ENDMDL
MODEL 2
REMARK VINA RESULT:      -5.7      2.098      4.894
REMARK  10 active torsions:
REMARK  status: ('A' for Active; 'I' for Inactive)
REMARK    1  A    between atoms: C1_1  and  C2_2 
REMARK    2  A    between atoms: C4_4  and  O4_15 
REMARK    3  A    between atoms: C5_5  and  N5_12 
REMARK    4  A    between atoms: C6_6  and  C7_7 
REMARK    5  A    between atoms: C7_7  and  O7_17 
REMARK    6  A    between atoms: C7_7  and  C8_8 
REMARK    7  A    between atoms: C8_8  and  O8_18 
REMARK    8  A    between atoms: C8_8  and  C9_9 
REMARK    9  A    between atoms: C9_9  and  O9_19 
REMARK       I    between atoms: N5_12  and  C10_10 
REMARK   10  A    between atoms: C10_10  and  C11_11 
ROOT
ATOM      1  C2  DAN d          24.961  15.070  62.141  0.00  0.00     0.144 C 
ATOM      2  C3  DAN d          26.224  14.683  61.781  0.00  0.00    -0.035 C 
ATOM      3  C4  DAN d          27.502  15.520  62.103  0.00  0.00     0.076 C 
ATOM      4  C5  DAN d          27.267  16.450  63.296  0.00  0.00     0.068 C 
ATOM      5  C6  DAN d          25.885  17.179  63.116  0.00  0.00     0.094 C 
ATOM      6  O6  DAN d          24.804  16.191  62.952  0.00  0.00    -0.335 OA
ATOM      7  H1  DAN d          26.342  13.744  61.243  0.00  0.00     0.085 H 
ATOM      8  H2  DAN d          27.754  16.128  61.222  0.00  0.00     0.092 H 
ATOM      9  H3  DAN d          27.252  15.863  64.226  0.00  0.00     0.081 H 
ATOM     10  H4  DAN d          25.936  17.824  62.226  0.00  0.00     0.091 H 
ENDROOT
BRANCH   5  11
ATOM     11  C7  DAN d          25.522  18.048  64.371  0.00  0.00     0.089 C 
ATOM     12  H5  DAN d          26.312  17.905  65.124  0.00  0.00     0.091 H 
BRANCH  11  13
ATOM     13  O7  DAN d          24.265  17.703  64.948  0.00  0.00    -0.390 OA
ATOM     14  H14 DAN d          23.714  17.298  64.288  0.00  0.00     0.210 HD
ENDBRANCH  11  13
BRANCH  11  15
ATOM     15  C8  DAN d          25.439  19.490  64.008  0.00  0.00     0.083 C 
ATOM     16  H6  DAN d          24.886  19.590  63.062  0.00  0.00     0.090 H 
BRANCH  15  17
ATOM     17  O8  DAN d          26.730  19.969  63.838  0.00  0.00    -0.391 OA
ATOM     18  H15 DAN d          27.183  19.433  63.198  0.00  0.00     0.210 HD
ENDBRANCH  15  17
BRANCH  15  19
ATOM     19  C9  DAN d          24.707  20.301  65.091  0.00  0.00     0.043 C 
ATOM     20  H7  DAN d          25.105  21.327  65.099  0.00  0.00     0.078 H 
ATOM     21  H8  DAN d          24.883  19.832  66.070  0.00  0.00     0.078 H 
BRANCH  19  22
ATOM     22  O9  DAN d          23.299  20.350  64.844  0.00  0.00    -0.398 OA
ATOM     23  H16 DAN d          23.064  21.214  64.525  0.00  0.00     0.209 HD
ENDBRANCH  19  22
ENDBRANCH  15  19
ENDBRANCH  11  15
ENDBRANCH   5  11
BRANCH   4  24
ATOM     24  N5  DAN d          28.363  17.435  63.355  0.00  0.00    -0.351 N 
ATOM     25  C10 DAN d          29.446  17.245  64.103  0.00  0.00     0.214 C 
ATOM     26  O10 DAN d          29.603  16.248  64.800  0.00  0.00    -0.274 OA
ATOM     27  H12 DAN d          28.289  18.275  62.815  0.00  0.00     0.163 HD
BRANCH  25  28
ATOM     28  C11 DAN d          30.535  18.295  64.101  0.00  0.00    -0.003 C 
ATOM     29  H9  DAN d          30.816  18.531  63.063  0.00  0.00     0.040 H 
ATOM     30  H10 DAN d          31.414  17.913  64.640  0.00  0.00     0.040 H 
ATOM     31  H11 DAN d          30.167  19.206  64.596  0.00  0.00     0.040 H 
ENDBRANCH  25  28
ENDBRANCH   4  24
BRANCH   3  32
ATOM     32  O4  DAN d          28.582  14.672  62.395  0.00  0.00    -0.389 OA
ATOM     33  H13 DAN d          28.252  13.841  62.716  0.00  0.00     0.210 HD
ENDBRANCH   3  32
BRANCH   1  34
ATOM     34  C1  DAN d          23.806  14.405  61.742  0.00  0.00     0.233 C 
ATOM     35  O1B DAN d          23.217  13.635  62.525  0.00  0.00    -0.642 OA
ATOM     36  O1A DAN d          23.374  14.600  60.588  0.00  0.00    -0.642 OA
ENDBRANCH   1  34
TORSDOF 10
ENDMDL
MODEL 3
REMARK VINA RESULT:      -5.7      1.977      4.463
REMARK  10 active torsions:
REMARK  status: ('A' for Active; 'I' for Inactive)
REMARK    1  A    between atoms: C1_1  and  C2_2 
REMARK    2  A    between atoms: C4_4  and  O4_15 
REMARK    3  A    between atoms: C5_5  and  N5_12 
REMARK    4  A    between atoms: C6_6  and  C7_7 
REMARK    5  A    between atoms: C7_7  and  O7_17 
REMARK    6  A    between atoms: C7_7  and  C8_8 
REMARK    7  A    between atoms: C8_8  and  O8_18 
REMARK    8  A    between atoms: C8_8  and  C9_9 
REMARK    9  A    between atoms: C9_9  and  O9_19 
REMARK       I    between atoms: N5_12  and  C10_10 
REMARK   10  A    between atoms: C10_10  and  C11_11 
ROOT
ATOM      1  C2  DAN d          24.627  15.759  62.401  0.00  0.00     0.144 C 
ATOM      2  C3  DAN d          24.145  16.699  63.272  0.00  0.00    -0.035 C 
ATOM      3  C4  DAN d          25.049  17.764  63.971  0.00  0.00     0.076 C 
ATOM      4  C5  DAN d          26.336  18.001  63.177  0.00  0.00     0.068 C 
ATOM      5  C6  DAN d          26.948  16.614  62.760  0.00  0.00     0.094 C 
ATOM      6  O6  DAN d          25.959  15.826  62.003  0.00  0.00    -0.335 OA
ATOM      7  H1  DAN d          23.078  16.705  63.487  0.00  0.00     0.085 H 
ATOM      8  H2  DAN d          25.313  17.395  64.973  0.00  0.00     0.092 H 
ATOM      9  H3  DAN d          26.111  18.588  62.273  0.00  0.00     0.081 H 
ATOM     10  H4  DAN d          27.242  16.068  63.668  0.00  0.00     0.091 H 
ENDROOT
BRANCH   5  11
ATOM     11  C7  DAN d          28.199  16.791  61.829  0.00  0.00     0.089 C 
ATOM     12  H5  DAN d          28.263  17.851  61.541  0.00  0.00     0.091 H 
BRANCH  11  13
ATOM     13  O7  DAN d          28.136  15.994  60.648  0.00  0.00    -0.390 OA
ATOM     14  H14 DAN d          28.321  15.088  60.868  0.00  0.00     0.210 HD
ENDBRANCH  11  13
BRANCH  11  15
ATOM     15  C8  DAN d          29.446  16.394  62.540  0.00  0.00     0.083 C 
ATOM     16  H6  DAN d          29.816  15.449  62.115  0.00  0.00     0.090 H 
BRANCH  15  17
ATOM     17  O8  DAN d          29.138  16.205  63.880  0.00  0.00    -0.391 OA
ATOM     18  H15 DAN d          29.416  15.337  64.148  0.00  0.00     0.210 HD
ENDBRANCH  15  17
BRANCH  15  19
ATOM     19  C9  DAN d          30.544  17.461  62.390  0.00  0.00     0.043 C 
ATOM     20  H7  DAN d          31.458  16.983  62.009  0.00  0.00     0.078 H 
ATOM     21  H8  DAN d          30.746  17.908  63.375  0.00  0.00     0.078 H 
BRANCH  19  22
ATOM     22  O9  DAN d          30.147  18.494  61.484  0.00  0.00    -0.398 OA
ATOM     23  H16 DAN d          30.759  18.528  60.757  0.00  0.00     0.209 HD
ENDBRANCH  19  22
ENDBRANCH  15  19
ENDBRANCH  11  15
ENDBRANCH   5  11
BRANCH   4  24
ATOM     24  N5  DAN d          27.286  18.748  64.023  0.00  0.00    -0.351 N 
ATOM     25  C10 DAN d          27.910  19.841  63.591  0.00  0.00     0.214 C 
ATOM     26  O10 DAN d          27.749  20.294  62.463  0.00  0.00    -0.274 OA
ATOM     27  H12 DAN d          27.468  18.422  64.951  0.00  0.00     0.163 HD
BRANCH  25  28
ATOM     28  C11 DAN d          28.861  20.560  64.523  0.00  0.00    -0.003 C 
ATOM     29  H9  DAN d          28.820  20.096  65.519  0.00  0.00     0.040 H 
ATOM     30  H10 DAN d          28.568  21.618  64.599  0.00  0.00     0.040 H 
ATOM     31  H11 DAN d          29.885  20.491  64.128  0.00  0.00     0.040 H 
ENDBRANCH  25  28
ENDBRANCH   4  24
BRANCH   3  32
ATOM     32  O4  DAN d          24.363  18.981  64.098  0.00  0.00    -0.389 OA
ATOM     33  H13 DAN d          24.042  19.071  64.988  0.00  0.00     0.210 HD
ENDBRANCH   3  32
BRANCH   1  34
ATOM     34  C1  DAN d          23.857  14.724  61.880  0.00  0.00     0.233 C 
ATOM     35  O1B DAN d          23.420  13.825  62.624  0.00  0.00    -0.642 OA
ATOM     36  O1A DAN d          23.612  14.719  60.656  0.00  0.00    -0.642 OA
ENDBRANCH   1  34
TORSDOF 10
ENDMDL
MODEL 4
REMARK VINA RESULT:      -5.3      2.106      3.807
REMARK  10 active torsions:
REMARK  status: ('A' for Active; 'I' for Inactive)
REMARK    1  A    between atoms: C1_1  and  C2_2 
REMARK    2  A    between atoms: C4_4  and  O4_15 
REMARK    3  A    between atoms: C5_5  and  N5_12 
REMARK    4  A    between atoms: C6_6  and  C7_7 
REMARK    5  A    between atoms: C7_7  and  O7_17 
REMARK    6  A    between atoms: C7_7  and  C8_8 
REMARK    7  A    between atoms: C8_8  and  O8_18 
REMARK    8  A    between atoms: C8_8  and  C9_9 
REMARK    9  A    between atoms: C9_9  and  O9_19 
REMARK       I    between atoms: N5_12  and  C10_10 
REMARK   10  A    between atoms: C10_10  and  C11_11 
ROOT
ATOM      1  C2  DAN d          28.120  19.984  64.240  0.00  0.00     0.144 C 
ATOM      2  C3  DAN d          26.838  19.856  64.705  0.00  0.00    -0.035 C 
ATOM      3  C4  DAN d          25.701  19.146  63.905  0.00  0.00     0.076 C 
ATOM      4  C5  DAN d          26.278  18.161  62.885  0.00  0.00     0.068 C 
ATOM      5  C6  DAN d          27.460  18.853  62.111  0.00  0.00     0.094 C 
ATOM      6  O6  DAN d          28.477  19.338  63.060  0.00  0.00    -0.335 OA
ATOM      7  H1  DAN d          26.601  20.271  65.683  0.00  0.00     0.085 H 
ATOM      8  H2  DAN d          25.119  19.911  63.370  0.00  0.00     0.092 H 
ATOM      9  H3  DAN d          26.655  17.268  63.405  0.00  0.00     0.081 H 
ATOM     10  H4  DAN d          27.059  19.698  61.532  0.00  0.00     0.091 H 
ENDROOT
BRANCH   5  11
ATOM     11  C7  DAN d          28.180  17.851  61.142  0.00  0.00     0.089 C 
ATOM     12  H5  DAN d          29.072  18.351  60.735  0.00  0.00     0.091 H 
BRANCH  11  13
ATOM     13  O7  DAN d          27.355  17.424  60.060  0.00  0.00    -0.390 OA
ATOM     14  H14 DAN d          27.014  16.557  60.246  0.00  0.00     0.210 HD
ENDBRANCH  11  13
BRANCH  11  15
ATOM     15  C8  DAN d          28.593  16.618  61.869  0.00  0.00     0.083 C 
ATOM     16  H6  DAN d          28.092  16.595  62.848  0.00  0.00     0.090 H 
BRANCH  15  17
ATOM     17  O8  DAN d          29.967  16.667  62.058  0.00  0.00    -0.391 OA
ATOM     18  H15 DAN d          30.402  16.645  61.215  0.00  0.00     0.210 HD
ENDBRANCH  15  17
BRANCH  15  19
ATOM     19  C9  DAN d          28.206  15.349  61.091  0.00  0.00     0.043 C 
ATOM     20  H7  DAN d          29.088  14.981  60.546  0.00  0.00     0.078 H 
ATOM     21  H8  DAN d          27.409  15.597  60.374  0.00  0.00     0.078 H 
BRANCH  19  22
ATOM     22  O9  DAN d          27.739  14.321  61.969  0.00  0.00    -0.398 OA
ATOM     23  H16 DAN d          28.244  13.529  61.824  0.00  0.00     0.209 HD
ENDBRANCH  19  22
ENDBRANCH  15  19
ENDBRANCH  11  15
ENDBRANCH   5  11
BRANCH   4  24
ATOM     24  N5  DAN d          25.210  17.768  61.946  0.00  0.00    -0.351 N 
ATOM     25  C10 DAN d          24.727  16.529  61.902  0.00  0.00     0.214 C 
ATOM     26  O10 DAN d          25.142  15.630  62.625  0.00  0.00    -0.274 OA
ATOM     27  H12 DAN d          24.838  18.456  61.322  0.00  0.00     0.163 HD
BRANCH  25  28
ATOM     28  C11 DAN d          23.622  16.206  60.921  0.00  0.00    -0.003 C 
ATOM     29  H9  DAN d          24.033  16.178  59.900  0.00  0.00     0.040 H 
ATOM     30  H10 DAN d          22.841  16.980  60.980  0.00  0.00     0.040 H 
ATOM     31  H11 DAN d          23.186  15.227  61.167  0.00  0.00     0.040 H 
ENDBRANCH  25  28
ENDBRANCH   4  24
BRANCH   3  32
ATOM     32  O4  DAN d          24.850  18.450  64.776  0.00  0.00    -0.389 OA
ATOM     33  H13 DAN d          24.683  17.582  64.428  0.00  0.00     0.210 HD
ENDBRANCH   3  32
BRANCH   1  34
ATOM     34  C1  DAN d          29.103  20.731  64.881  0.00  0.00     0.233 C 
ATOM     35  O1B DAN d          28.847  21.871  65.316  0.00  0.00    -0.642 OA
ATOM     36  O1A DAN d          30.240  20.235  65.013  0.00  0.00    -0.642 OA
ENDBRANCH   1  34
TORSDOF 10
ENDMDL
MODEL 5
REMARK VINA RESULT:      -5.2      1.620      4.134
REMARK  10 active torsions:
REMARK  status: ('A' for Active; 'I' for Inactive)
REMARK    1  A    between atoms: C1_1  and  C2_2 
REMARK    2  A    between atoms: C4_4  and  O4_15 
REMARK    3  A    between atoms: C5_5  and  N5_12 
REMARK    4  A    between atoms: C6_6  and  C7_7 
REMARK    5  A    between atoms: C7_7  and  O7_17 
REMARK    6  A    between atoms: C7_7  and  C8_8 
REMARK    7  A    between atoms: C8_8  and  O8_18 
REMARK    8  A    between atoms: C8_8  and  C9_9 
REMARK    9  A    between atoms: C9_9  and  O9_19 
REMARK       I    between atoms: N5_12  and  C10_10 
REMARK   10  A    between atoms: C10_10  and  C11_11 
ROOT
ATOM      1  C2  DAN d          26.108  19.263  63.333  0.00  0.00     0.144 C 
ATOM      2  C3  DAN d          27.398  19.276  62.873  0.00  0.00    -0.035 C 
ATOM      3  C4  DAN d          27.972  18.201  61.899  0.00  0.00     0.076 C 
ATOM      4  C5  DAN d          26.853  17.523  61.104  0.00  0.00     0.068 C 
ATOM      5  C6  DAN d          25.684  17.140  62.084  0.00  0.00     0.094 C 
ATOM      6  O6  DAN d          25.214  18.333  62.810  0.00  0.00    -0.335 OA
ATOM      7  H1  DAN d          28.056  20.078  63.205  0.00  0.00     0.085 H 
ATOM      8  H2  DAN d          28.500  17.438  62.490  0.00  0.00     0.092 H 
ATOM      9  H3  DAN d          26.474  18.213  60.335  0.00  0.00     0.081 H 
ATOM     10  H4  DAN d          26.052  16.391  62.800  0.00  0.00     0.091 H 
ENDROOT
BRANCH   5  11
ATOM     11  C7  DAN d          24.448  16.560  61.310  0.00  0.00     0.089 C 
ATOM     12  H5  DAN d          24.784  16.259  60.306  0.00  0.00     0.091 H 
BRANCH  11  13
ATOM     13  O7  DAN d          23.379  17.496  61.179  0.00  0.00    -0.390 OA
ATOM     14  H14 DAN d          22.797  17.214  60.483  0.00  0.00     0.210 HD
ENDBRANCH  11  13
BRANCH  11  15
ATOM     15  C8  DAN d          23.888  15.377  62.020  0.00  0.00     0.083 C 
ATOM     16  H6  DAN d          22.860  15.203  61.671  0.00  0.00     0.090 H 
BRANCH  15  17
ATOM     17  O8  DAN d          23.870  15.657  63.380  0.00  0.00    -0.391 OA
ATOM     18  H15 DAN d          23.759  14.850  63.867  0.00  0.00     0.210 HD
ENDBRANCH  15  17
BRANCH  15  19
ATOM     19  C9  DAN d          24.719  14.112  61.748  0.00  0.00     0.043 C 
ATOM     20  H7  DAN d          24.147  13.231  62.075  0.00  0.00     0.078 H 
ATOM     21  H8  DAN d          25.660  14.171  62.316  0.00  0.00     0.078 H 
BRANCH  19  22
ATOM     22  O9  DAN d          25.024  13.977  60.357  0.00  0.00    -0.398 OA
ATOM     23  H16 DAN d          24.308  13.533  59.918  0.00  0.00     0.209 HD
ENDBRANCH  19  22
ENDBRANCH  15  19
ENDBRANCH  11  15
ENDBRANCH   5  11
BRANCH   4  24
ATOM     24  N5  DAN d          27.395  16.314  60.454  0.00  0.00    -0.351 N 
ATOM     25  C10 DAN d          27.929  15.315  61.151  0.00  0.00     0.214 C 
ATOM     26  O10 DAN d          28.018  15.334  62.374  0.00  0.00    -0.274 OA
ATOM     27  H12 DAN d          27.360  16.244  59.457  0.00  0.00     0.163 HD
BRANCH  25  28
ATOM     28  C11 DAN d          28.451  14.101  60.414  0.00  0.00    -0.003 C 
ATOM     29  H9  DAN d          28.811  14.403  59.419  0.00  0.00     0.040 H 
ATOM     30  H10 DAN d          27.642  13.364  60.304  0.00  0.00     0.040 H 
ATOM     31  H11 DAN d          29.280  13.655  60.983  0.00  0.00     0.040 H 
ENDBRANCH  25  28
ENDBRANCH   4  24
BRANCH   3  32
ATOM     32  O4  DAN d          28.876  18.787  60.999  0.00  0.00    -0.389 OA
ATOM     33  H13 DAN d          29.405  19.430  61.457  0.00  0.00     0.210 HD
ENDBRANCH   3  32
BRANCH   1  34
ATOM     34  C1  DAN d          25.626  20.134  64.305  0.00  0.00     0.233 C 
ATOM     35  O1B DAN d          24.496  20.647  64.190  0.00  0.00    -0.642 OA
ATOM     36  O1A DAN d          26.346  20.384  65.292  0.00  0.00    -0.642 OA
ENDBRANCH   1  34
TORSDOF 10
ENDMDL
MODEL 6
REMARK VINA RESULT:      -5.2      1.892      3.889
REMARK  10 active torsions:
REMARK  status: ('A' for Active; 'I' for Inactive)
REMARK    1  A    between atoms: C1_1  and  C2_2 
REMARK    2  A    between atoms: C4_4  and  O4_15 
REMARK    3  A    between atoms: C5_5  and  N5_12 
REMARK    4  A    between atoms: C6_6  and  C7_7 
REMARK    5  A    between atoms: C7_7  and  O7_17 
REMARK    6  A    between atoms: C7_7  and  C8_8 
REMARK    7  A    between atoms: C8_8  and  O8_18 
REMARK    8  A    between atoms: C8_8  and  C9_9 
REMARK    9  A    between atoms: C9_9  and  O9_19 
REMARK       I    between atoms: N5_12  and  C10_10 
REMARK   10  A    between atoms: C10_10  and  C11_11 
ROOT
ATOM      1  C2  DAN d          24.879  18.905  64.141  0.00  0.00     0.144 C 
ATOM      2  C3  DAN d          25.970  19.610  64.573  0.00  0.00    -0.035 C 
ATOM      3  C4  DAN d          27.395  19.451  63.956  0.00  0.00     0.076 C 
ATOM      4  C5  DAN d          27.319  18.903  62.528  0.00  0.00     0.068 C 
ATOM      5  C6  DAN d          26.316  17.691  62.494  0.00  0.00     0.094 C 
ATOM      6  O6  DAN d          24.998  18.105  63.008  0.00  0.00    -0.335 OA
ATOM      7  H1  DAN d          25.836  20.318  65.390  0.00  0.00     0.085 H 
ATOM      8  H2  DAN d          27.969  18.749  64.576  0.00  0.00     0.092 H 
ATOM      9  H3  DAN d          26.963  19.690  61.847  0.00  0.00     0.081 H 
ATOM     10  H4  DAN d          26.719  16.879  63.117  0.00  0.00     0.091 H 
ENDROOT
BRANCH   5  11
ATOM     11  C7  DAN d          26.092  17.168  61.032  0.00  0.00     0.089 C 
ATOM     12  H5  DAN d          26.513  17.909  60.336  0.00  0.00     0.091 H 
BRANCH  11  13
ATOM     13  O7  DAN d          24.717  16.962  60.714  0.00  0.00    -0.390 OA
ATOM     14  H14 DAN d          24.515  17.396  59.893  0.00  0.00     0.210 HD
ENDBRANCH  11  13
BRANCH  11  15
ATOM     15  C8  DAN d          26.772  15.858  60.831  0.00  0.00     0.083 C 
ATOM     16  H6  DAN d          27.824  16.037  60.564  0.00  0.00     0.090 H 
BRANCH  15  17
ATOM     17  O8  DAN d          26.140  15.199  59.786  0.00  0.00    -0.391 OA
ATOM     18  H15 DAN d          25.235  15.481  59.736  0.00  0.00     0.210 HD
ENDBRANCH  15  17
BRANCH  15  19
ATOM     19  C9  DAN d          26.730  15.000  62.107  0.00  0.00     0.043 C 
ATOM     20  H7  DAN d          25.925  14.255  62.011  0.00  0.00     0.078 H 
ATOM     21  H8  DAN d          26.527  15.651  62.970  0.00  0.00     0.078 H 
BRANCH  19  22
ATOM     22  O9  DAN d          27.969  14.319  62.319  0.00  0.00    -0.398 OA
ATOM     23  H16 DAN d          28.091  14.167  63.250  0.00  0.00     0.209 HD
ENDBRANCH  19  22
ENDBRANCH  15  19
ENDBRANCH  11  15
ENDBRANCH   5  11
BRANCH   4  24
ATOM     24  N5  DAN d          28.665  18.466  62.114  0.00  0.00    -0.351 N 
ATOM     25  C10 DAN d          29.344  17.536  62.780  0.00  0.00     0.214 C 
ATOM     26  O10 DAN d          28.905  16.988  63.786  0.00  0.00    -0.274 OA
ATOM     27  H12 DAN d          29.082  18.884  61.306  0.00  0.00     0.163 HD
BRANCH  25  28
ATOM     28  C11 DAN d          30.715  17.131  62.285  0.00  0.00    -0.003 C 
ATOM     29  H9  DAN d          31.027  16.203  62.788  0.00  0.00     0.040 H 
ATOM     30  H10 DAN d          31.436  17.930  62.508  0.00  0.00     0.040 H 
ATOM     31  H11 DAN d          30.678  16.963  61.198  0.00  0.00     0.040 H 
ENDBRANCH  25  28
ENDBRANCH   4  24
BRANCH   3  32
ATOM     32  O4  DAN d          28.059  20.687  63.931  0.00  0.00    -0.389 OA
ATOM     33  H13 DAN d          28.989  20.548  64.064  0.00  0.00     0.210 HD
ENDBRANCH   3  32
BRANCH   1  34
ATOM     34  C1  DAN d          23.639  18.937  64.771  0.00  0.00     0.233 C 
ATOM     35  O1B DAN d          23.034  20.016  64.921  0.00  0.00    -0.642 OA
ATOM     36  O1A DAN d          23.148  17.864  65.177  0.00  0.00    -0.642 OA
ENDBRANCH   1  34
TORSDOF 10
ENDMDL
MODEL 7
REMARK VINA RESULT:      -4.8      1.351      1.837
REMARK  10 active torsions:
REMARK  status: ('A' for Active; 'I' for Inactive)
REMARK    1  A    between atoms: C1_1  and  C2_2 
REMARK    2  A    between atoms: C4_4  and  O4_15 
REMARK    3  A    between atoms: C5_5  and  N5_12 
REMARK    4  A    between atoms: C6_6  and  C7_7 
REMARK    5  A    between atoms: C7_7  and  O7_17 
REMARK    6  A    between atoms: C7_7  and  C8_8 
REMARK    7  A    between atoms: C8_8  and  O8_18 
REMARK    8  A    between atoms: C8_8  and  C9_9 
REMARK    9  A    between atoms: C9_9  and  O9_19 
REMARK       I    between atoms: N5_12  and  C10_10 
REMARK   10  A    between atoms: C10_10  and  C11_11 
ROOT
ATOM      1  C2  DAN d          25.819  19.364  63.956  0.00  0.00     0.144 C 
ATOM      2  C3  DAN d          25.026  18.250  63.880  0.00  0.00    -0.035 C 
ATOM      3  C4  DAN d          25.201  17.145  62.790  0.00  0.00     0.076 C 
ATOM      4  C5  DAN d          26.625  17.148  62.226  0.00  0.00     0.068 C 
ATOM      5  C6  DAN d          27.051  18.628  61.910  0.00  0.00     0.094 C 
ATOM      6  O6  DAN d          26.923  19.466  63.116  0.00  0.00    -0.335 OA
ATOM      7  H1  DAN d          24.234  18.128  64.616  0.00  0.00     0.085 H 
ATOM      8  H2  DAN d          24.495  17.346  61.972  0.00  0.00     0.092 H 
ATOM      9  H3  DAN d          27.317  16.719  62.966  0.00  0.00     0.081 H 
ATOM     10  H4  DAN d          26.403  19.022  61.113  0.00  0.00     0.091 H 
ENDROOT
BRANCH   5  11
ATOM     11  C7  DAN d          28.550  18.713  61.453  0.00  0.00     0.089 C 
ATOM     12  H5  DAN d          28.715  19.704  61.005  0.00  0.00     0.091 H 
BRANCH  11  13
ATOM     13  O7  DAN d          28.904  17.711  60.501  0.00  0.00    -0.390 OA
ATOM     14  H14 DAN d          29.329  16.988  60.947  0.00  0.00     0.210 HD
ENDBRANCH  11  13
BRANCH  11  15
ATOM     15  C8  DAN d          29.466  18.534  62.613  0.00  0.00     0.083 C 
ATOM     16  H6  DAN d          28.872  18.274  63.502  0.00  0.00     0.090 H 
BRANCH  15  17
ATOM     17  O8  DAN d          30.122  19.737  62.836  0.00  0.00    -0.391 OA
ATOM     18  H15 DAN d          30.566  20.006  62.041  0.00  0.00     0.210 HD
ENDBRANCH  15  17
BRANCH  15  19
ATOM     19  C9  DAN d          30.485  17.410  62.359  0.00  0.00     0.043 C 
ATOM     20  H7  DAN d          31.369  17.580  62.991  0.00  0.00     0.078 H 
ATOM     21  H8  DAN d          30.781  17.428  61.299  0.00  0.00     0.078 H 
BRANCH  19  22
ATOM     22  O9  DAN d          29.934  16.127  62.666  0.00  0.00    -0.398 OA
ATOM     23  H16 DAN d          29.681  16.102  63.582  0.00  0.00     0.209 HD
ENDBRANCH  19  22
ENDBRANCH  15  19
ENDBRANCH  11  15
ENDBRANCH   5  11
BRANCH   4  24
ATOM     24  N5  DAN d          26.652  16.332  60.998  0.00  0.00    -0.351 N 
ATOM     25  C10 DAN d          27.105  15.081  60.989  0.00  0.00     0.214 C 
ATOM     26  O10 DAN d          27.540  14.527  61.993  0.00  0.00    -0.274 OA
ATOM     27  H12 DAN d          26.320  16.733  60.144  0.00  0.00     0.163 HD
BRANCH  25  28
ATOM     28  C11 DAN d          27.088  14.303  59.692  0.00  0.00    -0.003 C 
ATOM     29  H9  DAN d          28.073  14.376  59.207  0.00  0.00     0.040 H 
ATOM     30  H10 DAN d          26.319  14.720  59.024  0.00  0.00     0.040 H 
ATOM     31  H11 DAN d          26.860  13.247  59.900  0.00  0.00     0.040 H 
ENDBRANCH  25  28
ENDBRANCH   4  24
BRANCH   3  32
ATOM     32  O4  DAN d          24.929  15.879  63.328  0.00  0.00    -0.389 OA
ATOM     33  H13 DAN d          24.426  15.371  62.702  0.00  0.00     0.210 HD
ENDBRANCH   3  32
BRANCH   1  34
ATOM     34  C1  DAN d          25.586  20.418  64.834  0.00  0.00     0.233 C 
ATOM     35  O1B DAN d          24.421  20.746  65.134  0.00  0.00    -0.642 OA
ATOM     36  O1A DAN d          26.566  21.021  65.316  0.00  0.00    -0.642 OA
ENDBRANCH   1  34
TORSDOF 10
ENDMDL
MODEL 8
REMARK VINA RESULT:      -4.7      1.363      1.836
REMARK  10 active torsions:
REMARK  status: ('A' for Active; 'I' for Inactive)
REMARK    1  A    between atoms: C1_1  and  C2_2 
REMARK    2  A    between atoms: C4_4  and  O4_15 
REMARK    3  A    between atoms: C5_5  and  N5_12 
REMARK    4  A    between atoms: C6_6  and  C7_7 
REMARK    5  A    between atoms: C7_7  and  O7_17 
REMARK    6  A    between atoms: C7_7  and  C8_8 
REMARK    7  A    between atoms: C8_8  and  O8_18 
REMARK    8  A    between atoms: C8_8  and  C9_9 
REMARK    9  A    between atoms: C9_9  and  O9_19 
REMARK       I    between atoms: N5_12  and  C10_10 
REMARK   10  A    between atoms: C10_10  and  C11_11 
ROOT
ATOM      1  C2  DAN d          25.677  19.105  64.112  0.00  0.00     0.144 C 
ATOM      2  C3  DAN d          24.822  18.146  63.638  0.00  0.00    -0.035 C 
ATOM      3  C4  DAN d          25.237  17.073  62.582  0.00  0.00     0.076 C 
ATOM      4  C5  DAN d          26.753  16.856  62.583  0.00  0.00     0.068 C 
ATOM      5  C6  DAN d          27.474  18.254  62.597  0.00  0.00     0.094 C 
ATOM      6  O6  DAN d          27.019  19.052  63.750  0.00  0.00    -0.335 OA
ATOM      7  H1  DAN d          23.802  18.132  64.017  0.00  0.00     0.085 H 
ATOM      8  H2  DAN d          24.929  17.424  61.587  0.00  0.00     0.092 H 
ATOM      9  H3  DAN d          27.045  16.286  63.478  0.00  0.00     0.081 H 
ATOM     10  H4  DAN d          27.238  18.785  61.663  0.00  0.00     0.091 H 
ENDROOT
BRANCH   5  11
ATOM     11  C7  DAN d          29.029  18.101  62.732  0.00  0.00     0.089 C 
ATOM     12  H5  DAN d          29.441  17.904  61.731  0.00  0.00     0.091 H 
BRANCH  11  13
ATOM     13  O7  DAN d          29.414  17.042  63.607  0.00  0.00    -0.390 OA
ATOM     14  H14 DAN d          29.468  16.231  63.116  0.00  0.00     0.210 HD
ENDBRANCH  11  13
BRANCH  11  15
ATOM     15  C8  DAN d          29.636  19.344  63.281  0.00  0.00     0.083 C 
ATOM     16  H6  DAN d          30.691  19.395  62.974  0.00  0.00     0.090 H 
BRANCH  15  17
ATOM     17  O8  DAN d          29.565  19.285  64.666  0.00  0.00    -0.391 OA
ATOM     18  H15 DAN d          30.431  19.119  65.020  0.00  0.00     0.210 HD
ENDBRANCH  15  17
BRANCH  15  19
ATOM     19  C9  DAN d          28.914  20.600  62.764  0.00  0.00     0.043 C 
ATOM     20  H7  DAN d          27.976  20.297  62.275  0.00  0.00     0.078 H 
ATOM     21  H8  DAN d          29.561  21.110  62.034  0.00  0.00     0.078 H 
BRANCH  19  22
ATOM     22  O9  DAN d          28.612  21.505  63.829  0.00  0.00    -0.398 OA
ATOM     23  H16 DAN d          27.676  21.502  63.990  0.00  0.00     0.209 HD
ENDBRANCH  19  22
ENDBRANCH  15  19
ENDBRANCH  11  15
ENDBRANCH   5  11
BRANCH   4  24
ATOM     24  N5  DAN d          27.126  16.098  61.374  0.00  0.00    -0.351 N 
ATOM     25  C10 DAN d          27.373  14.791  61.407  0.00  0.00     0.214 C 
ATOM     26  O10 DAN d          27.319  14.132  62.439  0.00  0.00    -0.274 OA
ATOM     27  H12 DAN d          27.196  16.583  60.502  0.00  0.00     0.163 HD
BRANCH  25  28
ATOM     28  C11 DAN d          27.736  14.080  60.121  0.00  0.00    -0.003 C 
ATOM     29  H9  DAN d          26.822  13.700  59.641  0.00  0.00     0.040 H 
ATOM     30  H10 DAN d          28.409  13.239  60.346  0.00  0.00     0.040 H 
ATOM     31  H11 DAN d          28.241  14.783  59.443  0.00  0.00     0.040 H 
ENDBRANCH  25  28
ENDBRANCH   4  24
BRANCH   3  32
ATOM     32  O4  DAN d          24.604  15.850  62.852  0.00  0.00    -0.389 OA
ATOM     33  H13 DAN d          23.841  16.003  63.398  0.00  0.00     0.210 HD
ENDBRANCH   3  32
BRANCH   1  34
ATOM     34  C1  DAN d          25.282  20.146  64.946  0.00  0.00     0.233 C 
ATOM     35  O1B DAN d          24.096  20.245  65.316  0.00  0.00    -0.642 OA
ATOM     36  O1A DAN d          26.140  20.973  65.316  0.00  0.00    -0.642 OA
ENDBRANCH   1  34
TORSDOF 10
ENDMDL
MODEL 9
REMARK VINA RESULT:      -4.6      2.091      4.756
REMARK  10 active torsions:
REMARK  status: ('A' for Active; 'I' for Inactive)
REMARK    1  A    between atoms: C1_1  and  C2_2 
REMARK    2  A    between atoms: C4_4  and  O4_15 
REMARK    3  A    between atoms: C5_5  and  N5_12 
REMARK    4  A    between atoms: C6_6  and  C7_7 
REMARK    5  A    between atoms: C7_7  and  O7_17 
REMARK    6  A    between atoms: C7_7  and  C8_8 
REMARK    7  A    between atoms: C8_8  and  O8_18 
REMARK    8  A    between atoms: C8_8  and  C9_9 
REMARK    9  A    between atoms: C9_9  and  O9_19 
REMARK       I    between atoms: N5_12  and  C10_10 
REMARK   10  A    between atoms: C10_10  and  C11_11 
ROOT
ATOM      1  C2  DAN d          25.014  17.300  62.727  0.00  0.00     0.144 C 
ATOM      2  C3  DAN d          24.748  18.329  63.590  0.00  0.00    -0.035 C 
ATOM      3  C4  DAN d          25.858  19.124  64.346  0.00  0.00     0.076 C 
ATOM      4  C5  DAN d          27.200  19.028  63.615  0.00  0.00     0.068 C 
ATOM      5  C6  DAN d          27.457  17.531  63.204  0.00  0.00     0.094 C 
ATOM      6  O6  DAN d          26.336  17.026  62.391  0.00  0.00    -0.335 OA
ATOM      7  H1  DAN d          23.708  18.606  63.757  0.00  0.00     0.085 H 
ATOM      8  H2  DAN d          25.971  18.696  65.353  0.00  0.00     0.092 H 
ATOM      9  H3  DAN d          27.175  19.655  62.711  0.00  0.00     0.081 H 
ATOM     10  H4  DAN d          27.558  16.925  64.116  0.00  0.00     0.091 H 
ENDROOT
BRANCH   5  11
ATOM     11  C7  DAN d          28.754  17.386  62.334  0.00  0.00     0.089 C 
ATOM     12  H5  DAN d          29.605  17.224  63.012  0.00  0.00     0.091 H 
BRANCH  11  13
ATOM     13  O7  DAN d          29.019  18.531  61.526  0.00  0.00    -0.390 OA
ATOM     14  H14 DAN d          29.450  19.195  62.051  0.00  0.00     0.210 HD
ENDBRANCH  11  13
BRANCH  11  15
ATOM     15  C8  DAN d          28.638  16.230  61.402  0.00  0.00     0.083 C 
ATOM     16  H6  DAN d          29.632  15.997  60.994  0.00  0.00     0.090 H 
BRANCH  15  17
ATOM     17  O8  DAN d          27.790  16.594  60.365  0.00  0.00    -0.391 OA
ATOM     18  H15 DAN d          26.921  16.757  60.710  0.00  0.00     0.210 HD
ENDBRANCH  15  17
BRANCH  15  19
ATOM     19  C9  DAN d          28.097  14.981  62.119  0.00  0.00     0.043 C 
ATOM     20  H7  DAN d          27.858  15.242  63.160  0.00  0.00     0.078 H 
ATOM     21  H8  DAN d          28.870  14.198  62.105  0.00  0.00     0.078 H 
BRANCH  19  22
ATOM     22  O9  DAN d          26.919  14.483  61.481  0.00  0.00    -0.398 OA
ATOM     23  H16 DAN d          26.694  15.044  60.748  0.00  0.00     0.209 HD
ENDBRANCH  19  22
ENDBRANCH  15  19
ENDBRANCH  11  15
ENDBRANCH   5  11
BRANCH   4  24
ATOM     24  N5  DAN d          28.268  19.503  64.514  0.00  0.00    -0.351 N 
ATOM     25  C10 DAN d          29.007  20.573  64.232  0.00  0.00     0.214 C 
ATOM     26  O10 DAN d          28.861  21.226  63.205  0.00  0.00    -0.274 OA
ATOM     27  H12 DAN d          28.442  19.005  65.364  0.00  0.00     0.163 HD
BRANCH  25  28
ATOM     28  C11 DAN d          30.075  21.007  65.211  0.00  0.00    -0.003 C 
ATOM     29  H9  DAN d          29.604  21.306  66.160  0.00  0.00     0.040 H 
ATOM     30  H10 DAN d          30.630  21.860  64.794  0.00  0.00     0.040 H 
ATOM     31  H11 DAN d          30.768  20.173  65.394  0.00  0.00     0.040 H 
ENDBRANCH  25  28
ENDBRANCH   4  24
BRANCH   3  32
ATOM     32  O4  DAN d          25.501  20.476  64.461  0.00  0.00    -0.389 OA
ATOM     33  H13 DAN d          24.583  20.540  64.700  0.00  0.00     0.210 HD
ENDBRANCH   3  32
BRANCH   1  34
ATOM     34  C1  DAN d          24.031  16.498  62.156  0.00  0.00     0.233 C 
ATOM     35  O1B DAN d          23.967  15.283  62.431  0.00  0.00    -0.642 OA
ATOM     36  O1A DAN d          23.217  17.020  61.368  0.00  0.00    -0.642 OA
ENDBRANCH   1  34
TORSDOF 10
ENDMDL
MODEL 10
REMARK VINA RESULT:      -4.6      2.162      2.764
REMARK  10 active torsions:
REMARK  status: ('A' for Active; 'I' for Inactive)
REMARK    1  A    between atoms: C1_1  and  C2_2 
REMARK    2  A    between atoms: C4_4  and  O4_15 
REMARK    3  A    between atoms: C5_5  and  N5_12 
REMARK    4  A    between atoms: C6_6  and  C7_7 
REMARK    5  A    between atoms: C7_7  and  O7_17 
REMARK    6  A    between atoms: C7_7  and  C8_8 
REMARK    7  A    between atoms: C8_8  and  O8_18 
REMARK    8  A    between atoms: C8_8  and  C9_9 
REMARK    9  A    between atoms: C9_9  and  O9_19 
REMARK       I    between atoms: N5_12  and  C10_10 
REMARK   10  A    between atoms: C10_10  and  C11_11 
ROOT
ATOM      1  C2  DAN d          25.030  19.138  64.293  0.00  0.00     0.144 C 
ATOM      2  C3  DAN d          25.140  17.798  64.033  0.00  0.00    -0.035 C 
ATOM      3  C4  DAN d          26.364  17.164  63.301  0.00  0.00     0.076 C 
ATOM      4  C5  DAN d          27.605  18.052  63.431  0.00  0.00     0.068 C 
ATOM      5  C6  DAN d          27.205  19.543  63.129  0.00  0.00     0.094 C 
ATOM      6  O6  DAN d          26.112  19.969  64.023  0.00  0.00    -0.335 OA
ATOM      7  H1  DAN d          24.332  17.142  64.352  0.00  0.00     0.085 H 
ATOM      8  H2  DAN d          26.117  17.053  62.236  0.00  0.00     0.092 H 
ATOM      9  H3  DAN d          28.006  17.981  64.453  0.00  0.00     0.081 H 
ATOM     10  H4  DAN d          26.879  19.619  62.082  0.00  0.00     0.091 H 
ENDROOT
BRANCH   5  11
ATOM     11  C7  DAN d          28.404  20.524  63.376  0.00  0.00     0.089 C 
ATOM     12  H5  DAN d          28.113  21.519  63.006  0.00  0.00     0.091 H 
BRANCH  11  13
ATOM     13  O7  DAN d          29.604  20.119  62.718  0.00  0.00    -0.390 OA
ATOM     14  H14 DAN d          29.618  20.479  61.839  0.00  0.00     0.210 HD
ENDBRANCH  11  13
BRANCH  11  15
ATOM     15  C8  DAN d          28.726  20.610  64.827  0.00  0.00     0.083 C 
ATOM     16  H6  DAN d          28.232  19.781  65.354  0.00  0.00     0.090 H 
BRANCH  15  17
ATOM     17  O8  DAN d          28.236  21.816  65.308  0.00  0.00    -0.391 OA
ATOM     18  H15 DAN d          27.534  22.118  64.746  0.00  0.00     0.210 HD
ENDBRANCH  15  17
BRANCH  15  19
ATOM     19  C9  DAN d          30.241  20.513  65.074  0.00  0.00     0.043 C 
ATOM     20  H7  DAN d          30.464  20.889  66.084  0.00  0.00     0.078 H 
ATOM     21  H8  DAN d          30.766  21.129  64.329  0.00  0.00     0.078 H 
BRANCH  19  22
ATOM     22  O9  DAN d          30.702  19.163  64.969  0.00  0.00    -0.398 OA
ATOM     23  H16 DAN d          31.185  18.932  65.754  0.00  0.00     0.209 HD
ENDBRANCH  19  22
ENDBRANCH  15  19
ENDBRANCH  11  15
ENDBRANCH   5  11
BRANCH   4  24
ATOM     24  N5  DAN d          28.624  17.590  62.471  0.00  0.00    -0.351 N 
ATOM     25  C10 DAN d          29.612  16.773  62.826  0.00  0.00     0.214 C 
ATOM     26  O10 DAN d          29.751  16.360  63.972  0.00  0.00    -0.274 OA
ATOM     27  H12 DAN d          28.571  17.902  61.521  0.00  0.00     0.163 HD
BRANCH  25  28
ATOM     28  C11 DAN d          30.612  16.332  61.779  0.00  0.00    -0.003 C 
ATOM     29  H9  DAN d          31.257  15.544  62.197  0.00  0.00     0.040 H 
ATOM     30  H10 DAN d          31.230  17.190  61.478  0.00  0.00     0.040 H 
ATOM     31  H11 DAN d          30.077  15.939  60.902  0.00  0.00     0.040 H 
ENDBRANCH  25  28
ENDBRANCH   4  24
BRANCH   3  32
ATOM     32  O4  DAN d          26.654  15.900  63.837  0.00  0.00    -0.389 OA
ATOM     33  H13 DAN d          26.069  15.255  63.458  0.00  0.00     0.210 HD
ENDBRANCH   3  32
BRANCH   1  34
ATOM     34  C1  DAN d          23.886  19.731  64.819  0.00  0.00     0.233 C 
ATOM     35  O1B DAN d          23.920  20.901  65.247  0.00  0.00    -0.642 OA
ATOM     36  O1A DAN d          22.829  19.068  64.847  0.00  0.00    -0.642 OA
ENDBRANCH   1  34
TORSDOF 10
ENDMDL
