MODEL 1
REMARK VINA RESULT:      -6.4      0.000      0.000
REMARK  6 active torsions:
REMARK  status: ('A' for Active; 'I' for Inactive)
REMARK    1  A    between atoms: P_2  and  O5'_5 
REMARK    2  A    between atoms: O5'_5  and  C5'_6 
REMARK    3  A    between atoms: C5'_6  and  C4'_7 
REMARK    4  A    between atoms: C3'_9  and  O3'_10 
REMARK    5  A    between atoms: C2'_11  and  O2'_12 
REMARK    6  A    between atoms: C1'_13  and  N1_14 
ROOT
ATOM      1  C4' MOL d          40.815  40.951  36.902  0.00  0.00     0.089 C 
ATOM      2  O4' MOL d          40.012  39.790  37.171  0.00  0.00    -0.353 OA
ATOM      3  C3' MOL d          42.248  40.464  36.922  0.00  0.00     0.091 C 
ATOM      4  C2' MOL d          42.100  38.991  36.522  0.00  0.00     0.105 C 
ATOM      5  C1' MOL d          40.735  38.619  37.051  0.00  0.00     0.141 C 
ATOM      6  H3  MOL d          40.704  41.669  37.729  0.00  0.00     0.090 H 
ATOM      7  H4  MOL d          42.869  41.019  36.205  0.00  0.00     0.091 H 
ATOM      8  H6  MOL d          42.126  38.905  35.425  0.00  0.00     0.093 H 
ATOM      9  H8  MOL d          40.902  38.233  38.068  0.00  0.00     0.123 H 
ENDROOT
BRANCH   5  10
ATOM     10  N1  MOL d          39.969  37.567  36.369  0.00  0.00    -0.280 N 
ATOM     11  C2  MOL d          40.135  36.235  36.742  0.00  0.00     0.331 A 
ATOM     12  O2  MOL d          40.900  35.938  37.624  0.00  0.00    -0.246 OA
ATOM     13  N3  MOL d          39.376  35.317  36.034  0.00  0.00    -0.275 N 
ATOM     14  C4  MOL d          38.475  35.593  35.002  0.00  0.00     0.250 A 
ATOM     15  H9  MOL d          39.484  34.356  36.288  0.00  0.00     0.173 HD
ATOM     16  O4  MOL d          37.898  34.659  34.486  0.00  0.00    -0.268 OA
ATOM     17  C5  MOL d          38.365  36.986  34.681  0.00  0.00    -0.002 A 
ATOM     18  C6  MOL d          39.080  37.901  35.342  0.00  0.00    -0.008 A 
ATOM     19  H10 MOL d          37.689  37.303  33.888  0.00  0.00     0.094 H 
ATOM     20  H11 MOL d          38.966  38.948  35.071  0.00  0.00     0.112 H 
ENDBRANCH   5  10
BRANCH   4  21
ATOM     21  O2' MOL d          43.102  38.106  37.068  0.00  0.00    -0.388 OA
ATOM     22  H7  MOL d          42.889  37.909  37.973  0.00  0.00     0.210 HD
ENDBRANCH   4  21
BRANCH   1  23
ATOM     23  C5' MOL d          40.287  41.636  35.665  0.00  0.00     0.059 C 
ATOM     24  H1  MOL d          40.250  42.724  35.824  0.00  0.00     0.079 H 
ATOM     25  H2  MOL d          40.936  41.412  34.805  0.00  0.00     0.079 H 
BRANCH  23  26
ATOM     26  O5' MOL d          38.962  41.125  35.430  0.00  0.00    -0.280 OA
BRANCH  26  27
ATOM     27  P   MOL d          37.647  42.002  35.667  0.00  0.00     0.422 P 
ATOM     28  O3P MOL d          37.288  41.914  37.228  0.00  0.00    -0.617 OA
ATOM     29  O1P MOL d          36.502  41.559  34.766  0.00  0.00    -0.617 OA
ATOM     30  O2P MOL d          38.052  43.389  35.350  0.00  0.00    -0.617 OA
ENDBRANCH  26  27
ENDBRANCH  23  26
ENDBRANCH   1  23
BRANCH   3  31
ATOM     31  O3' MOL d          42.815  40.556  38.225  0.00  0.00    -0.390 OA
ATOM     32  H5  MOL d          43.555  41.152  38.206  0.00  0.00     0.210 HD
ENDBRANCH   3  31
TORSDOF 6
ENDMDL
MODEL 2
REMARK VINA RESULT:      -6.0      2.694      5.825
REMARK  6 active torsions:
REMARK  status: ('A' for Active; 'I' for Inactive)
REMARK    1  A    between atoms: P_2  and  O5'_5 
REMARK    2  A    between atoms: O5'_5  and  C5'_6 
REMARK    3  A    between atoms: C5'_6  and  C4'_7 
REMARK    4  A    between atoms: C3'_9  and  O3'_10 
REMARK    5  A    between atoms: C2'_11  and  O2'_12 
REMARK    6  A    between atoms: C1'_13  and  N1_14 
ROOT
ATOM      1  C4' MOL d          38.377  38.996  35.447  0.00  0.00     0.089 C 
ATOM      2  O4' MOL d          39.268  39.223  36.551  0.00  0.00    -0.353 OA
ATOM      3  C3' MOL d          37.984  40.374  34.958  0.00  0.00     0.091 C 
ATOM      4  C2' MOL d          39.191  41.226  35.368  0.00  0.00     0.105 C 
ATOM      5  C1' MOL d          39.705  40.532  36.608  0.00  0.00     0.141 C 
ATOM      6  H3  MOL d          37.462  38.507  35.812  0.00  0.00     0.090 H 
ATOM      7  H4  MOL d          37.832  40.383  33.868  0.00  0.00     0.091 H 
ATOM      8  H6  MOL d          39.947  41.200  34.569  0.00  0.00     0.093 H 
ATOM      9  H8  MOL d          39.192  41.012  37.454  0.00  0.00     0.123 H 
ENDROOT
BRANCH   5  10
ATOM     10  N1  MOL d          41.135  40.621  36.933  0.00  0.00    -0.280 N 
ATOM     11  C2  MOL d          41.560  40.435  38.246  0.00  0.00     0.331 A 
ATOM     12  O2  MOL d          40.765  40.196  39.119  0.00  0.00    -0.246 OA
ATOM     13  N3  MOL d          42.925  40.547  38.453  0.00  0.00    -0.275 N 
ATOM     14  C4  MOL d          43.900  40.824  37.490  0.00  0.00     0.250 A 
ATOM     15  H9  MOL d          43.248  40.417  39.391  0.00  0.00     0.173 HD
ATOM     16  O4  MOL d          45.055  40.893  37.853  0.00  0.00    -0.268 OA
ATOM     17  C5  MOL d          43.377  41.002  36.167  0.00  0.00    -0.002 A 
ATOM     18  C6  MOL d          42.066  40.900  35.928  0.00  0.00    -0.008 A 
ATOM     19  H10 MOL d          44.057  41.223  35.346  0.00  0.00     0.094 H 
ATOM     20  H11 MOL d          41.709  41.039  34.909  0.00  0.00     0.112 H 
ENDBRANCH   5  10
BRANCH   4  21
ATOM     21  O2' MOL d          38.891  42.608  35.661  0.00  0.00    -0.388 OA
ATOM     22  H7  MOL d          39.703  43.095  35.750  0.00  0.00     0.210 HD
ENDBRANCH   4  21
BRANCH   1  23
ATOM     23  C5' MOL d          39.026  38.031  34.485  0.00  0.00     0.059 C 
ATOM     24  H1  MOL d          38.256  37.517  33.891  0.00  0.00     0.079 H 
ATOM     25  H2  MOL d          39.709  38.571  33.812  0.00  0.00     0.079 H 
BRANCH  23  26
ATOM     26  O5' MOL d          39.761  37.077  35.272  0.00  0.00    -0.280 OA
BRANCH  26  27
ATOM     27  P   MOL d          39.269  35.571  35.481  0.00  0.00     0.422 P 
ATOM     28  O3P MOL d          38.650  35.470  36.957  0.00  0.00    -0.617 OA
ATOM     29  O1P MOL d          40.389  34.570  35.235  0.00  0.00    -0.617 OA
ATOM     30  O2P MOL d          38.180  35.386  34.497  0.00  0.00    -0.617 OA
ENDBRANCH  26  27
ENDBRANCH  23  26
ENDBRANCH   1  23
BRANCH   3  31
ATOM     31  O3' MOL d          36.812  40.848  35.613  0.00  0.00    -0.390 OA
ATOM     32  H5  MOL d          36.844  40.606  36.531  0.00  0.00     0.210 HD
ENDBRANCH   3  31
TORSDOF 6
ENDMDL
MODEL 3
REMARK VINA RESULT:      -5.8      1.862      4.682
REMARK  6 active torsions:
REMARK  status: ('A' for Active; 'I' for Inactive)
REMARK    1  A    between atoms: P_2  and  O5'_5 
REMARK    2  A    between atoms: O5'_5  and  C5'_6 
REMARK    3  A    between atoms: C5'_6  and  C4'_7 
REMARK    4  A    between atoms: C3'_9  and  O3'_10 
REMARK    5  A    between atoms: C2'_11  and  O2'_12 
REMARK    6  A    between atoms: C1'_13  and  N1_14 
ROOT
ATOM      1  C4' MOL d          39.277  38.426  34.572  0.00  0.00     0.089 C 
ATOM      2  O4' MOL d          40.514  39.027  34.991  0.00  0.00    -0.353 OA
ATOM      3  C3' MOL d          39.202  37.104  35.308  0.00  0.00     0.091 C 
ATOM      4  C2' MOL d          40.034  37.380  36.566  0.00  0.00     0.105 C 
ATOM      5  C1' MOL d          41.048  38.399  36.099  0.00  0.00     0.141 C 
ATOM      6  H3  MOL d          39.330  38.197  33.497  0.00  0.00     0.090 H 
ATOM      7  H4  MOL d          38.163  36.845  35.558  0.00  0.00     0.091 H 
ATOM      8  H6  MOL d          39.389  37.809  37.346  0.00  0.00     0.093 H 
ATOM      9  H8  MOL d          41.920  37.820  35.758  0.00  0.00     0.123 H 
ENDROOT
BRANCH   5  10
ATOM     10  N1  MOL d          41.590  39.361  37.068  0.00  0.00    -0.280 N 
ATOM     11  C2  MOL d          42.856  39.907  36.870  0.00  0.00     0.331 A 
ATOM     12  O2  MOL d          43.511  39.600  35.906  0.00  0.00    -0.246 OA
ATOM     13  N3  MOL d          43.282  40.797  37.843  0.00  0.00    -0.275 N 
ATOM     14  C4  MOL d          42.576  41.194  38.982  0.00  0.00     0.250 A 
ATOM     15  H9  MOL d          44.189  41.198  37.717  0.00  0.00     0.173 HD
ATOM     16  O4  MOL d          43.109  41.982  39.735  0.00  0.00    -0.268 OA
ATOM     17  C5  MOL d          41.284  40.585  39.109  0.00  0.00    -0.002 A 
ATOM     18  C6  MOL d          40.839  39.723  38.191  0.00  0.00    -0.008 A 
ATOM     19  H10 MOL d          40.658  40.829  39.966  0.00  0.00     0.094 H 
ATOM     20  H11 MOL d          39.852  39.284  38.322  0.00  0.00     0.112 H 
ENDBRANCH   5  10
BRANCH   4  21
ATOM     21  O2' MOL d          40.707  36.228  37.118  0.00  0.00    -0.388 OA
ATOM     22  H7  MOL d          40.287  35.978  37.933  0.00  0.00     0.210 HD
ENDBRANCH   4  21
BRANCH   1  23
ATOM     23  C5' MOL d          38.163  39.428  34.744  0.00  0.00     0.059 C 
ATOM     24  H1  MOL d          37.535  39.453  33.841  0.00  0.00     0.079 H 
ATOM     25  H2  MOL d          37.544  39.160  35.614  0.00  0.00     0.079 H 
BRANCH  23  26
ATOM     26  O5' MOL d          38.776  40.714  34.954  0.00  0.00    -0.280 OA
BRANCH  26  27
ATOM     27  P   MOL d          37.998  41.941  35.617  0.00  0.00     0.422 P 
ATOM     28  O3P MOL d          36.501  41.927  35.043  0.00  0.00    -0.617 OA
ATOM     29  O1P MOL d          38.716  43.263  35.376  0.00  0.00    -0.617 OA
ATOM     30  O2P MOL d          37.955  41.630  37.063  0.00  0.00    -0.617 OA
ENDBRANCH  26  27
ENDBRANCH  23  26
ENDBRANCH   1  23
BRANCH   3  31
ATOM     31  O3' MOL d          39.796  36.052  34.556  0.00  0.00    -0.390 OA
ATOM     32  H5  MOL d          40.249  36.417  33.805  0.00  0.00     0.210 HD
ENDBRANCH   3  31
TORSDOF 6
ENDMDL
MODEL 4
REMARK VINA RESULT:      -4.9      2.774      5.658
REMARK  6 active torsions:
REMARK  status: ('A' for Active; 'I' for Inactive)
REMARK    1  A    between atoms: P_2  and  O5'_5 
REMARK    2  A    between atoms: O5'_5  and  C5'_6 
REMARK    3  A    between atoms: C5'_6  and  C4'_7 
REMARK    4  A    between atoms: C3'_9  and  O3'_10 
REMARK    5  A    between atoms: C2'_11  and  O2'_12 
REMARK    6  A    between atoms: C1'_13  and  N1_14 
ROOT
ATOM      1  C4' MOL d          38.236  39.528  37.215  0.00  0.00     0.089 C 
ATOM      2  O4' MOL d          39.599  39.926  37.435  0.00  0.00    -0.353 OA
ATOM      3  C3' MOL d          37.624  40.633  36.380  0.00  0.00     0.091 C 
ATOM      4  C2' MOL d          38.841  41.199  35.639  0.00  0.00     0.105 C 
ATOM      5  C1' MOL d          39.980  40.961  36.603  0.00  0.00     0.141 C 
ATOM      6  H3  MOL d          37.702  39.513  38.177  0.00  0.00     0.090 H 
ATOM      7  H4  MOL d          36.872  40.237  35.682  0.00  0.00     0.091 H 
ATOM      8  H6  MOL d          38.999  40.634  34.708  0.00  0.00     0.093 H 
ATOM      9  H8  MOL d          40.045  41.869  37.220  0.00  0.00     0.123 H 
ENDROOT
BRANCH   5  10
ATOM     10  N1  MOL d          41.335  40.768  36.070  0.00  0.00    -0.280 N 
ATOM     11  C2  MOL d          41.540  39.912  34.990  0.00  0.00     0.331 A 
ATOM     12  O2  MOL d          40.613  39.330  34.485  0.00  0.00    -0.246 OA
ATOM     13  N3  MOL d          42.854  39.789  34.566  0.00  0.00    -0.275 N 
ATOM     14  C4  MOL d          43.972  40.430  35.106  0.00  0.00     0.250 A 
ATOM     15  H9  MOL d          43.019  39.177  33.792  0.00  0.00     0.173 HD
ATOM     16  O4  MOL d          45.055  40.199  34.610  0.00  0.00    -0.268 OA
ATOM     17  C5  MOL d          43.673  41.291  36.213  0.00  0.00    -0.002 A 
ATOM     18  C6  MOL d          42.418  41.435  36.649  0.00  0.00    -0.008 A 
ATOM     19  H10 MOL d          44.479  41.834  36.704  0.00  0.00     0.094 H 
ATOM     20  H11 MOL d          42.232  42.101  37.490  0.00  0.00     0.112 H 
ENDBRANCH   5  10
BRANCH   4  21
ATOM     21  O2' MOL d          38.756  42.602  35.308  0.00  0.00    -0.388 OA
ATOM     22  H7  MOL d          39.290  42.778  34.542  0.00  0.00     0.210 HD
ENDBRANCH   4  21
BRANCH   1  23
ATOM     23  C5' MOL d          38.218  38.113  36.690  0.00  0.00     0.059 C 
ATOM     24  H1  MOL d          37.478  37.516  37.244  0.00  0.00     0.079 H 
ATOM     25  H2  MOL d          37.964  38.111  35.620  0.00  0.00     0.079 H 
BRANCH  23  26
ATOM     26  O5' MOL d          39.537  37.571  36.886  0.00  0.00    -0.280 OA
BRANCH  26  27
ATOM     27  P   MOL d          39.883  36.034  36.620  0.00  0.00     0.422 P 
ATOM     28  O3P MOL d          38.699  35.159  37.255  0.00  0.00    -0.617 OA
ATOM     29  O1P MOL d          41.257  35.662  37.163  0.00  0.00    -0.617 OA
ATOM     30  O2P MOL d          39.848  35.884  35.149  0.00  0.00    -0.617 OA
ENDBRANCH  26  27
ENDBRANCH  23  26
ENDBRANCH   1  23
BRANCH   3  31
ATOM     31  O3' MOL d          37.040  41.644  37.196  0.00  0.00    -0.390 OA
ATOM     32  H5  MOL d          36.342  41.265  37.717  0.00  0.00     0.210 HD
ENDBRANCH   3  31
TORSDOF 6
ENDMDL
MODEL 5
REMARK VINA RESULT:      -4.6      2.765      5.925
REMARK  6 active torsions:
REMARK  status: ('A' for Active; 'I' for Inactive)
REMARK    1  A    between atoms: P_2  and  O5'_5 
REMARK    2  A    between atoms: O5'_5  and  C5'_6 
REMARK    3  A    between atoms: C5'_6  and  C4'_7 
REMARK    4  A    between atoms: C3'_9  and  O3'_10 
REMARK    5  A    between atoms: C2'_11  and  O2'_12 
REMARK    6  A    between atoms: C1'_13  and  N1_14 
ROOT
ATOM      1  C4' MOL d          38.959  38.230  37.826  0.00  0.00     0.089 C 
ATOM      2  O4' MOL d          39.992  39.230  37.816  0.00  0.00    -0.353 OA
ATOM      3  C3' MOL d          37.947  38.686  36.797  0.00  0.00     0.091 C 
ATOM      4  C2' MOL d          38.807  39.510  35.831  0.00  0.00     0.105 C 
ATOM      5  C1' MOL d          39.898  40.063  36.719  0.00  0.00     0.141 C 
ATOM      6  H3  MOL d          38.455  38.237  38.804  0.00  0.00     0.090 H 
ATOM      7  H4  MOL d          37.476  37.830  36.292  0.00  0.00     0.091 H 
ATOM      8  H6  MOL d          39.233  38.848  35.063  0.00  0.00     0.093 H 
ATOM      9  H8  MOL d          39.528  41.036  37.078  0.00  0.00     0.123 H 
ENDROOT
BRANCH   5  10
ATOM     10  N1  MOL d          41.214  40.353  36.133  0.00  0.00    -0.280 N 
ATOM     11  C2  MOL d          41.441  41.577  35.508  0.00  0.00     0.331 A 
ATOM     12  O2  MOL d          40.567  42.404  35.446  0.00  0.00    -0.246 OA
ATOM     13  N3  MOL d          42.710  41.751  34.980  0.00  0.00    -0.275 N 
ATOM     14  C4  MOL d          43.765  40.835  35.013  0.00  0.00     0.250 A 
ATOM     15  H9  MOL d          42.890  42.624  34.526  0.00  0.00     0.173 HD
ATOM     16  O4  MOL d          44.812  41.155  34.491  0.00  0.00    -0.268 OA
ATOM     17  C5  MOL d          43.447  39.603  35.674  0.00  0.00    -0.002 A 
ATOM     18  C6  MOL d          42.234  39.399  36.197  0.00  0.00    -0.008 A 
ATOM     19  H10 MOL d          44.203  38.824  35.751  0.00  0.00     0.094 H 
ATOM     20  H11 MOL d          42.033  38.451  36.693  0.00  0.00     0.112 H 
ENDBRANCH   5  10
BRANCH   4  21
ATOM     21  O2' MOL d          38.114  40.589  35.165  0.00  0.00    -0.388 OA
ATOM     22  H7  MOL d          38.309  41.408  35.605  0.00  0.00     0.210 HD
ENDBRANCH   4  21
BRANCH   1  23
ATOM     23  C5' MOL d          39.595  36.869  37.680  0.00  0.00     0.059 C 
ATOM     24  H1  MOL d          40.599  36.967  37.240  0.00  0.00     0.079 H 
ATOM     25  H2  MOL d          39.671  36.381  38.663  0.00  0.00     0.079 H 
BRANCH  23  26
ATOM     26  O5' MOL d          38.748  36.096  36.809  0.00  0.00    -0.280 OA
BRANCH  26  27
ATOM     27  P   MOL d          39.306  35.332  35.522  0.00  0.00     0.422 P 
ATOM     28  O3P MOL d          39.817  36.445  34.487  0.00  0.00    -0.617 OA
ATOM     29  O1P MOL d          38.265  34.396  34.924  0.00  0.00    -0.617 OA
ATOM     30  O2P MOL d          40.474  34.566  36.009  0.00  0.00    -0.617 OA
ENDBRANCH  26  27
ENDBRANCH  23  26
ENDBRANCH   1  23
BRANCH   3  31
ATOM     31  O3' MOL d          36.945  39.513  37.379  0.00  0.00    -0.390 OA
ATOM     32  H5  MOL d          37.349  40.299  37.730  0.00  0.00     0.210 HD
ENDBRANCH   3  31
TORSDOF 6
ENDMDL
MODEL 6
REMARK VINA RESULT:      -4.6      2.999      5.557
REMARK  6 active torsions:
REMARK  status: ('A' for Active; 'I' for Inactive)
REMARK    1  A    between atoms: P_2  and  O5'_5 
REMARK    2  A    between atoms: O5'_5  and  C5'_6 
REMARK    3  A    between atoms: C5'_6  and  C4'_7 
REMARK    4  A    between atoms: C3'_9  and  O3'_10 
REMARK    5  A    between atoms: C2'_11  and  O2'_12 
REMARK    6  A    between atoms: C1'_13  and  N1_14 
ROOT
ATOM      1  C4' MOL d          41.969  38.706  36.698  0.00  0.00     0.089 C 
ATOM      2  O4' MOL d          41.365  39.452  35.628  0.00  0.00    -0.353 OA
ATOM      3  C3' MOL d          42.764  39.718  37.495  0.00  0.00     0.091 C 
ATOM      4  C2' MOL d          42.004  41.022  37.224  0.00  0.00     0.105 C 
ATOM      5  C1' MOL d          41.437  40.815  35.839  0.00  0.00     0.141 C 
ATOM      6  H3  MOL d          42.687  37.986  36.279  0.00  0.00     0.090 H 
ATOM      7  H4  MOL d          42.771  39.467  38.566  0.00  0.00     0.091 H 
ATOM      8  H6  MOL d          41.194  41.134  37.960  0.00  0.00     0.093 H 
ATOM      9  H8  MOL d          42.191  41.214  35.143  0.00  0.00     0.123 H 
ENDROOT
BRANCH   5  10
ATOM     10  N1  MOL d          40.187  41.495  35.472  0.00  0.00    -0.280 N 
ATOM     11  C2  MOL d          40.232  42.735  34.840  0.00  0.00     0.331 A 
ATOM     12  O2  MOL d          41.289  43.255  34.587  0.00  0.00    -0.246 OA
ATOM     13  N3  MOL d          39.002  43.299  34.543  0.00  0.00    -0.275 N 
ATOM     14  C4  MOL d          37.743  42.754  34.811  0.00  0.00     0.250 A 
ATOM     15  H9  MOL d          39.015  44.191  34.090  0.00  0.00     0.173 HD
ATOM     16  O4  MOL d          36.765  43.393  34.485  0.00  0.00    -0.268 OA
ATOM     17  C5  MOL d          37.788  41.477  35.462  0.00  0.00    -0.002 A 
ATOM     18  C6  MOL d          38.955  40.902  35.764  0.00  0.00    -0.008 A 
ATOM     19  H10 MOL d          36.857  40.971  35.715  0.00  0.00     0.094 H 
ATOM     20  H11 MOL d          38.946  39.931  36.256  0.00  0.00     0.112 H 
ENDBRANCH   5  10
BRANCH   4  21
ATOM     21  O2' MOL d          42.813  42.218  37.255  0.00  0.00    -0.388 OA
ATOM     22  H7  MOL d          42.777  42.601  38.124  0.00  0.00     0.210 HD
ENDBRANCH   4  21
BRANCH   1  23
ATOM     23  C5' MOL d          40.902  37.896  37.392  0.00  0.00     0.059 C 
ATOM     24  H1  MOL d          41.365  37.095  37.987  0.00  0.00     0.079 H 
ATOM     25  H2  MOL d          40.305  38.544  38.051  0.00  0.00     0.079 H 
BRANCH  23  26
ATOM     26  O5' MOL d          40.065  37.329  36.368  0.00  0.00    -0.280 OA
BRANCH  26  27
ATOM     27  P   MOL d          39.834  35.755  36.218  0.00  0.00     0.422 P 
ATOM     28  O3P MOL d          40.941  35.020  37.117  0.00  0.00    -0.617 OA
ATOM     29  O1P MOL d          39.862  35.315  34.761  0.00  0.00    -0.617 OA
ATOM     30  O2P MOL d          38.501  35.507  36.810  0.00  0.00    -0.617 OA
ENDBRANCH  26  27
ENDBRANCH  23  26
ENDBRANCH   1  23
BRANCH   3  31
ATOM     31  O3' MOL d          44.101  39.828  37.017  0.00  0.00    -0.390 OA
ATOM     32  H5  MOL d          44.185  40.618  36.496  0.00  0.00     0.210 HD
ENDBRANCH   3  31
TORSDOF 6
ENDMDL
MODEL 7
REMARK VINA RESULT:      -4.2      2.609      5.258
REMARK  6 active torsions:
REMARK  status: ('A' for Active; 'I' for Inactive)
REMARK    1  A    between atoms: P_2  and  O5'_5 
REMARK    2  A    between atoms: O5'_5  and  C5'_6 
REMARK    3  A    between atoms: C5'_6  and  C4'_7 
REMARK    4  A    between atoms: C3'_9  and  O3'_10 
REMARK    5  A    between atoms: C2'_11  and  O2'_12 
REMARK    6  A    between atoms: C1'_13  and  N1_14 
ROOT
ATOM      1  C4' MOL d          41.215  38.152  37.447  0.00  0.00     0.089 C 
ATOM      2  O4' MOL d          40.264  39.213  37.632  0.00  0.00    -0.353 OA
ATOM      3  C3' MOL d          40.413  36.977  36.928  0.00  0.00     0.091 C 
ATOM      4  C2' MOL d          39.236  37.666  36.227  0.00  0.00     0.105 C 
ATOM      5  C1' MOL d          39.057  38.943  37.016  0.00  0.00     0.141 C 
ATOM      6  H3  MOL d          41.627  37.858  38.424  0.00  0.00     0.090 H 
ATOM      7  H4  MOL d          41.003  36.369  36.227  0.00  0.00     0.091 H 
ATOM      8  H6  MOL d          39.510  37.891  35.186  0.00  0.00     0.093 H 
ATOM      9  H8  MOL d          38.331  38.707  37.808  0.00  0.00     0.123 H 
ENDROOT
BRANCH   5  10
ATOM     10  N1  MOL d          38.508  40.126  36.340  0.00  0.00    -0.280 N 
ATOM     11  C2  MOL d          39.080  40.575  35.152  0.00  0.00     0.331 A 
ATOM     12  O2  MOL d          40.021  39.997  34.670  0.00  0.00    -0.246 OA
ATOM     13  N3  MOL d          38.497  41.702  34.597  0.00  0.00    -0.275 N 
ATOM     14  C4  MOL d          37.410  42.419  35.103  0.00  0.00     0.250 A 
ATOM     15  H9  MOL d          38.896  42.039  33.744  0.00  0.00     0.173 HD
ATOM     16  O4  MOL d          37.033  43.393  34.485  0.00  0.00    -0.268 OA
ATOM     17  C5  MOL d          36.882  41.891  36.327  0.00  0.00    -0.002 A 
ATOM     18  C6  MOL d          37.417  40.805  36.892  0.00  0.00    -0.008 A 
ATOM     19  H10 MOL d          36.034  42.382  36.803  0.00  0.00     0.094 H 
ATOM     20  H11 MOL d          36.986  40.434  37.820  0.00  0.00     0.112 H 
ENDBRANCH   5  10
BRANCH   4  21
ATOM     21  O2' MOL d          38.004  36.912  36.218  0.00  0.00    -0.388 OA
ATOM     22  H7  MOL d          37.316  37.427  36.624  0.00  0.00     0.210 HD
ENDBRANCH   4  21
BRANCH   1  23
ATOM     23  C5' MOL d          42.374  38.670  36.631  0.00  0.00     0.059 C 
ATOM     24  H1  MOL d          42.979  37.830  36.260  0.00  0.00     0.079 H 
ATOM     25  H2  MOL d          42.001  39.259  35.779  0.00  0.00     0.079 H 
BRANCH  23  26
ATOM     26  O5' MOL d          43.165  39.503  37.498  0.00  0.00    -0.280 OA
BRANCH  26  27
ATOM     27  P   MOL d          43.670  40.957  37.070  0.00  0.00     0.422 P 
ATOM     28  O3P MOL d          43.743  41.850  38.400  0.00  0.00    -0.617 OA
ATOM     29  O1P MOL d          42.787  41.567  35.990  0.00  0.00    -0.617 OA
ATOM     30  O2P MOL d          45.044  40.749  36.561  0.00  0.00    -0.617 OA
ENDBRANCH  26  27
ENDBRANCH  23  26
ENDBRANCH   1  23
BRANCH   3  31
ATOM     31  O3' MOL d          39.933  36.160  37.991  0.00  0.00    -0.390 OA
ATOM     32  H5  MOL d          40.521  36.231  38.734  0.00  0.00     0.210 HD
ENDBRANCH   3  31
TORSDOF 6
ENDMDL
