MODEL 1
REMARK VINA RESULT:      -6.2      0.000      0.000
REMARK  9 active torsions:
REMARK  status: ('A' for Active; 'I' for Inactive)
REMARK    1  A    between atoms: C1_1  and  C2_3 
REMARK    2  A    between atoms: C2_3  and  C3_4 
REMARK    3  A    between atoms: C3_4  and  C4_5 
REMARK    4  A    between atoms: C4_5  and  C5_6 
REMARK    5  A    between atoms: C5_6  and  C6_7 
REMARK    6  A    between atoms: C6_7  and  C7_8 
REMARK    7  A    between atoms: C7_8  and  C8_9 
REMARK    8  A    between atoms: C8_9  and  C9_10 
REMARK    9  A    between atoms: C9_10  and  C10_11 
ROOT
ATOM      1  C6  DKA d          14.181  -3.741  -0.550  0.00  0.00    -0.065 C 
ATOM      2  H9  DKA d          14.973  -3.181  -0.032  0.00  0.00     0.033 H 
ATOM      3  H10 DKA d          14.261  -3.572  -1.634  0.00  0.00     0.033 H 
ENDROOT
BRANCH   1   4
ATOM      4  C5  DKA d          12.825  -3.242  -0.070  0.00  0.00    -0.065 C 
ATOM      5  H7  DKA d          12.942  -2.265   0.421  0.00  0.00     0.033 H 
ATOM      6  H8  DKA d          12.141  -3.143  -0.926  0.00  0.00     0.033 H 
BRANCH   4   7
ATOM      7  C4  DKA d          12.262  -4.252   0.923  0.00  0.00    -0.065 C 
ATOM      8  H5  DKA d          12.601  -5.260   0.640  0.00  0.00     0.033 H 
ATOM      9  H6  DKA d          12.633  -4.009   1.930  0.00  0.00     0.033 H 
BRANCH   7  10
ATOM     10  C3  DKA d          10.744  -4.226   0.935  0.00  0.00    -0.056 C 
ATOM     11  H3  DKA d          10.360  -5.241   0.754  0.00  0.00     0.033 H 
ATOM     12  H4  DKA d          10.392  -3.871   1.915  0.00  0.00     0.033 H 
BRANCH  10  13
ATOM     13  C2  DKA d          10.238  -3.290  -0.154  0.00  0.00     0.016 C 
ATOM     14  H1  DKA d          11.057  -2.630  -0.473  0.00  0.00     0.049 H 
ATOM     15  H2  DKA d           9.892  -3.886  -1.012  0.00  0.00     0.049 H 
BRANCH  13  16
ATOM     16  C1  DKA d           9.096  -2.451   0.359  0.00  0.00     0.172 C 
ATOM     17  O1  DKA d           8.853  -1.369  -0.225  0.00  0.00    -0.648 OA
ATOM     18  O2  DKA d           8.452  -2.866   1.349  0.00  0.00    -0.648 OA
ENDBRANCH  13  16
ENDBRANCH  10  13
ENDBRANCH   7  10
ENDBRANCH   4   7
ENDBRANCH   1   4
BRANCH   1  19
ATOM     19  C7  DKA d          14.357  -5.224  -0.267  0.00  0.00    -0.065 C 
ATOM     20  H11 DKA d          13.723  -5.804  -0.953  0.00  0.00     0.033 H 
ATOM     21  H12 DKA d          14.062  -5.435   0.771  0.00  0.00     0.033 H 
BRANCH  19  22
ATOM     22  C8  DKA d          15.807  -5.617  -0.469  0.00  0.00    -0.065 C 
ATOM     23  H13 DKA d          15.841  -6.576  -1.005  0.00  0.00     0.033 H 
ATOM     24  H14 DKA d          16.282  -5.730   0.517  0.00  0.00     0.033 H 
BRANCH  22  25
ATOM     25  C9  DKA d          16.579  -4.589  -1.263  0.00  0.00    -0.069 C 
ATOM     26  H15 DKA d          16.744  -3.699  -0.639  0.00  0.00     0.032 H 
ATOM     27  H16 DKA d          15.997  -4.310  -2.154  0.00  0.00     0.032 H 
BRANCH  25  28
ATOM     28  C10 DKA d          17.917  -5.145  -1.698  0.00  0.00    -0.077 C 
ATOM     29  H17 DKA d          18.663  -4.336  -1.712  0.00  0.00     0.027 H 
ATOM     30  H18 DKA d          17.825  -5.575  -2.707  0.00  0.00     0.027 H 
ATOM     31  H19 DKA d          18.237  -5.927  -0.994  0.00  0.00     0.027 H 
ENDBRANCH  25  28
ENDBRANCH  22  25
ENDBRANCH  19  22
ENDBRANCH   1  19
TORSDOF 9
ENDMDL
MODEL 2
REMARK VINA RESULT:      -5.9      0.852      1.326
REMARK  9 active torsions:
REMARK  status: ('A' for Active; 'I' for Inactive)
REMARK    1  A    between atoms: C1_1  and  C2_3 
REMARK    2  A    between atoms: C2_3  and  C3_4 
REMARK    3  A    between atoms: C3_4  and  C4_5 
REMARK    4  A    between atoms: C4_5  and  C5_6 
REMARK    5  A    between atoms: C5_6  and  C6_7 
REMARK    6  A    between atoms: C6_7  and  C7_8 
REMARK    7  A    between atoms: C7_8  and  C8_9 
REMARK    8  A    between atoms: C8_9  and  C9_10 
REMARK    9  A    between atoms: C9_10  and  C10_11 
ROOT
ATOM      1  C6  DKA d          13.294  -4.661   0.322  0.00  0.00    -0.065 C 
ATOM      2  H9  DKA d          12.326  -5.088   0.021  0.00  0.00     0.033 H 
ATOM      3  H10 DKA d          13.307  -4.513   1.411  0.00  0.00     0.033 H 
ENDROOT
BRANCH   1   4
ATOM      4  C5  DKA d          13.477  -3.315  -0.365  0.00  0.00    -0.065 C 
ATOM      5  H7  DKA d          14.372  -2.814   0.034  0.00  0.00     0.033 H 
ATOM      6  H8  DKA d          13.593  -3.463  -1.449  0.00  0.00     0.033 H 
BRANCH   4   7
ATOM      7  C4  DKA d          12.245  -2.461  -0.091  0.00  0.00    -0.065 C 
ATOM      8  H5  DKA d          12.515  -1.656   0.608  0.00  0.00     0.033 H 
ATOM      9  H6  DKA d          11.895  -2.024  -1.038  0.00  0.00     0.033 H 
BRANCH   7  10
ATOM     10  C3  DKA d          11.125  -3.289   0.515  0.00  0.00    -0.056 C 
ATOM     11  H3  DKA d          11.348  -4.358   0.384  0.00  0.00     0.033 H 
ATOM     12  H4  DKA d          11.042  -3.061   1.588  0.00  0.00     0.033 H 
BRANCH  10  13
ATOM     13  C2  DKA d           9.810  -2.957  -0.176  0.00  0.00     0.016 C 
ATOM     14  H1  DKA d          10.009  -2.306  -1.039  0.00  0.00     0.049 H 
ATOM     15  H2  DKA d           9.336  -3.888  -0.521  0.00  0.00     0.049 H 
BRANCH  13  16
ATOM     16  C1  DKA d           8.877  -2.250   0.773  0.00  0.00     0.172 C 
ATOM     17  O1  DKA d           8.065  -2.945   1.427  0.00  0.00    -0.648 OA
ATOM     18  O2  DKA d           8.948  -1.002   0.856  0.00  0.00    -0.648 OA
ENDBRANCH  13  16
ENDBRANCH  10  13
ENDBRANCH   7  10
ENDBRANCH   4   7
ENDBRANCH   1   4
BRANCH   1  19
ATOM     19  C7  DKA d          14.401  -5.631  -0.058  0.00  0.00    -0.065 C 
ATOM     20  H11 DKA d          13.968  -6.486  -0.596  0.00  0.00     0.033 H 
ATOM     21  H12 DKA d          14.902  -5.988   0.854  0.00  0.00     0.033 H 
BRANCH  19  22
ATOM     22  C8  DKA d          15.412  -4.935  -0.947  0.00  0.00    -0.065 C 
ATOM     23  H13 DKA d          15.406  -3.860  -0.713  0.00  0.00     0.033 H 
ATOM     24  H14 DKA d          15.119  -5.083  -1.997  0.00  0.00     0.033 H 
BRANCH  22  25
ATOM     25  C9  DKA d          16.813  -5.466  -0.756  0.00  0.00    -0.069 C 
ATOM     26  H15 DKA d          16.852  -6.512  -1.090  0.00  0.00     0.032 H 
ATOM     27  H16 DKA d          17.077  -5.412   0.311  0.00  0.00     0.032 H 
BRANCH  25  28
ATOM     28  C10 DKA d          17.808  -4.652  -1.554  0.00  0.00    -0.077 C 
ATOM     29  H17 DKA d          18.620  -5.306  -1.903  0.00  0.00     0.027 H 
ATOM     30  H18 DKA d          18.225  -3.857  -0.919  0.00  0.00     0.027 H 
ATOM     31  H19 DKA d          17.301  -4.202  -2.421  0.00  0.00     0.027 H 
ENDBRANCH  25  28
ENDBRANCH  22  25
ENDBRANCH  19  22
ENDBRANCH   1  19
TORSDOF 9
ENDMDL
MODEL 3
REMARK VINA RESULT:      -5.9      4.215      6.906
REMARK  9 active torsions:
REMARK  status: ('A' for Active; 'I' for Inactive)
REMARK    1  A    between atoms: C1_1  and  C2_3 
REMARK    2  A    between atoms: C2_3  and  C3_4 
REMARK    3  A    between atoms: C3_4  and  C4_5 
REMARK    4  A    between atoms: C4_5  and  C5_6 
REMARK    5  A    between atoms: C5_6  and  C6_7 
REMARK    6  A    between atoms: C6_7  and  C7_8 
REMARK    7  A    between atoms: C7_8  and  C8_9 
REMARK    8  A    between atoms: C8_9  and  C9_10 
REMARK    9  A    between atoms: C9_10  and  C10_11 
ROOT
ATOM      1  C6  DKA d          13.456  -3.347  -0.361  0.00  0.00    -0.065 C 
ATOM      2  H9  DKA d          13.625  -3.506  -1.436  0.00  0.00     0.033 H 
ATOM      3  H10 DKA d          14.348  -2.886   0.087  0.00  0.00     0.033 H 
ENDROOT
BRANCH   1   4
ATOM      4  C5  DKA d          13.204  -4.692   0.307  0.00  0.00    -0.065 C 
ATOM      5  H7  DKA d          13.138  -4.559   1.396  0.00  0.00     0.033 H 
ATOM      6  H8  DKA d          12.264  -5.123  -0.068  0.00  0.00     0.033 H 
BRANCH   4   7
ATOM      7  C4  DKA d          14.364  -5.622  -0.029  0.00  0.00    -0.065 C 
ATOM      8  H5  DKA d          14.820  -5.979   0.907  0.00  0.00     0.033 H 
ATOM      9  H6  DKA d          13.982  -6.480  -0.601  0.00  0.00     0.033 H 
BRANCH   7  10
ATOM     10  C3  DKA d          15.422  -4.909  -0.853  0.00  0.00    -0.056 C 
ATOM     11  H3  DKA d          15.118  -4.901  -1.910  0.00  0.00     0.033 H 
ATOM     12  H4  DKA d          15.529  -3.874  -0.495  0.00  0.00     0.033 H 
BRANCH  10  13
ATOM     13  C2  DKA d          16.755  -5.632  -0.714  0.00  0.00     0.016 C 
ATOM     14  H1  DKA d          17.098  -5.559   0.327  0.00  0.00     0.049 H 
ATOM     15  H2  DKA d          16.622  -6.691  -0.984  0.00  0.00     0.049 H 
BRANCH  13  16
ATOM     16  C1  DKA d          17.788  -5.016  -1.622  0.00  0.00     0.172 C 
ATOM     17  O1  DKA d          17.815  -3.767  -1.719  0.00  0.00    -0.648 OA
ATOM     18  O2  DKA d          18.562  -5.779  -2.244  0.00  0.00    -0.648 OA
ENDBRANCH  13  16
ENDBRANCH  10  13
ENDBRANCH   7  10
ENDBRANCH   4   7
ENDBRANCH   1   4
BRANCH   1  19
ATOM     19  C7  DKA d          12.273  -2.410  -0.180  0.00  0.00    -0.065 C 
ATOM     20  H11 DKA d          12.023  -1.947  -1.146  0.00  0.00     0.033 H 
ATOM     21  H12 DKA d          12.535  -1.626   0.545  0.00  0.00     0.033 H 
BRANCH  19  22
ATOM     22  C8  DKA d          11.075  -3.187   0.330  0.00  0.00    -0.065 C 
ATOM     23  H13 DKA d          11.081  -3.160   1.430  0.00  0.00     0.033 H 
ATOM     24  H14 DKA d          11.158  -4.229  -0.012  0.00  0.00     0.033 H 
BRANCH  22  25
ATOM     25  C9  DKA d           9.765  -2.618  -0.162  0.00  0.00    -0.069 C 
ATOM     26  H15 DKA d           9.441  -3.176  -1.052  0.00  0.00     0.032 H 
ATOM     27  H16 DKA d           9.907  -1.559  -0.424  0.00  0.00     0.032 H 
BRANCH  25  28
ATOM     28  C10 DKA d           8.699  -2.726   0.906  0.00  0.00    -0.077 C 
ATOM     29  H17 DKA d           8.187  -1.759   1.013  0.00  0.00     0.027 H 
ATOM     30  H18 DKA d           9.167  -3.001   1.864  0.00  0.00     0.027 H 
ATOM     31  H19 DKA d           7.970  -3.499   0.619  0.00  0.00     0.027 H 
ENDBRANCH  25  28
ENDBRANCH  22  25
ENDBRANCH  19  22
ENDBRANCH   1  19
TORSDOF 9
ENDMDL
MODEL 4
REMARK VINA RESULT:      -5.0      3.769      7.011
REMARK  9 active torsions:
REMARK  status: ('A' for Active; 'I' for Inactive)
REMARK    1  A    between atoms: C1_1  and  C2_3 
REMARK    2  A    between atoms: C2_3  and  C3_4 
REMARK    3  A    between atoms: C3_4  and  C4_5 
REMARK    4  A    between atoms: C4_5  and  C5_6 
REMARK    5  A    between atoms: C5_6  and  C6_7 
REMARK    6  A    between atoms: C6_7  and  C7_8 
REMARK    7  A    between atoms: C7_8  and  C8_9 
REMARK    8  A    between atoms: C8_9  and  C9_10 
REMARK    9  A    between atoms: C9_10  and  C10_11 
ROOT
ATOM      1  C6  DKA d          10.634  -2.930   0.783  0.00  0.00    -0.065 C 
ATOM      2  H9  DKA d          11.069  -1.943   0.569  0.00  0.00     0.033 H 
ATOM      3  H10 DKA d          10.624  -3.098   1.870  0.00  0.00     0.033 H 
ENDROOT
BRANCH   1   4
ATOM      4  C5  DKA d          11.488  -4.004   0.123  0.00  0.00    -0.065 C 
ATOM      5  H7  DKA d          11.406  -4.943   0.690  0.00  0.00     0.033 H 
ATOM      6  H8  DKA d          11.146  -4.168  -0.909  0.00  0.00     0.033 H 
BRANCH   4   7
ATOM      7  C4  DKA d          12.937  -3.531   0.116  0.00  0.00    -0.065 C 
ATOM      8  H5  DKA d          13.062  -2.772  -0.670  0.00  0.00     0.033 H 
ATOM      9  H6  DKA d          13.174  -3.089   1.095  0.00  0.00     0.033 H 
BRANCH   7  10
ATOM     10  C3  DKA d          13.891  -4.682  -0.151  0.00  0.00    -0.056 C 
ATOM     11  H3  DKA d          14.383  -4.975   0.788  0.00  0.00     0.033 H 
ATOM     12  H4  DKA d          13.328  -5.539  -0.552  0.00  0.00     0.033 H 
BRANCH  10  13
ATOM     13  C2  DKA d          14.944  -4.251  -1.163  0.00  0.00     0.016 C 
ATOM     14  H1  DKA d          14.606  -4.521  -2.174  0.00  0.00     0.049 H 
ATOM     15  H2  DKA d          15.082  -3.162  -1.100  0.00  0.00     0.049 H 
BRANCH  13  16
ATOM     16  C1  DKA d          16.258  -4.933  -0.881  0.00  0.00     0.172 C 
ATOM     17  O1  DKA d          16.237  -6.006  -0.235  0.00  0.00    -0.648 OA
ATOM     18  O2  DKA d          17.308  -4.391  -1.295  0.00  0.00    -0.648 OA
ENDBRANCH  13  16
ENDBRANCH  10  13
ENDBRANCH   7  10
ENDBRANCH   4   7
ENDBRANCH   1   4
BRANCH   1  19
ATOM     19  C7  DKA d           9.205  -2.964   0.266  0.00  0.00    -0.065 C 
ATOM     20  H11 DKA d           8.913  -4.005   0.070  0.00  0.00     0.033 H 
ATOM     21  H12 DKA d           9.141  -2.384  -0.667  0.00  0.00     0.033 H 
BRANCH  19  22
ATOM     22  C8  DKA d           8.271  -2.364   1.297  0.00  0.00    -0.065 C 
ATOM     23  H13 DKA d           8.703  -2.518   2.297  0.00  0.00     0.033 H 
ATOM     24  H14 DKA d           7.300  -2.876   1.235  0.00  0.00     0.033 H 
BRANCH  22  25
ATOM     25  C9  DKA d           8.052  -0.884   1.087  0.00  0.00    -0.069 C 
ATOM     26  H15 DKA d           8.811  -0.323   1.650  0.00  0.00     0.032 H 
ATOM     27  H16 DKA d           7.049  -0.611   1.450  0.00  0.00     0.032 H 
BRANCH  25  28
ATOM     28  C10 DKA d           8.161  -0.529  -0.380  0.00  0.00    -0.077 C 
ATOM     29  H17 DKA d           7.536   0.351  -0.592  0.00  0.00     0.027 H 
ATOM     30  H18 DKA d           7.816  -1.379  -0.989  0.00  0.00     0.027 H 
ATOM     31  H19 DKA d           9.209  -0.303  -0.626  0.00  0.00     0.027 H 
ENDBRANCH  25  28
ENDBRANCH  22  25
ENDBRANCH  19  22
ENDBRANCH   1  19
TORSDOF 9
ENDMDL
MODEL 5
REMARK VINA RESULT:      -3.8      2.090      2.880
REMARK  9 active torsions:
REMARK  status: ('A' for Active; 'I' for Inactive)
REMARK    1  A    between atoms: C1_1  and  C2_3 
REMARK    2  A    between atoms: C2_3  and  C3_4 
REMARK    3  A    between atoms: C3_4  and  C4_5 
REMARK    4  A    between atoms: C4_5  and  C5_6 
REMARK    5  A    between atoms: C5_6  and  C6_7 
REMARK    6  A    between atoms: C6_7  and  C7_8 
REMARK    7  A    between atoms: C7_8  and  C8_9 
REMARK    8  A    between atoms: C8_9  and  C9_10 
REMARK    9  A    between atoms: C9_10  and  C10_11 
ROOT
ATOM      1  C6  DKA d          12.642  -2.872  -1.067  0.00  0.00    -0.065 C 
ATOM      2  H9  DKA d          12.794  -2.676  -2.139  0.00  0.00     0.033 H 
ATOM      3  H10 DKA d          12.008  -3.762  -0.944  0.00  0.00     0.033 H 
ENDROOT
BRANCH   1   4
ATOM      4  C5  DKA d          11.945  -1.674  -0.438  0.00  0.00    -0.065 C 
ATOM      5  H7  DKA d          12.314  -1.527   0.588  0.00  0.00     0.033 H 
ATOM      6  H8  DKA d          12.148  -0.771  -1.033  0.00  0.00     0.033 H 
BRANCH   4   7
ATOM      7  C4  DKA d          10.446  -1.946  -0.412  0.00  0.00    -0.065 C 
ATOM      8  H5  DKA d           9.910  -1.029  -0.698  0.00  0.00     0.033 H 
ATOM      9  H6  DKA d          10.215  -2.747  -1.131  0.00  0.00     0.033 H 
BRANCH   7  10
ATOM     10  C3  DKA d           9.987  -2.376   0.971  0.00  0.00    -0.056 C 
ATOM     11  H3  DKA d          10.765  -2.128   1.707  0.00  0.00     0.033 H 
ATOM     12  H4  DKA d           9.057  -1.848   1.228  0.00  0.00     0.033 H 
BRANCH  10  13
ATOM     13  C2  DKA d           9.737  -3.878   0.985  0.00  0.00     0.016 C 
ATOM     14  H1  DKA d           8.840  -4.089   1.584  0.00  0.00     0.049 H 
ATOM     15  H2  DKA d           9.580  -4.228  -0.046  0.00  0.00     0.049 H 
BRANCH  13  16
ATOM     16  C1  DKA d          10.914  -4.605   1.581  0.00  0.00     0.172 C 
ATOM     17  O1  DKA d          10.926  -5.856   1.519  0.00  0.00    -0.648 OA
ATOM     18  O2  DKA d          11.818  -3.928   2.121  0.00  0.00    -0.648 OA
ENDBRANCH  13  16
ENDBRANCH  10  13
ENDBRANCH   7  10
ENDBRANCH   4   7
ENDBRANCH   1   4
BRANCH   1  19
ATOM     19  C7  DKA d          13.991  -3.133  -0.417  0.00  0.00    -0.065 C 
ATOM     20  H11 DKA d          13.836  -3.556   0.586  0.00  0.00     0.033 H 
ATOM     21  H12 DKA d          14.545  -2.186  -0.334  0.00  0.00     0.033 H 
BRANCH  19  22
ATOM     22  C8  DKA d          14.787  -4.110  -1.258  0.00  0.00    -0.065 C 
ATOM     23  H13 DKA d          15.523  -3.547  -1.850  0.00  0.00     0.033 H 
ATOM     24  H14 DKA d          14.098  -4.637  -1.935  0.00  0.00     0.033 H 
BRANCH  22  25
ATOM     25  C9  DKA d          15.519  -5.132  -0.420  0.00  0.00    -0.069 C 
ATOM     26  H15 DKA d          16.077  -4.615   0.373  0.00  0.00     0.032 H 
ATOM     27  H16 DKA d          16.220  -5.688  -1.059  0.00  0.00     0.032 H 
BRANCH  25  28
ATOM     28  C10 DKA d          14.545  -6.103   0.211  0.00  0.00    -0.077 C 
ATOM     29  H17 DKA d          14.030  -5.613   1.050  0.00  0.00     0.027 H 
ATOM     30  H18 DKA d          15.093  -6.983   0.581  0.00  0.00     0.027 H 
ATOM     31  H19 DKA d          13.805  -6.420  -0.539  0.00  0.00     0.027 H 
ENDBRANCH  25  28
ENDBRANCH  22  25
ENDBRANCH  19  22
ENDBRANCH   1  19
TORSDOF 9
ENDMDL
