MODEL 1
REMARK VINA RESULT:      -4.6      0.000      0.000
REMARK  3 active torsions:
REMARK  status: ('A' for Active; 'I' for Inactive)
REMARK    1  A    between atoms: C1'_1  and  C2_7 
REMARK    2  A    between atoms: C2_7  and  C1_8 
REMARK    3  A    between atoms: C1_8  and  N_9 
ROOT
ATOM      1  C1' PEA d          45.858  20.174  50.805  0.00  0.00    -0.057 A 
ATOM      2  C6' PEA d          46.671  21.002  51.561  0.00  0.00    -0.077 A 
ATOM      3  C5' PEA d          46.939  22.317  51.216  0.00  0.00    -0.082 A 
ATOM      4  C4' PEA d          46.398  22.861  50.061  0.00  0.00    -0.083 A 
ATOM      5  C3' PEA d          45.597  22.041  49.287  0.00  0.00    -0.082 A 
ATOM      6  C2' PEA d          45.339  20.741  49.651  0.00  0.00    -0.077 A 
ATOM      7  H1  PEA d          47.119  20.602  52.463  0.00  0.00     0.084 H 
ATOM      8  H2  PEA d          47.573  22.923  51.852  0.00  0.00     0.083 H 
ATOM      9  H3  PEA d          46.595  23.889  49.776  0.00  0.00     0.083 H 
ATOM     10  H4  PEA d          45.164  22.432  48.374  0.00  0.00     0.083 H 
ATOM     11  H5  PEA d          44.707  20.136  49.012  0.00  0.00     0.084 H 
ENDROOT
BRANCH   1  12
ATOM     12  C2  PEA d          45.591  18.848  51.207  0.00  0.00    -0.019 C 
ATOM     13  H6  PEA d          46.372  18.188  50.801  0.00  0.00     0.042 H 
ATOM     14  H7  PEA d          44.611  18.545  50.810  0.00  0.00     0.042 H 
BRANCH  12  15
ATOM     15  C1  PEA d          45.571  18.713  52.760  0.00  0.00     0.083 C 
ATOM     16  H8  PEA d          44.561  18.950  53.126  0.00  0.00     0.075 H 
ATOM     17  H9  PEA d          46.293  19.423  53.190  0.00  0.00     0.075 H 
BRANCH  15  18
ATOM     18  N   PEA d          45.932  17.330  53.196  0.00  0.00    -0.079 N 
ATOM     19  H10 PEA d          45.804  16.691  52.427  0.00  0.00     0.274 HD
ATOM     20  H11 PEA d          45.340  17.054  53.963  0.00  0.00     0.274 HD
ATOM     21  H12 PEA d          46.896  17.311  53.492  0.00  0.00     0.274 HD
ENDBRANCH  15  18
ENDBRANCH  12  15
ENDBRANCH   1  12
TORSDOF 3
ENDMDL
MODEL 2
REMARK VINA RESULT:      -4.5      0.052      1.570
REMARK  3 active torsions:
REMARK  status: ('A' for Active; 'I' for Inactive)
REMARK    1  A    between atoms: C1'_1  and  C2_7 
REMARK    2  A    between atoms: C2_7  and  C1_8 
REMARK    3  A    between atoms: C1_8  and  N_9 
ROOT
ATOM      1  C1' PEA d          45.852  20.185  50.865  0.00  0.00    -0.057 A 
ATOM      2  C6' PEA d          45.342  20.710  49.690  0.00  0.00    -0.077 A 
ATOM      3  C5' PEA d          45.611  21.999  49.259  0.00  0.00    -0.082 A 
ATOM      4  C4' PEA d          46.411  22.838  50.020  0.00  0.00    -0.083 A 
ATOM      5  C3' PEA d          46.914  22.333  51.205  0.00  0.00    -0.082 A 
ATOM      6  C2' PEA d          46.640  21.048  51.610  0.00  0.00    -0.077 A 
ATOM      7  H1  PEA d          44.703  20.083  49.079  0.00  0.00     0.084 H 
ATOM      8  H2  PEA d          45.194  22.354  48.324  0.00  0.00     0.083 H 
ATOM      9  H3  PEA d          46.634  23.849  49.699  0.00  0.00     0.083 H 
ATOM     10  H4  PEA d          47.538  22.964  51.828  0.00  0.00     0.083 H 
ATOM     11  H5  PEA d          47.056  20.697  52.548  0.00  0.00     0.084 H 
ENDROOT
BRANCH   1  12
ATOM     12  C2  PEA d          45.573  18.857  51.253  0.00  0.00    -0.019 C 
ATOM     13  H6  PEA d          46.331  18.190  50.813  0.00  0.00     0.042 H 
ATOM     14  H7  PEA d          44.577  18.577  50.880  0.00  0.00     0.042 H 
BRANCH  12  15
ATOM     15  C1  PEA d          45.596  18.696  52.803  0.00  0.00     0.083 C 
ATOM     16  H8  PEA d          44.605  18.955  53.204  0.00  0.00     0.075 H 
ATOM     17  H9  PEA d          46.351  19.378  53.222  0.00  0.00     0.075 H 
BRANCH  15  18
ATOM     18  N   PEA d          45.931  17.296  53.206  0.00  0.00    -0.079 N 
ATOM     19  H10 PEA d          46.932  17.180  53.216  0.00  0.00     0.274 HD
ATOM     20  H11 PEA d          45.525  16.651  52.547  0.00  0.00     0.274 HD
ATOM     21  H12 PEA d          45.562  17.114  54.126  0.00  0.00     0.274 HD
ENDBRANCH  15  18
ENDBRANCH  12  15
ENDBRANCH   1  12
TORSDOF 3
ENDMDL
MODEL 3
REMARK VINA RESULT:      -4.5      1.518      1.538
REMARK  3 active torsions:
REMARK  status: ('A' for Active; 'I' for Inactive)
REMARK    1  A    between atoms: C1'_1  and  C2_7 
REMARK    2  A    between atoms: C2_7  and  C1_8 
REMARK    3  A    between atoms: C1_8  and  N_9 
ROOT
ATOM      1  C1' PEA d          44.940  20.353  51.093  0.00  0.00    -0.057 A 
ATOM      2  C6' PEA d          45.120  21.306  52.080  0.00  0.00    -0.077 A 
ATOM      3  C5' PEA d          44.641  22.601  51.976  0.00  0.00    -0.082 A 
ATOM      4  C4' PEA d          43.957  23.005  50.839  0.00  0.00    -0.083 A 
ATOM      5  C3' PEA d          43.784  22.069  49.837  0.00  0.00    -0.082 A 
ATOM      6  C2' PEA d          44.262  20.786  49.964  0.00  0.00    -0.077 A 
ATOM      7  H1  PEA d          45.661  21.025  52.976  0.00  0.00     0.084 H 
ATOM      8  H2  PEA d          44.801  23.303  52.787  0.00  0.00     0.083 H 
ATOM      9  H3  PEA d          43.574  24.015  50.740  0.00  0.00     0.083 H 
ATOM     10  H4  PEA d          43.260  22.352  48.931  0.00  0.00     0.083 H 
ATOM     11  H5  PEA d          44.103  20.087  49.151  0.00  0.00     0.084 H 
ENDROOT
BRANCH   1  12
ATOM     12  C2  PEA d          45.422  19.036  51.251  0.00  0.00    -0.019 C 
ATOM     13  H6  PEA d          46.357  18.927  50.682  0.00  0.00     0.042 H 
ATOM     14  H7  PEA d          44.671  18.332  50.864  0.00  0.00     0.042 H 
BRANCH  12  15
ATOM     15  C1  PEA d          45.700  18.704  52.749  0.00  0.00     0.083 C 
ATOM     16  H8  PEA d          44.920  19.170  53.369  0.00  0.00     0.075 H 
ATOM     17  H9  PEA d          46.683  19.112  53.029  0.00  0.00     0.075 H 
BRANCH  15  18
ATOM     18  N   PEA d          45.698  17.230  52.995  0.00  0.00    -0.079 N 
ATOM     19  H10 PEA d          45.757  17.055  53.986  0.00  0.00     0.274 HD
ATOM     20  H11 PEA d          46.490  16.812  52.533  0.00  0.00     0.274 HD
ATOM     21  H12 PEA d          44.847  16.830  52.632  0.00  0.00     0.274 HD
ENDBRANCH  15  18
ENDBRANCH  12  15
ENDBRANCH   1  12
TORSDOF 3
ENDMDL
MODEL 4
REMARK VINA RESULT:      -4.2      2.565      4.221
REMARK  3 active torsions:
REMARK  status: ('A' for Active; 'I' for Inactive)
REMARK    1  A    between atoms: C1'_1  and  C2_7 
REMARK    2  A    between atoms: C2_7  and  C1_8 
REMARK    3  A    between atoms: C1_8  and  N_9 
ROOT
ATOM      1  C1' PEA d          45.650  20.793  50.247  0.00  0.00    -0.057 A 
ATOM      2  C6' PEA d          44.946  19.613  50.086  0.00  0.00    -0.077 A 
ATOM      3  C5' PEA d          44.868  18.640  51.069  0.00  0.00    -0.082 A 
ATOM      4  C4' PEA d          45.523  18.813  52.279  0.00  0.00    -0.083 A 
ATOM      5  C3' PEA d          46.245  19.981  52.447  0.00  0.00    -0.082 A 
ATOM      6  C2' PEA d          46.304  20.936  51.461  0.00  0.00    -0.077 A 
ATOM      7  H1  PEA d          44.432  19.442  49.147  0.00  0.00     0.084 H 
ATOM      8  H2  PEA d          44.291  17.739  50.892  0.00  0.00     0.083 H 
ATOM      9  H3  PEA d          45.472  18.063  53.060  0.00  0.00     0.083 H 
ATOM     10  H4  PEA d          46.776  20.146  53.378  0.00  0.00     0.083 H 
ATOM     11  H5  PEA d          46.884  21.835  51.638  0.00  0.00     0.084 H 
ENDROOT
BRANCH   1  12
ATOM     12  C2  PEA d          45.682  21.769  49.228  0.00  0.00    -0.019 C 
ATOM     13  H6  PEA d          45.434  21.292  48.268  0.00  0.00     0.042 H 
ATOM     14  H7  PEA d          46.694  22.197  49.175  0.00  0.00     0.042 H 
BRANCH  12  15
ATOM     15  C1  PEA d          44.662  22.916  49.501  0.00  0.00     0.083 C 
ATOM     16  H8  PEA d          45.015  23.832  49.006  0.00  0.00     0.075 H 
ATOM     17  H9  PEA d          44.599  23.087  50.586  0.00  0.00     0.075 H 
BRANCH  15  18
ATOM     18  N   PEA d          43.302  22.577  48.983  0.00  0.00    -0.079 N 
ATOM     19  H10 PEA d          42.617  23.167  49.428  0.00  0.00     0.274 HD
ATOM     20  H11 PEA d          43.096  21.612  49.186  0.00  0.00     0.274 HD
ATOM     21  H12 PEA d          43.275  22.724  47.986  0.00  0.00     0.274 HD
ENDBRANCH  15  18
ENDBRANCH  12  15
ENDBRANCH   1  12
TORSDOF 3
ENDMDL
MODEL 5
REMARK VINA RESULT:      -3.9      2.142      3.742
REMARK  3 active torsions:
REMARK  status: ('A' for Active; 'I' for Inactive)
REMARK    1  A    between atoms: C1'_1  and  C2_7 
REMARK    2  A    between atoms: C2_7  and  C1_8 
REMARK    3  A    between atoms: C1_8  and  N_9 
ROOT
ATOM      1  C1' PEA d          46.236  21.006  51.271  0.00  0.00    -0.057 A 
ATOM      2  C6' PEA d          45.200  21.028  50.354  0.00  0.00    -0.077 A 
ATOM      3  C5' PEA d          44.327  19.967  50.175  0.00  0.00    -0.082 A 
ATOM      4  C4' PEA d          44.474  18.807  50.920  0.00  0.00    -0.083 A 
ATOM      5  C3' PEA d          45.515  18.764  51.828  0.00  0.00    -0.082 A 
ATOM      6  C2' PEA d          46.366  19.830  51.995  0.00  0.00    -0.077 A 
ATOM      7  H1  PEA d          45.066  21.916  49.748  0.00  0.00     0.084 H 
ATOM      8  H2  PEA d          43.525  20.044  49.449  0.00  0.00     0.083 H 
ATOM      9  H3  PEA d          43.799  17.967  50.794  0.00  0.00     0.083 H 
ATOM     10  H4  PEA d          45.664  17.869  52.422  0.00  0.00     0.083 H 
ATOM     11  H5  PEA d          47.169  19.750  52.719  0.00  0.00     0.084 H 
ENDROOT
BRANCH   1  12
ATOM     12  C2  PEA d          47.086  22.119  51.440  0.00  0.00    -0.019 C 
ATOM     13  H6  PEA d          46.718  22.948  50.817  0.00  0.00     0.042 H 
ATOM     14  H7  PEA d          48.103  21.844  51.121  0.00  0.00     0.042 H 
BRANCH  12  15
ATOM     15  C1  PEA d          47.132  22.586  52.927  0.00  0.00     0.083 C 
ATOM     16  H8  PEA d          47.808  23.449  53.009  0.00  0.00     0.075 H 
ATOM     17  H9  PEA d          47.512  21.761  53.548  0.00  0.00     0.075 H 
BRANCH  15  18
ATOM     18  N   PEA d          45.778  22.981  53.421  0.00  0.00    -0.079 N 
ATOM     19  H10 PEA d          45.123  22.237  53.237  0.00  0.00     0.274 HD
ATOM     20  H11 PEA d          45.478  23.817  52.945  0.00  0.00     0.274 HD
ATOM     21  H12 PEA d          45.819  23.154  54.413  0.00  0.00     0.274 HD
ENDBRANCH  15  18
ENDBRANCH  12  15
ENDBRANCH   1  12
TORSDOF 3
ENDMDL
MODEL 6
REMARK VINA RESULT:      -3.8      1.433      1.577
REMARK  3 active torsions:
REMARK  status: ('A' for Active; 'I' for Inactive)
REMARK    1  A    between atoms: C1'_1  and  C2_7 
REMARK    2  A    between atoms: C2_7  and  C1_8 
REMARK    3  A    between atoms: C1_8  and  N_9 
ROOT
ATOM      1  C1' PEA d          45.666  21.080  51.200  0.00  0.00    -0.057 A 
ATOM      2  C6' PEA d          44.798  21.911  51.886  0.00  0.00    -0.077 A 
ATOM      3  C5' PEA d          44.201  23.020  51.310  0.00  0.00    -0.082 A 
ATOM      4  C4' PEA d          44.470  23.355  49.992  0.00  0.00    -0.083 A 
ATOM      5  C3' PEA d          45.349  22.543  49.298  0.00  0.00    -0.082 A 
ATOM      6  C2' PEA d          45.926  21.443  49.887  0.00  0.00    -0.077 A 
ATOM      7  H1  PEA d          44.576  21.683  52.922  0.00  0.00     0.084 H 
ATOM      8  H2  PEA d          43.519  23.630  51.893  0.00  0.00     0.083 H 
ATOM      9  H3  PEA d          44.011  24.218  49.524  0.00  0.00     0.083 H 
ATOM     10  H4  PEA d          45.588  22.779  48.267  0.00  0.00     0.083 H 
ATOM     11  H5  PEA d          46.609  20.837  49.304  0.00  0.00     0.084 H 
ENDROOT
BRANCH   1  12
ATOM     12  C2  PEA d          46.232  19.944  51.818  0.00  0.00    -0.019 C 
ATOM     13  H6  PEA d          46.362  20.149  52.891  0.00  0.00     0.042 H 
ATOM     14  H7  PEA d          47.213  19.742  51.362  0.00  0.00     0.042 H 
BRANCH  12  15
ATOM     15  C1  PEA d          45.326  18.687  51.647  0.00  0.00     0.083 C 
ATOM     16  H8  PEA d          45.555  18.210  50.683  0.00  0.00     0.075 H 
ATOM     17  H9  PEA d          44.272  19.002  51.659  0.00  0.00     0.075 H 
BRANCH  15  18
ATOM     18  N   PEA d          45.549  17.696  52.744  0.00  0.00    -0.079 N 
ATOM     19  H10 PEA d          45.930  18.167  53.549  0.00  0.00     0.274 HD
ATOM     20  H11 PEA d          46.195  16.990  52.431  0.00  0.00     0.274 HD
ATOM     21  H12 PEA d          44.672  17.265  52.991  0.00  0.00     0.274 HD
ENDBRANCH  15  18
ENDBRANCH  12  15
ENDBRANCH   1  12
TORSDOF 3
ENDMDL
MODEL 7
REMARK VINA RESULT:      -3.8      2.718      3.897
REMARK  3 active torsions:
REMARK  status: ('A' for Active; 'I' for Inactive)
REMARK    1  A    between atoms: C1'_1  and  C2_7 
REMARK    2  A    between atoms: C2_7  and  C1_8 
REMARK    3  A    between atoms: C1_8  and  N_9 
ROOT
ATOM      1  C1' PEA d          45.491  21.073  52.116  0.00  0.00    -0.057 A 
ATOM      2  C6' PEA d          45.780  19.850  52.695  0.00  0.00    -0.077 A 
ATOM      3  C5' PEA d          45.369  18.642  52.155  0.00  0.00    -0.082 A 
ATOM      4  C4' PEA d          44.620  18.616  50.988  0.00  0.00    -0.083 A 
ATOM      5  C3' PEA d          44.311  19.832  50.406  0.00  0.00    -0.082 A 
ATOM      6  C2' PEA d          44.734  21.019  50.956  0.00  0.00    -0.077 A 
ATOM      7  H1  PEA d          46.353  19.836  53.615  0.00  0.00     0.084 H 
ATOM      8  H2  PEA d          45.634  17.713  52.646  0.00  0.00     0.083 H 
ATOM      9  H3  PEA d          44.291  17.681  50.549  0.00  0.00     0.083 H 
ATOM     10  H4  PEA d          43.721  19.849  49.496  0.00  0.00     0.083 H 
ATOM     11  H5  PEA d          44.465  21.947  50.465  0.00  0.00     0.084 H 
ENDROOT
BRANCH   1  12
ATOM     12  C2  PEA d          45.952  22.278  52.686  0.00  0.00    -0.019 C 
ATOM     13  H6  PEA d          46.967  22.485  52.313  0.00  0.00     0.042 H 
ATOM     14  H7  PEA d          45.979  22.168  53.781  0.00  0.00     0.042 H 
BRANCH  12  15
ATOM     15  C1  PEA d          45.024  23.477  52.321  0.00  0.00     0.083 C 
ATOM     16  H8  PEA d          44.519  23.259  51.369  0.00  0.00     0.075 H 
ATOM     17  H9  PEA d          45.638  24.383  52.212  0.00  0.00     0.075 H 
BRANCH  15  18
ATOM     18  N   PEA d          43.992  23.713  53.376  0.00  0.00    -0.079 N 
ATOM     19  H10 PEA d          43.101  23.890  52.939  0.00  0.00     0.274 HD
ATOM     20  H11 PEA d          44.256  24.510  53.932  0.00  0.00     0.274 HD
ATOM     21  H12 PEA d          43.921  22.899  53.966  0.00  0.00     0.274 HD
ENDBRANCH  15  18
ENDBRANCH  12  15
ENDBRANCH   1  12
TORSDOF 3
ENDMDL
MODEL 8
REMARK VINA RESULT:      -3.8      1.549      1.925
REMARK  3 active torsions:
REMARK  status: ('A' for Active; 'I' for Inactive)
REMARK    1  A    between atoms: C1'_1  and  C2_7 
REMARK    2  A    between atoms: C2_7  and  C1_8 
REMARK    3  A    between atoms: C1_8  and  N_9 
ROOT
ATOM      1  C1' PEA d          45.124  21.222  51.066  0.00  0.00    -0.057 A 
ATOM      2  C6' PEA d          46.475  21.450  50.874  0.00  0.00    -0.077 A 
ATOM      3  C5' PEA d          47.110  22.613  51.281  0.00  0.00    -0.082 A 
ATOM      4  C4' PEA d          46.389  23.624  51.899  0.00  0.00    -0.083 A 
ATOM      5  C3' PEA d          45.034  23.416  52.082  0.00  0.00    -0.082 A 
ATOM      6  C2' PEA d          44.426  22.252  51.677  0.00  0.00    -0.077 A 
ATOM      7  H1  PEA d          47.064  20.684  50.383  0.00  0.00     0.084 H 
ATOM      8  H2  PEA d          48.174  22.733  51.115  0.00  0.00     0.083 H 
ATOM      9  H3  PEA d          46.868  24.540  52.225  0.00  0.00     0.083 H 
ATOM     10  H4  PEA d          44.439  24.189  52.555  0.00  0.00     0.083 H 
ATOM     11  H5  PEA d          43.361  22.135  51.840  0.00  0.00     0.084 H 
ENDROOT
BRANCH   1  12
ATOM     12  C2  PEA d          44.523  20.011  50.659  0.00  0.00    -0.019 C 
ATOM     13  H6  PEA d          44.111  20.139  49.647  0.00  0.00     0.042 H 
ATOM     14  H7  PEA d          43.710  19.763  51.358  0.00  0.00     0.042 H 
BRANCH  12  15
ATOM     15  C1  PEA d          45.550  18.838  50.643  0.00  0.00     0.083 C 
ATOM     16  H8  PEA d          46.556  19.248  50.469  0.00  0.00     0.075 H 
ATOM     17  H9  PEA d          45.290  18.147  49.828  0.00  0.00     0.075 H 
BRANCH  15  18
ATOM     18  N   PEA d          45.549  18.088  51.936  0.00  0.00    -0.079 N 
ATOM     19  H10 PEA d          45.256  18.702  52.680  0.00  0.00     0.274 HD
ATOM     20  H11 PEA d          46.478  17.748  52.128  0.00  0.00     0.274 HD
ATOM     21  H12 PEA d          44.912  17.310  51.872  0.00  0.00     0.274 HD
ENDBRANCH  15  18
ENDBRANCH  12  15
ENDBRANCH   1  12
TORSDOF 3
ENDMDL
MODEL 9
REMARK VINA RESULT:      -3.7      2.644      4.186
REMARK  3 active torsions:
REMARK  status: ('A' for Active; 'I' for Inactive)
REMARK    1  A    between atoms: C1'_1  and  C2_7 
REMARK    2  A    between atoms: C2_7  and  C1_8 
REMARK    3  A    between atoms: C1_8  and  N_9 
ROOT
ATOM      1  C1' PEA d          45.852  21.826  50.286  0.00  0.00    -0.057 A 
ATOM      2  C6' PEA d          45.741  20.474  50.013  0.00  0.00    -0.077 A 
ATOM      3  C5' PEA d          45.742  19.501  51.000  0.00  0.00    -0.082 A 
ATOM      4  C4' PEA d          45.874  19.858  52.334  0.00  0.00    -0.083 A 
ATOM      5  C3' PEA d          46.002  21.205  52.621  0.00  0.00    -0.082 A 
ATOM      6  C2' PEA d          45.991  22.154  51.626  0.00  0.00    -0.077 A 
ATOM      7  H1  PEA d          45.649  20.161  48.979  0.00  0.00     0.084 H 
ATOM      8  H2  PEA d          45.641  18.457  50.729  0.00  0.00     0.083 H 
ATOM      9  H3  PEA d          45.876  19.111  53.120  0.00  0.00     0.083 H 
ATOM     10  H4  PEA d          46.113  21.519  53.652  0.00  0.00     0.083 H 
ATOM     11  H5  PEA d          46.096  23.198  51.899  0.00  0.00     0.084 H 
ENDROOT
BRANCH   1  12
ATOM     12  C2  PEA d          45.819  22.785  49.251  0.00  0.00    -0.019 C 
ATOM     13  H6  PEA d          45.960  22.275  48.287  0.00  0.00     0.042 H 
ATOM     14  H7  PEA d          46.635  23.507  49.408  0.00  0.00     0.042 H 
BRANCH  12  15
ATOM     15  C1  PEA d          44.463  23.553  49.225  0.00  0.00     0.083 C 
ATOM     16  H8  PEA d          44.487  24.292  48.410  0.00  0.00     0.075 H 
ATOM     17  H9  PEA d          44.326  24.070  50.186  0.00  0.00     0.075 H 
BRANCH  15  18
ATOM     18  N   PEA d          43.311  22.627  49.004  0.00  0.00    -0.079 N 
ATOM     19  H10 PEA d          42.569  23.120  48.531  0.00  0.00     0.274 HD
ATOM     20  H11 PEA d          42.976  22.289  49.892  0.00  0.00     0.274 HD
ATOM     21  H12 PEA d          43.609  21.847  48.438  0.00  0.00     0.274 HD
ENDBRANCH  15  18
ENDBRANCH  12  15
ENDBRANCH   1  12
TORSDOF 3
ENDMDL
MODEL 10
REMARK VINA RESULT:      -3.6      2.485      3.906
REMARK  3 active torsions:
REMARK  status: ('A' for Active; 'I' for Inactive)
REMARK    1  A    between atoms: C1'_1  and  C2_7 
REMARK    2  A    between atoms: C2_7  and  C1_8 
REMARK    3  A    between atoms: C1_8  and  N_9 
ROOT
ATOM      1  C1' PEA d          45.710  21.101  50.214  0.00  0.00    -0.057 A 
ATOM      2  C6' PEA d          46.000  21.357  51.543  0.00  0.00    -0.077 A 
ATOM      3  C5' PEA d          45.940  20.387  52.530  0.00  0.00    -0.082 A 
ATOM      4  C4' PEA d          45.561  19.091  52.214  0.00  0.00    -0.083 A 
ATOM      5  C3' PEA d          45.252  18.824  50.893  0.00  0.00    -0.082 A 
ATOM      6  C2' PEA d          45.325  19.800  49.928  0.00  0.00    -0.077 A 
ATOM      7  H1  PEA d          46.288  22.364  51.824  0.00  0.00     0.084 H 
ATOM      8  H2  PEA d          46.189  20.642  53.553  0.00  0.00     0.083 H 
ATOM      9  H3  PEA d          45.509  18.318  52.973  0.00  0.00     0.083 H 
ATOM     10  H4  PEA d          44.945  17.823  50.612  0.00  0.00     0.083 H 
ATOM     11  H5  PEA d          45.072  19.544  48.906  0.00  0.00     0.084 H 
ENDROOT
BRANCH   1  12
ATOM     12  C2  PEA d          45.810  22.114  49.236  0.00  0.00    -0.019 C 
ATOM     13  H6  PEA d          45.833  21.647  48.240  0.00  0.00     0.042 H 
ATOM     14  H7  PEA d          46.741  22.677  49.399  0.00  0.00     0.042 H 
BRANCH  12  15
ATOM     15  C1  PEA d          44.605  23.100  49.306  0.00  0.00     0.083 C 
ATOM     16  H8  PEA d          44.700  23.838  48.497  0.00  0.00     0.075 H 
ATOM     17  H9  PEA d          44.621  23.615  50.278  0.00  0.00     0.075 H 
BRANCH  15  18
ATOM     18  N   PEA d          43.300  22.384  49.158  0.00  0.00    -0.079 N 
ATOM     19  H10 PEA d          43.339  21.509  49.656  0.00  0.00     0.274 HD
ATOM     20  H11 PEA d          43.123  22.208  48.182  0.00  0.00     0.274 HD
ATOM     21  H12 PEA d          42.560  22.954  49.537  0.00  0.00     0.274 HD
ENDBRANCH  15  18
ENDBRANCH  12  15
ENDBRANCH   1  12
TORSDOF 3
ENDMDL
