REMARK  5 active torsions:
REMARK  status: ('A' for Active; 'I' for Inactive)
REMARK    1  A    between atoms: N19_3  and  C23_4 
REMARK    2  A    between atoms: C23_4  and  C24_5 
REMARK    3  A    between atoms: C10_20  and  C7_21 
REMARK    4  A    between atoms: C4_24  and  C3_27 
REMARK    5  A    between atoms: C3_27  and  N1_28 
ROOT
ATOM      1  O21 FSN d          16.695 -12.816  22.729  0.00  0.00    -0.272 OA
ATOM      2  C20 FSN d          17.409 -12.545  21.780  0.00  0.00     0.234 C 
ATOM      3  N19 FSN d          18.531 -13.329  21.430  0.00  0.00    -0.283 N 
ATOM      4  C17 FSN d          19.064 -12.906  20.178  0.00  0.00     0.233 C 
ATOM      5  O18 FSN d          20.042 -13.392  19.632  0.00  0.00    -0.272 OA
ATOM      6  C16 FSN d          18.245 -11.812  19.663  0.00  0.00     0.066 C 
ATOM      7  C15 FSN d          17.217 -12.198  18.600  0.00  0.00     0.117 C 
ATOM      8  N11 FSN d          15.799 -12.440  19.140  0.00  0.00    -0.057 N 
ATOM      9  C12 FSN d          14.969 -11.997  17.983  0.00  0.00     0.085 C 
ATOM     10  C13 FSN d          15.891 -12.193  16.736  0.00  0.00    -0.040 C 
ATOM     11  C14 FSN d          17.251 -11.672  17.223  0.00  0.00    -0.036 C 
ATOM     12  C10 FSN d          15.863 -11.337  20.194  0.00  0.00     0.142 C 
ATOM     13  C22 FSN d          17.247 -11.443  20.807  0.00  0.00     0.069 C 
ATOM     14  H7  FSN d          18.881 -10.977  19.336  0.00  0.00     0.059 H 
ATOM     15  H8  FSN d          17.545 -13.230  18.405  0.00  0.00     0.086 H 
ATOM     16  H9  FSN d          15.579 -13.361  19.484  0.00  0.00     0.281 HD
ATOM     17  H10 FSN d          14.684 -10.940  18.092  0.00  0.00     0.076 H 
ATOM     18  H11 FSN d          14.063 -12.615  17.896  0.00  0.00     0.076 H 
ATOM     19  H12 FSN d          15.527 -11.606  15.880  0.00  0.00     0.035 H 
ATOM     20  H13 FSN d          15.953 -13.254  16.454  0.00  0.00     0.035 H 
ATOM     21  H14 FSN d          18.086 -12.091  16.642  0.00  0.00     0.036 H 
ATOM     22  H15 FSN d          17.304 -10.573  17.202  0.00  0.00     0.036 H 
ATOM     23  H16 FSN d          15.865 -10.389  19.637  0.00  0.00     0.093 H 
ATOM     24  H25 FSN d          17.510 -10.484  21.277  0.00  0.00     0.059 H 
ENDROOT
BRANCH  12  25
ATOM     25  C7  FSN d          14.670 -11.204  21.092  0.00  0.00    -0.027 A 
ATOM     26  C8  FSN d          13.928 -12.350  21.361  0.00  0.00    -0.074 A 
ATOM     27  C9  FSN d          12.851 -12.291  22.235  0.00  0.00    -0.069 A 
ATOM     28  H17 FSN d          14.191 -13.289  20.888  0.00  0.00     0.084 H 
ATOM     29  C4  FSN d          12.524 -11.044  22.837  0.00  0.00     0.007 A 
ATOM     30  H18 FSN d          12.270 -13.179  22.455  0.00  0.00     0.085 H 
ATOM     31  C5  FSN d          13.270  -9.890  22.573  0.00  0.00    -0.069 A 
ATOM     32  C6  FSN d          14.356  -9.961  21.695  0.00  0.00    -0.074 A 
ATOM     33  H19 FSN d          13.008  -8.950  23.045  0.00  0.00     0.085 H 
ATOM     34  H20 FSN d          14.948  -9.079  21.479  0.00  0.00     0.084 H 
BRANCH  29  35
ATOM     35  C3  FSN d          11.383 -11.001  23.737  0.00  0.00     0.102 C 
ATOM     36  N2  FSN d          11.079  -9.910  24.485  0.00  0.00    -0.385 N 
ATOM     37  H23 FSN d          11.664  -9.065  24.424  0.00  0.00     0.157 HD
ATOM     38  H24 FSN d          10.263  -9.927  25.113  0.00  0.00     0.157 HD
BRANCH  35  39
ATOM     39  N1  FSN d          10.552 -12.064  23.887  0.00  0.00    -0.385 N 
ATOM     40  H21 FSN d           9.751 -12.005  24.532  0.00  0.00     0.157 HD
ATOM     41  H22 FSN d          10.722 -12.930  23.356  0.00  0.00     0.157 HD
ENDBRANCH  35  39
ENDBRANCH  29  35
ENDBRANCH  12  25
BRANCH   3  42
ATOM     42  C23 FSN d          18.867 -14.543  22.173  0.00  0.00     0.029 C 
ATOM     43  H1  FSN d          19.365 -15.256  21.499  0.00  0.00     0.072 H 
ATOM     44  H2  FSN d          17.945 -14.995  22.568  0.00  0.00     0.072 H 
BRANCH  42  45
ATOM     45  C24 FSN d          19.788 -14.211  23.315  0.00  0.00    -0.040 A 
ATOM     46  C32 FSN d          19.251 -14.080  24.610  0.00  0.00    -0.072 A 
ATOM     47  C31 FSN d          20.106 -13.806  25.677  0.00  0.00    -0.045 A 
ATOM     48  H3  FSN d          18.186 -14.191  24.776  0.00  0.00     0.084 H 
ATOM     49  C30 FSN d          21.475 -13.667  25.413  0.00  0.00     0.116 A 
ATOM     50  H4  FSN d          19.721 -13.703  26.685  0.00  0.00     0.088 H 
ATOM     51  F29 FSN d          22.247 -13.424  26.487  0.00  0.00    -0.206 F 
ATOM     52  C26 FSN d          22.058 -13.774  24.142  0.00  0.00    -0.045 A 
ATOM     53  C25 FSN d          21.174 -14.052  23.069  0.00  0.00    -0.072 A 
ATOM     54  H5  FSN d          23.124 -13.651  23.989  0.00  0.00     0.088 H 
ATOM     55  H6  FSN d          21.559 -14.143  22.060  0.00  0.00     0.084 H 
ENDBRANCH  42  45
ENDBRANCH   3  42
TORSDOF 5
