MODEL 1
REMARK VINA RESULT:     -10.9      0.000      0.000
REMARK  5 active torsions:
REMARK  status: ('A' for Active; 'I' for Inactive)
REMARK    1  A    between atoms: N19_3  and  C23_4 
REMARK    2  A    between atoms: C23_4  and  C24_5 
REMARK    3  A    between atoms: C10_20  and  C7_21 
REMARK    4  A    between atoms: C4_24  and  C3_27 
REMARK    5  A    between atoms: C3_27  and  N1_28 
ROOT
ATOM      1  O21 FSN d          16.780 -12.842  22.593  0.00  0.00    -0.272 OA
ATOM      2  C20 FSN d          17.520 -12.597  21.657  0.00  0.00     0.234 C 
ATOM      3  N19 FSN d          18.658 -13.384  21.367  0.00  0.00    -0.283 N 
ATOM      4  C17 FSN d          19.225 -12.998  20.118  0.00  0.00     0.233 C 
ATOM      5  O18 FSN d          20.223 -13.494  19.618  0.00  0.00    -0.272 OA
ATOM      6  C16 FSN d          18.415 -11.928  19.543  0.00  0.00     0.066 C 
ATOM      7  C15 FSN d          17.422 -12.356  18.463  0.00  0.00     0.117 C 
ATOM      8  N11 FSN d          15.990 -12.592  18.968  0.00  0.00    -0.057 N 
ATOM      9  C12 FSN d          15.192 -12.193  17.773  0.00  0.00     0.085 C 
ATOM     10  C13 FSN d          16.153 -12.423  16.561  0.00  0.00    -0.040 C 
ATOM     11  C14 FSN d          17.494 -11.876  17.071  0.00  0.00    -0.036 C 
ATOM     12  C10 FSN d          16.015 -11.454  19.987  0.00  0.00     0.142 C 
ATOM     13  C22 FSN d          17.380 -11.529  20.644  0.00  0.00     0.069 C 
ATOM     14  H7  FSN d          19.055 -11.099  19.208  0.00  0.00     0.059 H 
ATOM     15  H8  FSN d          17.763 -13.392  18.312  0.00  0.00     0.086 H 
ATOM     16  H9  FSN d          15.766 -13.502  19.336  0.00  0.00     0.281 HD
ATOM     17  H10 FSN d          14.897 -11.136  17.838  0.00  0.00     0.076 H 
ATOM     18  H11 FSN d          14.293 -12.821  17.680  0.00  0.00     0.076 H 
ATOM     19  H12 FSN d          15.811 -11.867  15.676  0.00  0.00     0.035 H 
ATOM     20  H13 FSN d          16.230 -13.492  16.317  0.00  0.00     0.035 H 
ATOM     21  H14 FSN d          18.349 -12.307  16.530  0.00  0.00     0.036 H 
ATOM     22  H15 FSN d          17.540 -10.778  17.015  0.00  0.00     0.036 H 
ATOM     23  H16 FSN d          16.027 -10.525  19.399  0.00  0.00     0.093 H 
ATOM     24  H25 FSN d          17.623 -10.553  21.090  0.00  0.00     0.059 H 
ENDROOT
BRANCH  12  25
ATOM     25  C7  FSN d          14.794 -11.301  20.844  0.00  0.00    -0.027 A 
ATOM     26  C8  FSN d          14.035 -12.438  21.102  0.00  0.00    -0.074 A 
ATOM     27  C9  FSN d          12.931 -12.360  21.940  0.00  0.00    -0.069 A 
ATOM     28  H17 FSN d          14.306 -13.384  20.650  0.00  0.00     0.084 H 
ATOM     29  C4  FSN d          12.594 -11.103  22.516  0.00  0.00     0.007 A 
ATOM     30  H18 FSN d          12.336 -13.240  22.152  0.00  0.00     0.085 H 
ATOM     31  C5  FSN d          13.358  -9.958  22.262  0.00  0.00    -0.069 A 
ATOM     32  C6  FSN d          14.471 -10.048  21.421  0.00  0.00    -0.074 A 
ATOM     33  H19 FSN d          13.088  -9.010  22.714  0.00  0.00     0.085 H 
ATOM     34  H20 FSN d          15.077  -9.173  21.214  0.00  0.00     0.084 H 
BRANCH  29  35
ATOM     35  C3  FSN d          11.425 -11.040  23.378  0.00  0.00     0.102 C 
ATOM     36  N2  FSN d          10.635 -12.116  23.622  0.00  0.00    -0.385 N 
ATOM     37  H23 FSN d          10.857 -13.025  23.194  0.00  0.00     0.157 HD
ATOM     38  H24 FSN d           9.813 -12.023  24.236  0.00  0.00     0.157 HD
BRANCH  35  39
ATOM     39  N1  FSN d          11.050  -9.887  23.988  0.00  0.00    -0.385 N 
ATOM     40  H21 FSN d          10.341  -9.906  24.736  0.00  0.00     0.157 HD
ATOM     41  H22 FSN d          11.473  -8.992  23.705  0.00  0.00     0.157 HD
ENDBRANCH  35  39
ENDBRANCH  29  35
ENDBRANCH  12  25
BRANCH   3  42
ATOM     42  C23 FSN d          18.979 -14.570  22.160  0.00  0.00     0.029 C 
ATOM     43  H1  FSN d          19.499 -15.302  21.524  0.00  0.00     0.072 H 
ATOM     44  H2  FSN d          18.049 -15.014  22.545  0.00  0.00     0.072 H 
BRANCH  42  45
ATOM     45  C24 FSN d          19.867 -14.194  23.314  0.00  0.00    -0.040 A 
ATOM     46  C32 FSN d          19.302 -14.065  24.597  0.00  0.00    -0.072 A 
ATOM     47  C31 FSN d          20.127 -13.750  25.676  0.00  0.00    -0.045 A 
ATOM     48  H3  FSN d          18.238 -14.208  24.745  0.00  0.00     0.084 H 
ATOM     49  C30 FSN d          21.496 -13.570  25.436  0.00  0.00     0.116 A 
ATOM     50  H4  FSN d          19.720 -13.647  26.676  0.00  0.00     0.088 H 
ATOM     51  F29 FSN d          22.239 -13.289  26.521  0.00  0.00    -0.206 F 
ATOM     52  C26 FSN d          22.106 -13.673  24.178  0.00  0.00    -0.045 A 
ATOM     53  C25 FSN d          21.252 -13.993  23.092  0.00  0.00    -0.072 A 
ATOM     54  H5  FSN d          23.170 -13.518  24.043  0.00  0.00     0.088 H 
ATOM     55  H6  FSN d          21.659 -14.084  22.092  0.00  0.00     0.084 H 
ENDBRANCH  42  45
ENDBRANCH   3  42
TORSDOF 5
ENDMDL
MODEL 2
REMARK VINA RESULT:      -8.5      3.088      7.079
REMARK  5 active torsions:
REMARK  status: ('A' for Active; 'I' for Inactive)
REMARK    1  A    between atoms: N19_3  and  C23_4 
REMARK    2  A    between atoms: C23_4  and  C24_5 
REMARK    3  A    between atoms: C10_20  and  C7_21 
REMARK    4  A    between atoms: C4_24  and  C3_27 
REMARK    5  A    between atoms: C3_27  and  N1_28 
ROOT
ATOM      1  O21 FSN d          16.438 -11.829  21.771  0.00  0.00    -0.272 OA
ATOM      2  C20 FSN d          15.936 -11.904  20.664  0.00  0.00     0.234 C 
ATOM      3  N19 FSN d          14.932 -11.012  20.227  0.00  0.00    -0.283 N 
ATOM      4  C17 FSN d          14.668 -11.199  18.839  0.00  0.00     0.233 C 
ATOM      5  O18 FSN d          13.840 -10.577  18.192  0.00  0.00    -0.272 OA
ATOM      6  C16 FSN d          15.554 -12.241  18.327  0.00  0.00     0.066 C 
ATOM      7  C15 FSN d          16.793 -11.750  17.579  0.00  0.00     0.117 C 
ATOM      8  N11 FSN d          18.068 -11.678  18.433  0.00  0.00    -0.057 N 
ATOM      9  C12 FSN d          19.116 -11.977  17.414  0.00  0.00     0.085 C 
ATOM     10  C13 FSN d          18.484 -11.533  16.055  0.00  0.00    -0.040 C 
ATOM     11  C14 FSN d          17.041 -12.046  16.157  0.00  0.00    -0.036 C 
ATOM     12  C10 FSN d          17.757 -12.930  19.250  0.00  0.00     0.142 C 
ATOM     13  C22 FSN d          16.277 -12.844  19.574  0.00  0.00     0.069 C 
ATOM     14  H7  FSN d          14.984 -12.976  17.741  0.00  0.00     0.059 H 
ATOM     15  H8  FSN d          16.536 -10.683  17.497  0.00  0.00     0.086 H 
ATOM     16  H9  FSN d          18.230 -10.838  18.965  0.00  0.00     0.281 HD
ATOM     17  H10 FSN d          19.348 -13.053  17.401  0.00  0.00     0.076 H 
ATOM     18  H11 FSN d          20.033 -11.406  17.621  0.00  0.00     0.076 H 
ATOM     19  H12 FSN d          19.009 -11.995  15.206  0.00  0.00     0.035 H 
ATOM     20  H13 FSN d          18.507 -10.438  15.949  0.00  0.00     0.035 H 
ATOM     21  H14 FSN d          16.358 -11.493  15.495  0.00  0.00     0.036 H 
ATOM     22  H15 FSN d          16.969 -13.123  15.941  0.00  0.00     0.036 H 
ATOM     23  H16 FSN d          17.853 -13.775  18.554  0.00  0.00     0.093 H 
ATOM     24  H25 FSN d          15.899 -13.849  19.812  0.00  0.00     0.059 H 
ENDROOT
BRANCH  12  25
ATOM     25  C7  FSN d          18.729 -13.272  20.340  0.00  0.00    -0.027 A 
ATOM     26  C8  FSN d          18.484 -14.416  21.093  0.00  0.00    -0.074 A 
ATOM     27  C9  FSN d          19.386 -14.809  22.073  0.00  0.00    -0.069 A 
ATOM     28  H17 FSN d          17.588 -15.000  20.916  0.00  0.00     0.084 H 
ATOM     29  C4  FSN d          20.550 -14.020  22.289  0.00  0.00     0.007 A 
ATOM     30  H18 FSN d          19.207 -15.701  22.662  0.00  0.00     0.085 H 
ATOM     31  C5  FSN d          20.803 -12.872  21.530  0.00  0.00    -0.069 A 
ATOM     32  C6  FSN d          19.891 -12.487  20.543  0.00  0.00    -0.074 A 
ATOM     33  H19 FSN d          21.698 -12.286  21.707  0.00  0.00     0.085 H 
ATOM     34  H20 FSN d          20.069 -11.602  19.943  0.00  0.00     0.084 H 
BRANCH  29  35
ATOM     35  C3  FSN d          21.474 -14.441  23.330  0.00  0.00     0.102 C 
ATOM     36  N2  FSN d          22.681 -13.851  23.522  0.00  0.00    -0.385 N 
ATOM     37  H23 FSN d          22.972 -13.068  22.921  0.00  0.00     0.157 HD
ATOM     38  H24 FSN d          23.305 -14.186  24.270  0.00  0.00     0.157 HD
BRANCH  35  39
ATOM     39  N1  FSN d          21.181 -15.464  24.173  0.00  0.00    -0.385 N 
ATOM     40  H21 FSN d          21.167 -16.432  23.823  0.00  0.00     0.157 HD
ATOM     41  H22 FSN d          20.972 -15.272  25.163  0.00  0.00     0.157 HD
ENDBRANCH  35  39
ENDBRANCH  29  35
ENDBRANCH  12  25
BRANCH   3  42
ATOM     42  C23 FSN d          14.472  -9.915  21.077  0.00  0.00     0.029 C 
ATOM     43  H1  FSN d          14.074  -9.106  20.446  0.00  0.00     0.072 H 
ATOM     44  H2  FSN d          15.318  -9.534  21.670  0.00  0.00     0.072 H 
BRANCH  42  45
ATOM     45  C24 FSN d          13.392 -10.399  22.005  0.00  0.00    -0.040 A 
ATOM     46  C32 FSN d          12.946 -11.730  21.899  0.00  0.00    -0.072 A 
ATOM     47  C31 FSN d          11.969 -12.193  22.780  0.00  0.00    -0.045 A 
ATOM     48  H3  FSN d          13.357 -12.388  21.143  0.00  0.00     0.084 H 
ATOM     49  C30 FSN d          11.464 -11.306  23.739  0.00  0.00     0.116 A 
ATOM     50  H4  FSN d          11.609 -13.214  22.724  0.00  0.00     0.088 H 
ATOM     51  F29 FSN d          10.541 -11.820  24.570  0.00  0.00    -0.206 F 
ATOM     52  C26 FSN d          11.864  -9.968  23.878  0.00  0.00    -0.045 A 
ATOM     53  C25 FSN d          12.857  -9.514  22.974  0.00  0.00    -0.072 A 
ATOM     54  H5  FSN d          11.437  -9.319  24.633  0.00  0.00     0.088 H 
ATOM     55  H6  FSN d          13.207  -8.490  23.024  0.00  0.00     0.084 H 
ENDBRANCH  42  45
ENDBRANCH   3  42
TORSDOF 5
ENDMDL
MODEL 3
REMARK VINA RESULT:      -8.1      3.135      6.936
REMARK  5 active torsions:
REMARK  status: ('A' for Active; 'I' for Inactive)
REMARK    1  A    between atoms: N19_3  and  C23_4 
REMARK    2  A    between atoms: C23_4  and  C24_5 
REMARK    3  A    between atoms: C10_20  and  C7_21 
REMARK    4  A    between atoms: C4_24  and  C3_27 
REMARK    5  A    between atoms: C3_27  and  N1_28 
ROOT
ATOM      1  O21 FSN d          16.409 -12.303  22.138  0.00  0.00    -0.272 OA
ATOM      2  C20 FSN d          16.416 -12.288  20.920  0.00  0.00     0.234 C 
ATOM      3  N19 FSN d          15.740 -11.298  20.173  0.00  0.00    -0.283 N 
ATOM      4  C17 FSN d          16.073 -11.401  18.792  0.00  0.00     0.233 C 
ATOM      5  O18 FSN d          15.629 -10.685  17.908  0.00  0.00    -0.272 OA
ATOM      6  C16 FSN d          17.032 -12.489  18.619  0.00  0.00     0.066 C 
ATOM      7  C15 FSN d          18.496 -12.068  18.492  0.00  0.00     0.117 C 
ATOM      8  N11 FSN d          19.297 -12.139  19.802  0.00  0.00    -0.057 N 
ATOM      9  C12 FSN d          20.657 -12.478  19.291  0.00  0.00     0.085 C 
ATOM     10  C13 FSN d          20.681 -11.923  17.830  0.00  0.00    -0.040 C 
ATOM     11  C14 FSN d          19.302 -12.321  17.284  0.00  0.00    -0.036 C 
ATOM     12  C10 FSN d          18.602 -13.396  20.320  0.00  0.00     0.142 C 
ATOM     13  C22 FSN d          17.130 -13.204  20.004  0.00  0.00     0.069 C 
ATOM     14  H7  FSN d          16.721 -13.148  17.795  0.00  0.00     0.059 H 
ATOM     15  H8  FSN d          18.358 -10.981  18.391  0.00  0.00     0.086 H 
ATOM     16  H9  FSN d          19.267 -11.339  20.413  0.00  0.00     0.281 HD
ATOM     17  H10 FSN d          20.812 -13.567  19.295  0.00  0.00     0.076 H 
ATOM     18  H11 FSN d          21.432 -11.993  19.902  0.00  0.00     0.076 H 
ATOM     19  H12 FSN d          21.487 -12.389  17.244  0.00  0.00     0.035 H 
ATOM     20  H13 FSN d          20.807 -10.831  17.824  0.00  0.00     0.035 H 
ATOM     21  H14 FSN d          18.992 -11.685  16.441  0.00  0.00     0.036 H 
ATOM     22  H15 FSN d          19.268 -13.377  16.978  0.00  0.00     0.036 H 
ATOM     23  H16 FSN d          18.934 -14.214  19.666  0.00  0.00     0.093 H 
ATOM     24  H25 FSN d          16.632 -14.184  19.988  0.00  0.00     0.059 H 
ENDROOT
BRANCH  12  25
ATOM     25  C7  FSN d          19.005 -13.864  21.686  0.00  0.00    -0.027 A 
ATOM     26  C8  FSN d          19.820 -13.030  22.445  0.00  0.00    -0.074 A 
ATOM     27  C9  FSN d          20.171 -13.391  23.739  0.00  0.00    -0.069 A 
ATOM     28  H17 FSN d          20.181 -12.098  22.026  0.00  0.00     0.084 H 
ATOM     29  C4  FSN d          19.688 -14.623  24.262  0.00  0.00     0.007 A 
ATOM     30  H18 FSN d          20.801 -12.746  24.340  0.00  0.00     0.085 H 
ATOM     31  C5  FSN d          18.864 -15.463  23.504  0.00  0.00    -0.069 A 
ATOM     32  C6  FSN d          18.513 -15.088  22.203  0.00  0.00    -0.074 A 
ATOM     33  H19 FSN d          18.502 -16.395  23.921  0.00  0.00     0.085 H 
ATOM     34  H20 FSN d          17.874 -15.723  21.601  0.00  0.00     0.084 H 
BRANCH  29  35
ATOM     35  C3  FSN d          20.080 -14.989  25.613  0.00  0.00     0.102 C 
ATOM     36  N2  FSN d          19.182 -15.352  26.564  0.00  0.00    -0.385 N 
ATOM     37  H23 FSN d          18.178 -15.381  26.340  0.00  0.00     0.157 HD
ATOM     38  H24 FSN d          19.506 -15.598  27.510  0.00  0.00     0.157 HD
BRANCH  35  39
ATOM     39  N1  FSN d          21.379 -14.982  26.006  0.00  0.00    -0.385 N 
ATOM     40  H21 FSN d          21.729 -15.713  26.642  0.00  0.00     0.157 HD
ATOM     41  H22 FSN d          22.015 -14.246  25.668  0.00  0.00     0.157 HD
ENDBRANCH  35  39
ENDBRANCH  29  35
ENDBRANCH  12  25
BRANCH   3  42
ATOM     42  C23 FSN d          15.027 -10.206  20.835  0.00  0.00     0.029 C 
ATOM     43  H1  FSN d          14.758  -9.443  20.089  0.00  0.00     0.072 H 
ATOM     44  H2  FSN d          15.679  -9.757  21.600  0.00  0.00     0.072 H 
BRANCH  42  45
ATOM     45  C24 FSN d          13.777 -10.726  21.489  0.00  0.00    -0.040 A 
ATOM     46  C32 FSN d          13.194 -11.913  21.002  0.00  0.00    -0.072 A 
ATOM     47  C31 FSN d          12.055 -12.417  21.627  0.00  0.00    -0.045 A 
ATOM     48  H3  FSN d          13.627 -12.427  20.153  0.00  0.00     0.084 H 
ATOM     49  C30 FSN d          11.529 -11.715  22.720  0.00  0.00     0.116 A 
ATOM     50  H4  FSN d          11.587 -13.330  21.276  0.00  0.00     0.088 H 
ATOM     51  F29 FSN d          10.442 -12.265  23.290  0.00  0.00    -0.206 F 
ATOM     52  C26 FSN d          12.062 -10.524  23.234  0.00  0.00    -0.045 A 
ATOM     53  C25 FSN d          13.220 -10.025  22.586  0.00  0.00    -0.072 A 
ATOM     54  H5  FSN d          11.613 -10.014  24.079  0.00  0.00     0.088 H 
ATOM     55  H6  FSN d          13.679  -9.106  22.931  0.00  0.00     0.084 H 
ENDBRANCH  42  45
ENDBRANCH   3  42
TORSDOF 5
ENDMDL
