REMARK  17 active torsions:
REMARK  status: ('A' for Active; 'I' for Inactive)
REMARK    1  A    between atoms: CBD_3  and  OAI_4 
REMARK    2  A    between atoms: CBF_7  and  CAV_8 
REMARK    3  A    between atoms: CAV_8  and  CBI_9 
REMARK    4  A    between atoms: CBI_9  and  PBK_10 
REMARK    5  A    between atoms: CBI_9  and  NAY_14 
REMARK       I    between atoms: NAY_14  and  C_15 
REMARK    6  A    between atoms: C_15  and  CA_17 
REMARK    7  A    between atoms: CA_17  and  N_18 
REMARK    8  A    between atoms: CA_17  and  CB_30 
REMARK       I    between atoms: N_18  and  CBB_19 
REMARK    9  A    between atoms: CBB_19  and  CBJ_21 
REMARK   10  A    between atoms: CBJ_21  and  CBG_22 
REMARK   11  A    between atoms: CBJ_21  and  NAX_26 
REMARK   12  A    between atoms: CBG_22  and  CAC_23 
REMARK   13  A    between atoms: CBG_22  and  CAT_24 
REMARK   14  A    between atoms: CAT_24  and  CAA_25 
REMARK       I    between atoms: NAX_26  and  CAZ_27 
REMARK   15  A    between atoms: CAZ_27  and  CAB_28 
REMARK   16  A    between atoms: CB_30  and  CG_31 
REMARK   17  A    between atoms: CZ_34  and  OH_35 
ROOT
ATOM      1  CA  K26 d         -10.121  23.121 -13.127  0.00  0.00     0.093 C 
ATOM      2  H10 K26 d         -10.313  24.173 -13.385  0.00  0.00     0.088 H 
ENDROOT
BRANCH   1   3
ATOM      3  C   K26 d         -10.948  22.761 -11.890  0.00  0.00     0.241 C 
ATOM      4  NAY K26 d         -12.132  23.372 -11.798  0.00  0.00    -0.342 N 
ATOM      5  H9  K26 d         -12.440  23.945 -12.557  0.00  0.00     0.163 HD
ATOM      6  O   K26 d         -10.487  21.987 -11.050  0.00  0.00    -0.271 OA
BRANCH   4   7
ATOM      7  CBI K26 d         -13.000  23.231 -10.617  0.00  0.00     0.124 C 
ATOM      8  H8  K26 d         -12.541  22.514  -9.920  0.00  0.00     0.095 H 
BRANCH   7   9
ATOM      9  CAV K26 d         -13.085  24.610  -9.923  0.00  0.00    -0.010 C 
ATOM     10  H6  K26 d         -13.677  25.290 -10.553  0.00  0.00     0.044 H 
ATOM     11  H7  K26 d         -13.580  24.489  -8.948  0.00  0.00     0.044 H 
BRANCH   9  12
ATOM     12  CBF K26 d         -11.692  25.221  -9.702  0.00  0.00    -0.055 A 
ATOM     13  CAR K26 d         -11.004  24.947  -8.522  0.00  0.00    -0.074 A 
ATOM     14  CAN K26 d          -9.736  25.480  -8.306  0.00  0.00    -0.051 A 
ATOM     15  H1  K26 d         -11.459  24.315  -7.768  0.00  0.00     0.084 H 
ATOM     16  CBD K26 d          -9.148  26.292  -9.276  0.00  0.00     0.065 A 
ATOM     17  H2  K26 d          -9.206  25.264  -7.385  0.00  0.00     0.087 H 
ATOM     18  CAO K26 d          -9.824  26.567 -10.469  0.00  0.00    -0.051 A 
ATOM     19  CAS K26 d         -11.096  26.033 -10.677  0.00  0.00    -0.074 A 
ATOM     20  H4  K26 d          -9.363  27.191 -11.226  0.00  0.00     0.087 H 
ATOM     21  H5  K26 d         -11.627  26.247 -11.598  0.00  0.00     0.084 H 
BRANCH  16  22
ATOM     22  OAI K26 d          -7.909  26.807  -9.049  0.00  0.00    -0.361 OA
ATOM     23  H3  K26 d          -7.645  27.334  -9.794  0.00  0.00     0.217 HD
ENDBRANCH  16  22
ENDBRANCH   9  12
ENDBRANCH   7   9
BRANCH   7  24
ATOM     24  PBK K26 d         -14.658  22.583 -11.094  0.00  0.00     0.283 P 
ATOM     25  OAJ K26 d         -14.455  21.038 -11.373  0.00  0.00    -0.638 OA
ATOM     26  OAK K26 d         -15.533  22.739  -9.726  0.00  0.00    -0.638 OA
ATOM     27  OAG K26 d         -15.253  23.291 -12.259  0.00  0.00    -0.638 OA
ENDBRANCH   7  24
ENDBRANCH   4   7
ENDBRANCH   1   3
BRANCH   1  28
ATOM     28  N   K26 d          -8.688  22.953 -12.810  0.00  0.00    -0.346 N 
ATOM     29  CBB K26 d          -7.793  23.949 -12.816  0.00  0.00     0.241 C 
ATOM     30  OAF K26 d          -8.045  25.118 -13.111  0.00  0.00    -0.271 OA
ATOM     31  H11 K26 d          -8.365  22.036 -12.576  0.00  0.00     0.163 HD
BRANCH  29  32
ATOM     32  CBJ K26 d          -6.351  23.514 -12.501  0.00  0.00     0.092 C 
ATOM     33  H12 K26 d          -6.341  22.429 -12.322  0.00  0.00     0.088 H 
BRANCH  32  34
ATOM     34  CBG K26 d          -5.785  24.195 -11.249  0.00  0.00    -0.030 C 
ATOM     35  H13 K26 d          -5.869  25.285 -11.375  0.00  0.00     0.043 H 
BRANCH  34  36
ATOM     36  CAC K26 d          -6.595  23.779 -10.015  0.00  0.00    -0.071 C 
ATOM     37  H14 K26 d          -6.182  24.272  -9.122  0.00  0.00     0.028 H 
ATOM     38  H15 K26 d          -6.539  22.688  -9.890  0.00  0.00     0.028 H 
ATOM     39  H16 K26 d          -7.645  24.079 -10.147  0.00  0.00     0.028 H 
ENDBRANCH  34  36
BRANCH  34  40
ATOM     40  CAT K26 d          -4.302  23.840 -11.053  0.00  0.00    -0.063 C 
ATOM     41  H17 K26 d          -3.844  23.684 -12.041  0.00  0.00     0.033 H 
ATOM     42  H18 K26 d          -4.237  22.911 -10.468  0.00  0.00     0.033 H 
BRANCH  40  43
ATOM     43  CAA K26 d          -3.527  24.935 -10.321  0.00  0.00    -0.076 C 
ATOM     44  H19 K26 d          -2.477  24.628 -10.209  0.00  0.00     0.027 H 
ATOM     45  H20 K26 d          -3.970  25.096  -9.327  0.00  0.00     0.027 H 
ATOM     46  H21 K26 d          -3.577  25.869 -10.900  0.00  0.00     0.027 H 
ENDBRANCH  40  43
ENDBRANCH  34  40
ENDBRANCH  32  34
BRANCH  32  47
ATOM     47  NAX K26 d          -5.549  23.805 -13.706  0.00  0.00    -0.348 N 
ATOM     48  CAZ K26 d          -4.852  22.860 -14.340  0.00  0.00     0.214 C 
ATOM     49  OAD K26 d          -4.759  21.695 -13.958  0.00  0.00    -0.274 OA
ATOM     50  H22 K26 d          -5.527  24.741 -14.059  0.00  0.00     0.163 HD
BRANCH  48  51
ATOM     51  CAB K26 d          -4.114  23.323 -15.598  0.00  0.00    -0.003 C 
ATOM     52  H23 K26 d          -3.575  22.473 -16.041  0.00  0.00     0.040 H 
ATOM     53  H24 K26 d          -3.397  24.114 -15.332  0.00  0.00     0.040 H 
ATOM     54  H25 K26 d          -4.840  23.716 -16.325  0.00  0.00     0.040 H 
ENDBRANCH  48  51
ENDBRANCH  32  47
ENDBRANCH  29  32
ENDBRANCH   1  28
BRANCH   1  55
ATOM     55  CB  K26 d         -10.478  22.255 -14.328  0.00  0.00    -0.014 C 
ATOM     56  H26 K26 d         -11.571  22.215 -14.443  0.00  0.00     0.043 H 
ATOM     57  H27 K26 d         -10.088  21.237 -14.179  0.00  0.00     0.043 H 
BRANCH  55  58
ATOM     58  CG  K26 d          -9.848  22.870 -15.588  0.00  0.00    -0.056 A 
ATOM     59  CD1 K26 d         -10.621  23.658 -16.438  0.00  0.00    -0.074 A 
ATOM     60  CE1 K26 d         -10.049  24.233 -17.576  0.00  0.00    -0.051 A 
ATOM     61  H28 K26 d         -11.669  23.826 -16.216  0.00  0.00     0.084 H 
ATOM     62  CZ  K26 d          -8.700  24.022 -17.865  0.00  0.00     0.065 A 
ATOM     63  H29 K26 d         -10.654  24.844 -18.236  0.00  0.00     0.087 H 
ATOM     64  CE2 K26 d          -7.926  23.238 -17.010  0.00  0.00    -0.051 A 
ATOM     65  CD2 K26 d          -8.496  22.666 -15.870  0.00  0.00    -0.074 A 
ATOM     66  H31 K26 d          -6.878  23.072 -17.231  0.00  0.00     0.087 H 
ATOM     67  H32 K26 d          -7.888  22.064 -15.204  0.00  0.00     0.084 H 
BRANCH  62  68
ATOM     68  OH  K26 d          -8.146  24.577 -18.986  0.00  0.00    -0.361 OA
ATOM     69  H30 K26 d          -7.228  24.339 -19.035  0.00  0.00     0.217 HD
ENDBRANCH  62  68
ENDBRANCH  55  58
ENDBRANCH   1  55
TORSDOF 17
