MODEL 1
REMARK VINA RESULT:      -8.2      0.000      0.000
REMARK  17 active torsions:
REMARK  status: ('A' for Active; 'I' for Inactive)
REMARK    1  A    between atoms: CBD_3  and  OAI_4 
REMARK    2  A    between atoms: CBF_7  and  CAV_8 
REMARK    3  A    between atoms: CAV_8  and  CBI_9 
REMARK    4  A    between atoms: CBI_9  and  PBK_10 
REMARK    5  A    between atoms: CBI_9  and  NAY_14 
REMARK       I    between atoms: NAY_14  and  C_15 
REMARK    6  A    between atoms: C_15  and  CA_17 
REMARK    7  A    between atoms: CA_17  and  N_18 
REMARK    8  A    between atoms: CA_17  and  CB_30 
REMARK       I    between atoms: N_18  and  CBB_19 
REMARK    9  A    between atoms: CBB_19  and  CBJ_21 
REMARK   10  A    between atoms: CBJ_21  and  CBG_22 
REMARK   11  A    between atoms: CBJ_21  and  NAX_26 
REMARK   12  A    between atoms: CBG_22  and  CAC_23 
REMARK   13  A    between atoms: CBG_22  and  CAT_24 
REMARK   14  A    between atoms: CAT_24  and  CAA_25 
REMARK       I    between atoms: NAX_26  and  CAZ_27 
REMARK   15  A    between atoms: CAZ_27  and  CAB_28 
REMARK   16  A    between atoms: CB_30  and  CG_31 
REMARK   17  A    between atoms: CZ_34  and  OH_35 
ROOT
ATOM      1  CA  K26 d          -9.360  23.261 -13.467  0.00  0.00     0.093 C 
ATOM      2  H10 K26 d          -9.478  24.315 -13.761  0.00  0.00     0.088 H 
ENDROOT
BRANCH   1   3
ATOM      3  C   K26 d         -10.276  22.979 -12.273  0.00  0.00     0.241 C 
ATOM      4  NAY K26 d         -11.078  23.986 -11.919  0.00  0.00    -0.342 N 
ATOM      5  H9  K26 d         -11.098  24.810 -12.486  0.00  0.00     0.163 HD
ATOM      6  O   K26 d         -10.206  21.895 -11.692  0.00  0.00    -0.271 OA
BRANCH   4   7
ATOM      7  CBI K26 d         -11.935  23.926 -10.724  0.00  0.00     0.124 C 
ATOM      8  H8  K26 d         -11.503  23.209 -10.010  0.00  0.00     0.095 H 
BRANCH   7   9
ATOM      9  CAV K26 d         -11.941  25.328 -10.073  0.00  0.00    -0.010 C 
ATOM     10  H6  K26 d         -12.229  26.072 -10.830  0.00  0.00     0.044 H 
ATOM     11  H7  K26 d         -12.673  25.338  -9.252  0.00  0.00     0.044 H 
BRANCH   9  12
ATOM     12  CBF K26 d         -10.559  25.699  -9.511  0.00  0.00    -0.055 A 
ATOM     13  CAR K26 d         -10.091  25.059  -8.366  0.00  0.00    -0.074 A 
ATOM     14  CAN K26 d          -8.837  25.370  -7.847  0.00  0.00    -0.051 A 
ATOM     15  H1  K26 d         -10.708  24.313  -7.876  0.00  0.00     0.084 H 
ATOM     16  CBD K26 d          -8.042  26.327  -8.476  0.00  0.00     0.065 A 
ATOM     17  H2  K26 d          -8.480  24.869  -6.954  0.00  0.00     0.087 H 
ATOM     18  CAO K26 d          -8.495  26.971  -9.632  0.00  0.00    -0.051 A 
ATOM     19  CAS K26 d          -9.754  26.657 -10.145  0.00  0.00    -0.074 A 
ATOM     20  H4  K26 d          -7.873  27.708 -10.126  0.00  0.00     0.087 H 
ATOM     21  H5  K26 d         -10.113  27.156 -11.038  0.00  0.00     0.084 H 
BRANCH  16  22
ATOM     22  OAI K26 d          -6.820  26.622  -7.955  0.00  0.00    -0.361 OA
ATOM     23  H3  K26 d          -6.401  27.286  -8.490  0.00  0.00     0.217 HD
ENDBRANCH  16  22
ENDBRANCH   9  12
ENDBRANCH   7   9
BRANCH   7  24
ATOM     24  PBK K26 d         -13.630  23.348 -11.159  0.00  0.00     0.283 P 
ATOM     25  OAJ K26 d         -13.647  21.793 -10.863  0.00  0.00    -0.638 OA
ATOM     26  OAK K26 d         -14.576  24.084 -10.052  0.00  0.00    -0.638 OA
ATOM     27  OAG K26 d         -14.014  23.657 -12.562  0.00  0.00    -0.638 OA
ENDBRANCH   7  24
ENDBRANCH   4   7
ENDBRANCH   1   3
BRANCH   1  28
ATOM     28  N   K26 d          -7.959  23.025 -13.062  0.00  0.00    -0.346 N 
ATOM     29  CBB K26 d          -7.115  23.989 -12.671  0.00  0.00     0.241 C 
ATOM     30  OAF K26 d          -7.391  25.189 -12.627  0.00  0.00    -0.271 OA
ATOM     31  H11 K26 d          -7.618  22.085 -13.080  0.00  0.00     0.163 HD
BRANCH  29  32
ATOM     32  CBJ K26 d          -5.693  23.500 -12.347  0.00  0.00     0.092 C 
ATOM     33  H12 K26 d          -5.744  22.444 -12.041  0.00  0.00     0.088 H 
BRANCH  32  34
ATOM     34  CBG K26 d          -5.042  24.283 -11.200  0.00  0.00    -0.030 C 
ATOM     35  H13 K26 d          -5.181  25.358 -11.388  0.00  0.00     0.043 H 
BRANCH  34  36
ATOM     36  CAC K26 d          -5.717  23.924  -9.871  0.00  0.00    -0.071 C 
ATOM     37  H14 K26 d          -5.244  24.491  -9.055  0.00  0.00     0.028 H 
ATOM     38  H15 K26 d          -5.606  22.847  -9.682  0.00  0.00     0.028 H 
ATOM     39  H16 K26 d          -6.786  24.179  -9.922  0.00  0.00     0.028 H 
ENDBRANCH  34  36
BRANCH  34  40
ATOM     40  CAT K26 d          -3.534  23.993 -11.123  0.00  0.00    -0.063 C 
ATOM     41  H17 K26 d          -3.149  23.854 -12.144  0.00  0.00     0.033 H 
ATOM     42  H18 K26 d          -3.383  23.069 -10.546  0.00  0.00     0.033 H 
BRANCH  40  43
ATOM     43  CAA K26 d          -2.751  25.122 -10.454  0.00  0.00    -0.076 C 
ATOM     44  H19 K26 d          -1.683  24.861 -10.426  0.00  0.00     0.027 H 
ATOM     45  H20 K26 d          -3.121  25.266  -9.427  0.00  0.00     0.027 H 
ATOM     46  H21 K26 d          -2.887  26.051 -11.026  0.00  0.00     0.027 H 
ENDBRANCH  40  43
ENDBRANCH  34  40
ENDBRANCH  32  34
BRANCH  32  47
ATOM     47  NAX K26 d          -4.917  23.595 -13.600  0.00  0.00    -0.348 N 
ATOM     48  CAZ K26 d          -4.901  22.611 -14.501  0.00  0.00     0.214 C 
ATOM     49  OAD K26 d          -5.464  21.528 -14.354  0.00  0.00    -0.274 OA
ATOM     50  H22 K26 d          -4.386  24.424 -13.779  0.00  0.00     0.163 HD
BRANCH  48  51
ATOM     51  CAB K26 d          -4.083  22.893 -15.764  0.00  0.00    -0.003 C 
ATOM     52  H23 K26 d          -4.136  22.024 -16.436  0.00  0.00     0.040 H 
ATOM     53  H24 K26 d          -3.035  23.080 -15.487  0.00  0.00     0.040 H 
ATOM     54  H25 K26 d          -4.491  23.777 -16.275  0.00  0.00     0.040 H 
ENDBRANCH  48  51
ENDBRANCH  32  47
ENDBRANCH  29  32
ENDBRANCH   1  28
BRANCH   1  55
ATOM     55  CB  K26 d          -9.693  22.384 -14.666  0.00  0.00    -0.014 C 
ATOM     56  H26 K26 d         -10.746  22.068 -14.612  0.00  0.00     0.043 H 
ATOM     57  H27 K26 d          -9.044  21.495 -14.667  0.00  0.00     0.043 H 
BRANCH  55  58
ATOM     58  CG  K26 d          -9.462  23.193 -15.953  0.00  0.00    -0.056 A 
ATOM     59  CD1 K26 d         -10.452  24.055 -16.419  0.00  0.00    -0.074 A 
ATOM     60  CE1 K26 d         -10.240  24.806 -17.579  0.00  0.00    -0.051 A 
ATOM     61  H28 K26 d         -11.389  24.146 -15.880  0.00  0.00     0.084 H 
ATOM     62  CZ  K26 d          -9.036  24.695 -18.274  0.00  0.00     0.065 A 
ATOM     63  H29 K26 d         -11.013  25.475 -17.939  0.00  0.00     0.087 H 
ATOM     64  CE2 K26 d          -8.043  23.836 -17.803  0.00  0.00    -0.051 A 
ATOM     65  CD2 K26 d          -8.253  23.089 -16.642  0.00  0.00    -0.074 A 
ATOM     66  H31 K26 d          -7.106  23.748 -18.341  0.00  0.00     0.087 H 
ATOM     67  H32 K26 d          -7.475  22.428 -16.275  0.00  0.00     0.084 H 
BRANCH  62  68
ATOM     68  OH  K26 d          -8.836  25.423 -19.416  0.00  0.00    -0.361 OA
ATOM     69  H30 K26 d          -7.973  25.234 -19.763  0.00  0.00     0.217 HD
ENDBRANCH  62  68
ENDBRANCH  55  58
ENDBRANCH   1  55
TORSDOF 17
ENDMDL
