MODEL 1
REMARK VINA RESULT:      -8.2      0.000      0.000
REMARK  17 active torsions:
REMARK  status: ('A' for Active; 'I' for Inactive)
REMARK    1  A    between atoms: CBD_3  and  OAI_4 
REMARK    2  A    between atoms: CBF_7  and  CAV_8 
REMARK    3  A    between atoms: CAV_8  and  CBI_9 
REMARK    4  A    between atoms: CBI_9  and  PBK_10 
REMARK    5  A    between atoms: CBI_9  and  NAY_14 
REMARK       I    between atoms: NAY_14  and  C_15 
REMARK    6  A    between atoms: C_15  and  CA_17 
REMARK    7  A    between atoms: CA_17  and  N_18 
REMARK    8  A    between atoms: CA_17  and  CB_30 
REMARK       I    between atoms: N_18  and  CBB_19 
REMARK    9  A    between atoms: CBB_19  and  CBJ_21 
REMARK   10  A    between atoms: CBJ_21  and  CBG_22 
REMARK   11  A    between atoms: CBJ_21  and  NAX_26 
REMARK   12  A    between atoms: CBG_22  and  CAC_23 
REMARK   13  A    between atoms: CBG_22  and  CAT_24 
REMARK   14  A    between atoms: CAT_24  and  CAA_25 
REMARK       I    between atoms: NAX_26  and  CAZ_27 
REMARK   15  A    between atoms: CAZ_27  and  CAB_28 
REMARK   16  A    between atoms: CB_30  and  CG_31 
REMARK   17  A    between atoms: CZ_34  and  OH_35 
ROOT
ATOM      1  CA  K26 d          -9.405  25.932 -11.991  0.00  0.00     0.093 C 
ATOM      2  H10 K26 d          -8.758  26.822 -12.024  0.00  0.00     0.088 H 
ENDROOT
BRANCH   1   3
ATOM      3  C   K26 d          -8.785  24.910 -11.036  0.00  0.00     0.241 C 
ATOM      4  NAY K26 d          -8.122  25.428  -9.998  0.00  0.00    -0.342 N 
ATOM      5  H9  K26 d          -8.138  26.417  -9.860  0.00  0.00     0.163 HD
ATOM      6  O   K26 d          -8.886  23.706 -11.278  0.00  0.00    -0.271 OA
BRANCH   4   7
ATOM      7  CBI K26 d          -7.367  24.591  -9.051  0.00  0.00     0.124 C 
ATOM      8  H8  K26 d          -7.442  23.539  -9.364  0.00  0.00     0.095 H 
BRANCH   7   9
ATOM      9  CAV K26 d          -5.883  25.021  -9.116  0.00  0.00    -0.010 C 
ATOM     10  H6  K26 d          -5.833  26.097  -9.339  0.00  0.00     0.044 H 
ATOM     11  H7  K26 d          -5.412  24.827  -8.141  0.00  0.00     0.044 H 
BRANCH   9  12
ATOM     12  CBF K26 d          -5.116  24.250 -10.202  0.00  0.00    -0.055 A 
ATOM     13  CAR K26 d          -5.717  23.154 -10.817  0.00  0.00    -0.074 A 
ATOM     14  CAN K26 d          -5.045  22.448 -11.812  0.00  0.00    -0.051 A 
ATOM     15  H1  K26 d          -6.713  22.849 -10.519  0.00  0.00     0.084 H 
ATOM     16  CBD K26 d          -3.763  22.840 -12.198  0.00  0.00     0.065 A 
ATOM     17  H2  K26 d          -5.518  21.595 -12.286  0.00  0.00     0.087 H 
ATOM     18  CAO K26 d          -3.152  23.944 -11.595  0.00  0.00    -0.051 A 
ATOM     19  CAS K26 d          -3.829  24.644 -10.596  0.00  0.00    -0.074 A 
ATOM     20  H4  K26 d          -2.159  24.254 -11.902  0.00  0.00     0.087 H 
ATOM     21  H5  K26 d          -3.359  25.498 -10.122  0.00  0.00     0.084 H 
BRANCH  16  22
ATOM     22  OAI K26 d          -3.119  22.139 -13.170  0.00  0.00    -0.361 OA
ATOM     23  H3  K26 d          -2.629  21.428 -12.774  0.00  0.00     0.217 HD
ENDBRANCH  16  22
ENDBRANCH   9  12
ENDBRANCH   7   9
BRANCH   7  24
ATOM     24  PBK K26 d          -8.063  24.732  -7.350  0.00  0.00     0.283 P 
ATOM     25  OAJ K26 d          -7.241  25.883  -6.640  0.00  0.00    -0.638 OA
ATOM     26  OAK K26 d          -9.579  25.277  -7.607  0.00  0.00    -0.638 OA
ATOM     27  OAG K26 d          -8.017  23.455  -6.588  0.00  0.00    -0.638 OA
ENDBRANCH   7  24
ENDBRANCH   4   7
ENDBRANCH   1   3
BRANCH   1  28
ATOM     28  N   K26 d          -9.482  25.339 -13.342  0.00  0.00    -0.346 N 
ATOM     29  CBB K26 d          -8.503  25.408 -14.253  0.00  0.00     0.241 C 
ATOM     30  OAF K26 d          -7.432  25.994 -14.089  0.00  0.00    -0.271 OA
ATOM     31  H11 K26 d         -10.321  24.855 -13.593  0.00  0.00     0.163 HD
BRANCH  29  32
ATOM     32  CBJ K26 d          -8.841  24.756 -15.605  0.00  0.00     0.092 C 
ATOM     33  H12 K26 d          -9.000  25.550 -16.349  0.00  0.00     0.088 H 
BRANCH  32  34
ATOM     34  CBG K26 d         -10.118  23.909 -15.553  0.00  0.00    -0.030 C 
ATOM     35  H13 K26 d         -10.673  24.167 -14.639  0.00  0.00     0.043 H 
BRANCH  34  36
ATOM     36  CAC K26 d         -11.002  24.218 -16.768  0.00  0.00    -0.071 C 
ATOM     37  H14 K26 d         -10.586  25.078 -17.315  0.00  0.00     0.028 H 
ATOM     38  H15 K26 d         -12.020  24.457 -16.430  0.00  0.00     0.028 H 
ATOM     39  H16 K26 d         -11.032  23.341 -17.432  0.00  0.00     0.028 H 
ENDBRANCH  34  36
BRANCH  34  40
ATOM     40  CAT K26 d          -9.782  22.409 -15.511  0.00  0.00    -0.063 C 
ATOM     41  H17 K26 d          -8.733  22.276 -15.815  0.00  0.00     0.033 H 
ATOM     42  H18 K26 d         -10.438  21.881 -16.218  0.00  0.00     0.033 H 
BRANCH  40  43
ATOM     43  CAA K26 d          -9.970  21.803 -14.121  0.00  0.00    -0.076 C 
ATOM     44  H19 K26 d         -10.659  20.948 -14.185  0.00  0.00     0.027 H 
ATOM     45  H20 K26 d         -10.389  22.562 -13.444  0.00  0.00     0.027 H 
ATOM     46  H21 K26 d          -8.998  21.463 -13.734  0.00  0.00     0.027 H 
ENDBRANCH  40  43
ENDBRANCH  34  40
ENDBRANCH  32  34
BRANCH  32  47
ATOM     47  NAX K26 d          -7.660  23.963 -15.999  0.00  0.00    -0.348 N 
ATOM     48  CAZ K26 d          -7.185  23.969 -17.246  0.00  0.00     0.214 C 
ATOM     49  OAD K26 d          -7.708  24.570 -18.183  0.00  0.00    -0.274 OA
ATOM     50  H22 K26 d          -7.200  23.403 -15.309  0.00  0.00     0.163 HD
BRANCH  48  51
ATOM     51  CAB K26 d          -5.927  23.127 -17.472  0.00  0.00    -0.003 C 
ATOM     52  H23 K26 d          -5.955  22.689 -18.480  0.00  0.00     0.040 H 
ATOM     53  H24 K26 d          -5.885  22.323 -16.723  0.00  0.00     0.040 H 
ATOM     54  H25 K26 d          -5.037  23.766 -17.374  0.00  0.00     0.040 H 
ENDBRANCH  48  51
ENDBRANCH  32  47
ENDBRANCH  29  32
ENDBRANCH   1  28
BRANCH   1  55
ATOM     55  CB  K26 d         -10.797  26.362 -11.547  0.00  0.00    -0.014 C 
ATOM     56  H26 K26 d         -11.210  27.081 -12.270  0.00  0.00     0.043 H 
ATOM     57  H27 K26 d         -10.739  26.833 -10.554  0.00  0.00     0.043 H 
BRANCH  55  58
ATOM     58  CG  K26 d         -11.701  25.121 -11.478  0.00  0.00    -0.056 A 
ATOM     59  CD1 K26 d         -12.069  24.597 -10.241  0.00  0.00    -0.074 A 
ATOM     60  CE1 K26 d         -12.905  23.478 -10.173  0.00  0.00    -0.051 A 
ATOM     61  H28 K26 d         -11.707  25.057  -9.329  0.00  0.00     0.084 H 
ATOM     62  CZ  K26 d         -13.375  22.883 -11.344  0.00  0.00     0.065 A 
ATOM     63  H29 K26 d         -13.187  23.072  -9.209  0.00  0.00     0.087 H 
ATOM     64  CE2 K26 d         -13.011  23.413 -12.582  0.00  0.00    -0.051 A 
ATOM     65  CD2 K26 d         -12.179  24.533 -12.651  0.00  0.00    -0.074 A 
ATOM     66  H31 K26 d         -13.375  22.953 -13.494  0.00  0.00     0.087 H 
ATOM     67  H32 K26 d         -11.905  24.946 -13.615  0.00  0.00     0.084 H 
BRANCH  62  68
ATOM     68  OH  K26 d         -14.184  21.782 -11.274  0.00  0.00    -0.361 OA
ATOM     69  H30 K26 d         -13.870  21.121 -11.880  0.00  0.00     0.217 HD
ENDBRANCH  62  68
ENDBRANCH  55  58
ENDBRANCH   1  55
TORSDOF 17
ENDMDL
MODEL 2
REMARK VINA RESULT:      -7.2      2.741      7.351
REMARK  17 active torsions:
REMARK  status: ('A' for Active; 'I' for Inactive)
REMARK    1  A    between atoms: CBD_3  and  OAI_4 
REMARK    2  A    between atoms: CBF_7  and  CAV_8 
REMARK    3  A    between atoms: CAV_8  and  CBI_9 
REMARK    4  A    between atoms: CBI_9  and  PBK_10 
REMARK    5  A    between atoms: CBI_9  and  NAY_14 
REMARK       I    between atoms: NAY_14  and  C_15 
REMARK    6  A    between atoms: C_15  and  CA_17 
REMARK    7  A    between atoms: CA_17  and  N_18 
REMARK    8  A    between atoms: CA_17  and  CB_30 
REMARK       I    between atoms: N_18  and  CBB_19 
REMARK    9  A    between atoms: CBB_19  and  CBJ_21 
REMARK   10  A    between atoms: CBJ_21  and  CBG_22 
REMARK   11  A    between atoms: CBJ_21  and  NAX_26 
REMARK   12  A    between atoms: CBG_22  and  CAC_23 
REMARK   13  A    between atoms: CBG_22  and  CAT_24 
REMARK   14  A    between atoms: CAT_24  and  CAA_25 
REMARK       I    between atoms: NAX_26  and  CAZ_27 
REMARK   15  A    between atoms: CAZ_27  and  CAB_28 
REMARK   16  A    between atoms: CB_30  and  CG_31 
REMARK   17  A    between atoms: CZ_34  and  OH_35 
ROOT
ATOM      1  CA  K26 d          -8.327  25.068 -12.400  0.00  0.00     0.093 C 
ATOM      2  H10 K26 d          -7.613  25.794 -11.982  0.00  0.00     0.088 H 
ENDROOT
BRANCH   1   3
ATOM      3  C   K26 d          -8.921  25.649 -13.686  0.00  0.00     0.241 C 
ATOM      4  NAY K26 d          -8.300  25.292 -14.813  0.00  0.00    -0.342 N 
ATOM      5  H9  K26 d          -7.561  24.620 -14.765  0.00  0.00     0.163 HD
ATOM      6  O   K26 d          -9.879  26.420 -13.623  0.00  0.00    -0.271 OA
BRANCH   4   7
ATOM      7  CBI K26 d          -8.667  25.852 -16.124  0.00  0.00     0.124 C 
ATOM      8  H8  K26 d          -9.039  26.877 -15.983  0.00  0.00     0.095 H 
BRANCH   7   9
ATOM      9  CAV K26 d          -7.388  25.906 -16.991  0.00  0.00    -0.010 C 
ATOM     10  H6  K26 d          -7.649  25.644 -18.027  0.00  0.00     0.044 H 
ATOM     11  H7  K26 d          -6.980  26.927 -16.963  0.00  0.00     0.044 H 
BRANCH   9  12
ATOM     12  CBF K26 d          -6.316  24.927 -16.485  0.00  0.00    -0.055 A 
ATOM     13  CAR K26 d          -5.183  25.424 -15.845  0.00  0.00    -0.074 A 
ATOM     14  CAN K26 d          -4.206  24.555 -15.368  0.00  0.00    -0.051 A 
ATOM     15  H1  K26 d          -5.061  26.494 -15.720  0.00  0.00     0.084 H 
ATOM     16  CBD K26 d          -4.361  23.178 -15.527  0.00  0.00     0.065 A 
ATOM     17  H2  K26 d          -3.325  24.948 -14.872  0.00  0.00     0.087 H 
ATOM     18  CAO K26 d          -5.499  22.665 -16.158  0.00  0.00    -0.051 A 
ATOM     19  CAS K26 d          -6.472  23.542 -16.638  0.00  0.00    -0.074 A 
ATOM     20  H4  K26 d          -5.623  21.595 -16.274  0.00  0.00     0.087 H 
ATOM     21  H5  K26 d          -7.354  23.151 -17.133  0.00  0.00     0.084 H 
BRANCH  16  22
ATOM     22  OAI K26 d          -3.396  22.342 -15.056  0.00  0.00    -0.361 OA
ATOM     23  H3  K26 d          -3.737  21.456 -15.017  0.00  0.00     0.217 HD
ENDBRANCH  16  22
ENDBRANCH   9  12
ENDBRANCH   7   9
BRANCH   7  24
ATOM     24  PBK K26 d         -10.006  24.860 -16.911  0.00  0.00     0.283 P 
ATOM     25  OAJ K26 d          -9.582  24.685 -18.426  0.00  0.00    -0.638 OA
ATOM     26  OAK K26 d          -9.880  23.407 -16.180  0.00  0.00    -0.638 OA
ATOM     27  OAG K26 d         -11.353  25.476 -16.772  0.00  0.00    -0.638 OA
ENDBRANCH   7  24
ENDBRANCH   4   7
ENDBRANCH   1   3
BRANCH   1  28
ATOM     28  N   K26 d          -9.417  24.845 -11.428  0.00  0.00    -0.346 N 
ATOM     29  CBB K26 d          -9.766  25.718 -10.474  0.00  0.00     0.241 C 
ATOM     30  OAF K26 d          -9.209  26.798 -10.271  0.00  0.00    -0.271 OA
ATOM     31  H11 K26 d          -9.927  23.987 -11.485  0.00  0.00     0.163 HD
BRANCH  29  32
ATOM     32  CBJ K26 d         -10.899  25.236  -9.551  0.00  0.00     0.092 C 
ATOM     33  H12 K26 d         -11.670  26.019  -9.501  0.00  0.00     0.088 H 
BRANCH  32  34
ATOM     34  CBG K26 d         -10.424  24.961  -8.119  0.00  0.00    -0.030 C 
ATOM     35  H13 K26 d         -10.398  25.915  -7.570  0.00  0.00     0.043 H 
BRANCH  34  36
ATOM     36  CAC K26 d         -11.403  24.014  -7.415  0.00  0.00    -0.071 C 
ATOM     37  H14 K26 d         -10.898  23.532  -6.564  0.00  0.00     0.028 H 
ATOM     38  H15 K26 d         -11.742  23.244  -8.123  0.00  0.00     0.028 H 
ATOM     39  H16 K26 d         -12.270  24.586  -7.052  0.00  0.00     0.028 H 
ENDBRANCH  34  36
BRANCH  34  40
ATOM     40  CAT K26 d          -9.009  24.359  -8.116  0.00  0.00    -0.063 C 
ATOM     41  H17 K26 d          -8.431  24.813  -8.935  0.00  0.00     0.033 H 
ATOM     42  H18 K26 d          -9.088  23.275  -8.281  0.00  0.00     0.033 H 
BRANCH  40  43
ATOM     43  CAA K26 d          -8.270  24.602  -6.801  0.00  0.00    -0.076 C 
ATOM     44  H19 K26 d          -7.825  25.608  -6.811  0.00  0.00     0.027 H 
ATOM     45  H20 K26 d          -7.475  23.851  -6.683  0.00  0.00     0.027 H 
ATOM     46  H21 K26 d          -8.977  24.522  -5.962  0.00  0.00     0.027 H 
ENDBRANCH  40  43
ENDBRANCH  34  40
ENDBRANCH  32  34
BRANCH  32  47
ATOM     47  NAX K26 d         -11.480  24.037 -10.187  0.00  0.00    -0.348 N 
ATOM     48  CAZ K26 d         -12.742  24.004 -10.619  0.00  0.00     0.214 C 
ATOM     49  OAD K26 d         -13.546  24.923 -10.479  0.00  0.00    -0.274 OA
ATOM     50  H22 K26 d         -10.910  23.222 -10.296  0.00  0.00     0.163 HD
BRANCH  48  51
ATOM     51  CAB K26 d         -13.169  22.699 -11.295  0.00  0.00    -0.003 C 
ATOM     52  H23 K26 d         -12.276  22.121 -11.574  0.00  0.00     0.040 H 
ATOM     53  H24 K26 d         -13.755  22.928 -12.197  0.00  0.00     0.040 H 
ATOM     54  H25 K26 d         -13.784  22.110 -10.598  0.00  0.00     0.040 H 
ENDBRANCH  48  51
ENDBRANCH  32  47
ENDBRANCH  29  32
ENDBRANCH   1  28
BRANCH   1  55
ATOM     55  CB  K26 d          -7.594  23.756 -12.647  0.00  0.00    -0.014 C 
ATOM     56  H26 K26 d          -7.655  23.495 -13.714  0.00  0.00     0.043 H 
ATOM     57  H27 K26 d          -8.054  22.957 -12.047  0.00  0.00     0.043 H 
BRANCH  55  58
ATOM     58  CG  K26 d          -6.122  23.926 -12.241  0.00  0.00    -0.056 A 
ATOM     59  CD1 K26 d          -5.309  22.805 -12.087  0.00  0.00    -0.074 A 
ATOM     60  CE1 K26 d          -3.966  22.954 -11.733  0.00  0.00    -0.051 A 
ATOM     61  H28 K26 d          -5.720  21.813 -12.242  0.00  0.00     0.084 H 
ATOM     62  CZ  K26 d          -3.431  24.228 -11.535  0.00  0.00     0.065 A 
ATOM     63  H29 K26 d          -3.337  22.079 -11.612  0.00  0.00     0.087 H 
ATOM     64  CE2 K26 d          -4.244  25.350 -11.695  0.00  0.00    -0.051 A 
ATOM     65  CD2 K26 d          -5.586  25.201 -12.053  0.00  0.00    -0.074 A 
ATOM     66  H31 K26 d          -3.832  26.341 -11.542  0.00  0.00     0.087 H 
ATOM     67  H32 K26 d          -6.212  26.077 -12.184  0.00  0.00     0.084 H 
BRANCH  62  68
ATOM     68  OH  K26 d          -2.118  24.370 -11.177  0.00  0.00    -0.361 OA
ATOM     69  H30 K26 d          -2.045  25.036 -10.504  0.00  0.00     0.217 HD
ENDBRANCH  62  68
ENDBRANCH  55  58
ENDBRANCH   1  55
TORSDOF 17
ENDMDL
MODEL 3
REMARK VINA RESULT:      -7.0      1.436      2.129
REMARK  17 active torsions:
REMARK  status: ('A' for Active; 'I' for Inactive)
REMARK    1  A    between atoms: CBD_3  and  OAI_4 
REMARK    2  A    between atoms: CBF_7  and  CAV_8 
REMARK    3  A    between atoms: CAV_8  and  CBI_9 
REMARK    4  A    between atoms: CBI_9  and  PBK_10 
REMARK    5  A    between atoms: CBI_9  and  NAY_14 
REMARK       I    between atoms: NAY_14  and  C_15 
REMARK    6  A    between atoms: C_15  and  CA_17 
REMARK    7  A    between atoms: CA_17  and  N_18 
REMARK    8  A    between atoms: CA_17  and  CB_30 
REMARK       I    between atoms: N_18  and  CBB_19 
REMARK    9  A    between atoms: CBB_19  and  CBJ_21 
REMARK   10  A    between atoms: CBJ_21  and  CBG_22 
REMARK   11  A    between atoms: CBJ_21  and  NAX_26 
REMARK   12  A    between atoms: CBG_22  and  CAC_23 
REMARK   13  A    between atoms: CBG_22  and  CAT_24 
REMARK   14  A    between atoms: CAT_24  and  CAA_25 
REMARK       I    between atoms: NAX_26  and  CAZ_27 
REMARK   15  A    between atoms: CAZ_27  and  CAB_28 
REMARK   16  A    between atoms: CB_30  and  CG_31 
REMARK   17  A    between atoms: CZ_34  and  OH_35 
ROOT
ATOM      1  CA  K26 d          -9.219  24.390 -11.909  0.00  0.00     0.093 C 
ATOM      2  H10 K26 d         -10.011  25.153 -11.916  0.00  0.00     0.088 H 
ENDROOT
BRANCH   1   3
ATOM      3  C   K26 d          -8.042  24.912 -11.082  0.00  0.00     0.241 C 
ATOM      4  NAY K26 d          -7.517  24.037 -10.220  0.00  0.00    -0.342 N 
ATOM      5  H9  K26 d          -7.855  23.096 -10.222  0.00  0.00     0.163 HD
ATOM      6  O   K26 d          -7.671  26.079 -11.215  0.00  0.00    -0.271 OA
BRANCH   4   7
ATOM      7  CBI K26 d          -6.460  24.411  -9.267  0.00  0.00     0.124 C 
ATOM      8  H8  K26 d          -5.897  23.508  -8.986  0.00  0.00     0.095 H 
BRANCH   7   9
ATOM      9  CAV K26 d          -5.499  25.389  -9.982  0.00  0.00    -0.010 C 
ATOM     10  H6  K26 d          -6.094  26.150 -10.509  0.00  0.00     0.044 H 
ATOM     11  H7  K26 d          -4.862  25.878  -9.230  0.00  0.00     0.044 H 
BRANCH   9  12
ATOM     12  CBF K26 d          -4.603  24.663 -10.998  0.00  0.00    -0.055 A 
ATOM     13  CAR K26 d          -3.579  25.364 -11.630  0.00  0.00    -0.074 A 
ATOM     14  CAN K26 d          -2.747  24.724 -12.545  0.00  0.00    -0.051 A 
ATOM     15  H1  K26 d          -3.428  26.415 -11.407  0.00  0.00     0.084 H 
ATOM     16  CBD K26 d          -2.938  23.372 -12.831  0.00  0.00     0.065 A 
ATOM     17  H2  K26 d          -1.952  25.276 -13.034  0.00  0.00     0.087 H 
ATOM     18  CAO K26 d          -3.957  22.655 -12.197  0.00  0.00    -0.051 A 
ATOM     19  CAS K26 d          -4.789  23.304 -11.284  0.00  0.00    -0.074 A 
ATOM     20  H4  K26 d          -4.099  21.602 -12.413  0.00  0.00     0.087 H 
ATOM     21  H5  K26 d          -5.584  22.753 -10.793  0.00  0.00     0.084 H 
BRANCH  16  22
ATOM     22  OAI K26 d          -2.118  22.761 -13.729  0.00  0.00    -0.361 OA
ATOM     23  H3  K26 d          -2.497  21.929 -13.987  0.00  0.00     0.217 HD
ENDBRANCH  16  22
ENDBRANCH   9  12
ENDBRANCH   7   9
BRANCH   7  24
ATOM     24  PBK K26 d          -7.183  25.134  -7.733  0.00  0.00     0.283 P 
ATOM     25  OAJ K26 d          -8.018  23.971  -7.058  0.00  0.00    -0.638 OA
ATOM     26  OAK K26 d          -5.877  25.425  -6.800  0.00  0.00    -0.638 OA
ATOM     27  OAG K26 d          -8.009  26.344  -7.987  0.00  0.00    -0.638 OA
ENDBRANCH   7  24
ENDBRANCH   4   7
ENDBRANCH   1   3
BRANCH   1  28
ATOM     28  N   K26 d          -8.764  24.151 -13.294  0.00  0.00    -0.346 N 
ATOM     29  CBB K26 d          -8.926  25.018 -14.301  0.00  0.00     0.241 C 
ATOM     30  OAF K26 d          -9.497  26.105 -14.206  0.00  0.00    -0.271 OA
ATOM     31  H11 K26 d          -8.304  23.285 -13.492  0.00  0.00     0.163 HD
BRANCH  29  32
ATOM     32  CBJ K26 d          -8.411  24.520 -15.663  0.00  0.00     0.092 C 
ATOM     33  H12 K26 d          -8.052  25.383 -16.241  0.00  0.00     0.088 H 
BRANCH  32  34
ATOM     34  CBG K26 d          -9.499  23.827 -16.492  0.00  0.00    -0.030 C 
ATOM     35  H13 K26 d          -9.185  23.822 -17.547  0.00  0.00     0.043 H 
BRANCH  34  36
ATOM     36  CAC K26 d          -9.672  22.377 -16.024  0.00  0.00    -0.071 C 
ATOM     37  H14 K26 d         -10.371  22.347 -15.174  0.00  0.00     0.028 H 
ATOM     38  H15 K26 d          -8.697  21.974 -15.711  0.00  0.00     0.028 H 
ATOM     39  H16 K26 d         -10.071  21.770 -16.849  0.00  0.00     0.028 H 
ENDBRANCH  34  36
BRANCH  34  40
ATOM     40  CAT K26 d         -10.835  24.580 -16.385  0.00  0.00    -0.063 C 
ATOM     41  H17 K26 d         -10.788  25.259 -15.520  0.00  0.00     0.033 H 
ATOM     42  H18 K26 d         -11.641  23.847 -16.232  0.00  0.00     0.033 H 
BRANCH  40  43
ATOM     43  CAA K26 d         -11.150  25.401 -17.635  0.00  0.00    -0.076 C 
ATOM     44  H19 K26 d         -11.680  26.320 -17.346  0.00  0.00     0.027 H 
ATOM     45  H20 K26 d         -11.784  24.809 -18.312  0.00  0.00     0.027 H 
ATOM     46  H21 K26 d         -10.212  25.663 -18.147  0.00  0.00     0.027 H 
ENDBRANCH  40  43
ENDBRANCH  34  40
ENDBRANCH  32  34
BRANCH  32  47
ATOM     47  NAX K26 d          -7.270  23.626 -15.381  0.00  0.00    -0.348 N 
ATOM     48  CAZ K26 d          -6.174  23.614 -16.143  0.00  0.00     0.214 C 
ATOM     49  OAD K26 d          -6.034  24.283 -17.165  0.00  0.00    -0.274 OA
ATOM     50  H22 K26 d          -7.319  23.010 -14.595  0.00  0.00     0.163 HD
BRANCH  48  51
ATOM     51  CAB K26 d          -5.067  22.662 -15.683  0.00  0.00    -0.003 C 
ATOM     52  H23 K26 d          -5.161  22.485 -14.602  0.00  0.00     0.040 H 
ATOM     53  H24 K26 d          -4.086  23.110 -15.899  0.00  0.00     0.040 H 
ATOM     54  H25 K26 d          -5.160  21.706 -16.220  0.00  0.00     0.040 H 
ENDBRANCH  48  51
ENDBRANCH  32  47
ENDBRANCH  29  32
ENDBRANCH   1  28
BRANCH   1  55
ATOM     55  CB  K26 d          -9.795  23.101 -11.337  0.00  0.00    -0.014 C 
ATOM     56  H26 K26 d          -9.224  22.805 -10.445  0.00  0.00     0.043 H 
ATOM     57  H27 K26 d          -9.736  22.302 -12.091  0.00  0.00     0.043 H 
BRANCH  55  58
ATOM     58  CG  K26 d         -11.264  23.341 -10.954  0.00  0.00    -0.056 A 
ATOM     59  CD1 K26 d         -11.577  24.197  -9.900  0.00  0.00    -0.074 A 
ATOM     60  CE1 K26 d         -12.912  24.432  -9.559  0.00  0.00    -0.051 A 
ATOM     61  H28 K26 d         -10.783  24.684  -9.345  0.00  0.00     0.084 H 
ATOM     62  CZ  K26 d         -13.937  23.810 -10.272  0.00  0.00     0.065 A 
ATOM     63  H29 K26 d         -13.151  25.097  -8.737  0.00  0.00     0.087 H 
ATOM     64  CE2 K26 d         -13.623  22.958 -11.330  0.00  0.00    -0.051 A 
ATOM     65  CD2 K26 d         -12.289  22.726 -11.675  0.00  0.00    -0.074 A 
ATOM     66  H31 K26 d         -14.417  22.474 -11.887  0.00  0.00     0.087 H 
ATOM     67  H32 K26 d         -12.050  22.069 -12.504  0.00  0.00     0.084 H 
BRANCH  62  68
ATOM     68  OH  K26 d         -15.242  24.033  -9.928  0.00  0.00    -0.361 OA
ATOM     69  H30 K26 d         -15.322  24.041  -8.982  0.00  0.00     0.217 HD
ENDBRANCH  62  68
ENDBRANCH  55  58
ENDBRANCH   1  55
TORSDOF 17
ENDMDL
MODEL 4
REMARK VINA RESULT:      -7.0      2.266      7.358
REMARK  17 active torsions:
REMARK  status: ('A' for Active; 'I' for Inactive)
REMARK    1  A    between atoms: CBD_3  and  OAI_4 
REMARK    2  A    between atoms: CBF_7  and  CAV_8 
REMARK    3  A    between atoms: CAV_8  and  CBI_9 
REMARK    4  A    between atoms: CBI_9  and  PBK_10 
REMARK    5  A    between atoms: CBI_9  and  NAY_14 
REMARK       I    between atoms: NAY_14  and  C_15 
REMARK    6  A    between atoms: C_15  and  CA_17 
REMARK    7  A    between atoms: CA_17  and  N_18 
REMARK    8  A    between atoms: CA_17  and  CB_30 
REMARK       I    between atoms: N_18  and  CBB_19 
REMARK    9  A    between atoms: CBB_19  and  CBJ_21 
REMARK   10  A    between atoms: CBJ_21  and  CBG_22 
REMARK   11  A    between atoms: CBJ_21  and  NAX_26 
REMARK   12  A    between atoms: CBG_22  and  CAC_23 
REMARK   13  A    between atoms: CBG_22  and  CAT_24 
REMARK   14  A    between atoms: CAT_24  and  CAA_25 
REMARK       I    between atoms: NAX_26  and  CAZ_27 
REMARK   15  A    between atoms: CAZ_27  and  CAB_28 
REMARK   16  A    between atoms: CB_30  and  CG_31 
REMARK   17  A    between atoms: CZ_34  and  OH_35 
ROOT
ATOM      1  CA  K26 d          -7.883  25.999 -12.743  0.00  0.00     0.093 C 
ATOM      2  H10 K26 d          -7.548  26.769 -13.453  0.00  0.00     0.088 H 
ENDROOT
BRANCH   1   3
ATOM      3  C   K26 d          -9.409  26.060 -12.639  0.00  0.00     0.241 C 
ATOM      4  NAY K26 d         -10.010  24.894 -12.387  0.00  0.00    -0.342 N 
ATOM      5  H9  K26 d          -9.446  24.090 -12.202  0.00  0.00     0.163 HD
ATOM      6  O   K26 d          -9.993  27.128 -12.824  0.00  0.00    -0.271 OA
BRANCH   4   7
ATOM      7  CBI K26 d         -11.476  24.751 -12.373  0.00  0.00     0.124 C 
ATOM      8  H8  K26 d         -11.926  25.651 -12.818  0.00  0.00     0.095 H 
BRANCH   7   9
ATOM      9  CAV K26 d         -11.842  23.530 -13.248  0.00  0.00    -0.010 C 
ATOM     10  H6  K26 d         -11.769  22.619 -12.636  0.00  0.00     0.044 H 
ATOM     11  H7  K26 d         -12.875  23.648 -13.609  0.00  0.00     0.044 H 
BRANCH   9  12
ATOM     12  CBF K26 d         -10.903  23.396 -14.457  0.00  0.00    -0.055 A 
ATOM     13  CAR K26 d         -10.929  24.368 -15.455  0.00  0.00    -0.074 A 
ATOM     14  CAN K26 d         -10.078  24.273 -16.553  0.00  0.00    -0.051 A 
ATOM     15  H1  K26 d         -11.615  25.204 -15.375  0.00  0.00     0.084 H 
ATOM     16  CBD K26 d          -9.194  23.200 -16.657  0.00  0.00     0.065 A 
ATOM     17  H2  K26 d         -10.104  25.032 -17.327  0.00  0.00     0.087 H 
ATOM     18  CAO K26 d          -9.151  22.222 -15.658  0.00  0.00    -0.051 A 
ATOM     19  CAS K26 d         -10.009  22.321 -14.562  0.00  0.00    -0.074 A 
ATOM     20  H4  K26 d          -8.458  21.393 -15.735  0.00  0.00     0.087 H 
ATOM     21  H5  K26 d          -9.984  21.564 -13.787  0.00  0.00     0.084 H 
BRANCH  16  22
ATOM     22  OAI K26 d          -8.370  23.120 -17.738  0.00  0.00    -0.361 OA
ATOM     23  H3  K26 d          -8.810  22.648 -18.435  0.00  0.00     0.217 HD
ENDBRANCH  16  22
ENDBRANCH   9  12
ENDBRANCH   7   9
BRANCH   7  24
ATOM     24  PBK K26 d         -12.103  24.591 -10.648  0.00  0.00     0.283 P 
ATOM     25  OAJ K26 d         -13.343  25.570 -10.546  0.00  0.00    -0.638 OA
ATOM     26  OAK K26 d         -12.662  23.060 -10.589  0.00  0.00    -0.638 OA
ATOM     27  OAG K26 d         -11.071  24.883  -9.617  0.00  0.00    -0.638 OA
ENDBRANCH   7  24
ENDBRANCH   4   7
ENDBRANCH   1   3
BRANCH   1  28
ATOM     28  N   K26 d          -7.302  26.279 -11.414  0.00  0.00    -0.346 N 
ATOM     29  CBB K26 d          -6.883  25.336 -10.560  0.00  0.00     0.241 C 
ATOM     30  OAF K26 d          -6.956  24.123 -10.763  0.00  0.00    -0.271 OA
ATOM     31  H11 K26 d          -7.215  27.235 -11.133  0.00  0.00     0.163 HD
BRANCH  29  32
ATOM     32  CBJ K26 d          -6.362  25.876  -9.217  0.00  0.00     0.092 C 
ATOM     33  H12 K26 d          -6.807  26.866  -9.038  0.00  0.00     0.088 H 
BRANCH  32  34
ATOM     34  CBG K26 d          -4.838  26.043  -9.195  0.00  0.00    -0.030 C 
ATOM     35  H13 K26 d          -4.581  26.979  -9.713  0.00  0.00     0.043 H 
BRANCH  34  36
ATOM     36  CAC K26 d          -4.341  26.130  -7.747  0.00  0.00    -0.071 C 
ATOM     37  H14 K26 d          -5.150  26.509  -7.104  0.00  0.00     0.028 H 
ATOM     38  H15 K26 d          -3.482  26.814  -7.694  0.00  0.00     0.028 H 
ATOM     39  H16 K26 d          -4.037  25.131  -7.402  0.00  0.00     0.028 H 
ENDBRANCH  34  36
BRANCH  34  40
ATOM     40  CAT K26 d          -4.147  24.878  -9.922  0.00  0.00    -0.063 C 
ATOM     41  H17 K26 d          -4.847  24.458 -10.659  0.00  0.00     0.033 H 
ATOM     42  H18 K26 d          -3.886  24.107  -9.183  0.00  0.00     0.033 H 
BRANCH  40  43
ATOM     43  CAA K26 d          -2.873  25.310 -10.648  0.00  0.00    -0.076 C 
ATOM     44  H19 K26 d          -3.065  25.354 -11.730  0.00  0.00     0.027 H 
ATOM     45  H20 K26 d          -2.072  24.584 -10.447  0.00  0.00     0.027 H 
ATOM     46  H21 K26 d          -2.566  26.304 -10.289  0.00  0.00     0.027 H 
ENDBRANCH  40  43
ENDBRANCH  34  40
ENDBRANCH  32  34
BRANCH  32  47
ATOM     47  NAX K26 d          -6.837  24.945  -8.174  0.00  0.00    -0.348 N 
ATOM     48  CAZ K26 d          -7.972  25.150  -7.503  0.00  0.00     0.214 C 
ATOM     49  OAD K26 d          -8.686  26.142  -7.637  0.00  0.00    -0.274 OA
ATOM     50  H22 K26 d          -6.291  24.134  -7.964  0.00  0.00     0.163 HD
BRANCH  48  51
ATOM     51  CAB K26 d          -8.340  24.064  -6.490  0.00  0.00    -0.003 C 
ATOM     52  H23 K26 d          -9.023  24.481  -5.737  0.00  0.00     0.040 H 
ATOM     53  H24 K26 d          -7.427  23.699  -5.996  0.00  0.00     0.040 H 
ATOM     54  H25 K26 d          -8.833  23.229  -7.011  0.00  0.00     0.040 H 
ENDBRANCH  48  51
ENDBRANCH  32  47
ENDBRANCH  29  32
ENDBRANCH   1  28
BRANCH   1  55
ATOM     55  CB  K26 d          -7.394  24.643 -13.233  0.00  0.00    -0.014 C 
ATOM     56  H26 K26 d          -8.246  23.952 -13.318  0.00  0.00     0.043 H 
ATOM     57  H27 K26 d          -6.661  24.234 -12.521  0.00  0.00     0.043 H 
BRANCH  55  58
ATOM     58  CG  K26 d          -6.734  24.821 -14.609  0.00  0.00    -0.056 A 
ATOM     59  CD1 K26 d          -5.851  23.855 -15.087  0.00  0.00    -0.074 A 
ATOM     60  CE1 K26 d          -5.261  24.004 -16.345  0.00  0.00    -0.051 A 
ATOM     61  H28 K26 d          -5.622  22.985 -14.482  0.00  0.00     0.084 H 
ATOM     62  CZ  K26 d          -5.554  25.120 -17.129  0.00  0.00     0.065 A 
ATOM     63  H29 K26 d          -4.573  23.251 -16.713  0.00  0.00     0.087 H 
ATOM     64  CE2 K26 d          -6.443  26.083 -16.652  0.00  0.00    -0.051 A 
ATOM     65  CD2 K26 d          -7.037  25.933 -15.397  0.00  0.00    -0.074 A 
ATOM     66  H31 K26 d          -6.674  26.952 -17.258  0.00  0.00     0.087 H 
ATOM     67  H32 K26 d          -7.733  26.681 -15.034  0.00  0.00     0.084 H 
BRANCH  62  68
ATOM     68  OH  K26 d          -4.966  25.269 -18.355  0.00  0.00    -0.361 OA
ATOM     69  H30 K26 d          -4.886  26.193 -18.557  0.00  0.00     0.217 HD
ENDBRANCH  62  68
ENDBRANCH  55  58
ENDBRANCH   1  55
TORSDOF 17
ENDMDL
MODEL 5
REMARK VINA RESULT:      -6.9      2.272      6.902
REMARK  17 active torsions:
REMARK  status: ('A' for Active; 'I' for Inactive)
REMARK    1  A    between atoms: CBD_3  and  OAI_4 
REMARK    2  A    between atoms: CBF_7  and  CAV_8 
REMARK    3  A    between atoms: CAV_8  and  CBI_9 
REMARK    4  A    between atoms: CBI_9  and  PBK_10 
REMARK    5  A    between atoms: CBI_9  and  NAY_14 
REMARK       I    between atoms: NAY_14  and  C_15 
REMARK    6  A    between atoms: C_15  and  CA_17 
REMARK    7  A    between atoms: CA_17  and  N_18 
REMARK    8  A    between atoms: CA_17  and  CB_30 
REMARK       I    between atoms: N_18  and  CBB_19 
REMARK    9  A    between atoms: CBB_19  and  CBJ_21 
REMARK   10  A    between atoms: CBJ_21  and  CBG_22 
REMARK   11  A    between atoms: CBJ_21  and  NAX_26 
REMARK   12  A    between atoms: CBG_22  and  CAC_23 
REMARK   13  A    between atoms: CBG_22  and  CAT_24 
REMARK   14  A    between atoms: CAT_24  and  CAA_25 
REMARK       I    between atoms: NAX_26  and  CAZ_27 
REMARK   15  A    between atoms: CAZ_27  and  CAB_28 
REMARK   16  A    between atoms: CB_30  and  CG_31 
REMARK   17  A    between atoms: CZ_34  and  OH_35 
ROOT
ATOM      1  CA  K26 d          -7.262  25.443 -12.749  0.00  0.00     0.093 C 
ATOM      2  H10 K26 d          -7.331  25.885 -13.754  0.00  0.00     0.088 H 
ENDROOT
BRANCH   1   3
ATOM      3  C   K26 d          -8.495  25.861 -11.944  0.00  0.00     0.241 C 
ATOM      4  NAY K26 d          -8.997  24.921 -11.139  0.00  0.00    -0.342 N 
ATOM      5  H9  K26 d          -8.507  24.054 -11.046  0.00  0.00     0.163 HD
ATOM      6  O   K26 d          -8.973  26.986 -12.097  0.00  0.00    -0.271 OA
BRANCH   4   7
ATOM      7  CBI K26 d         -10.246  25.116 -10.385  0.00  0.00     0.124 C 
ATOM      8  H8  K26 d         -10.675  26.094 -10.651  0.00  0.00     0.095 H 
BRANCH   7   9
ATOM      9  CAV K26 d         -11.237  24.009 -10.814  0.00  0.00    -0.010 C 
ATOM     10  H6  K26 d         -11.130  23.152 -10.133  0.00  0.00     0.044 H 
ATOM     11  H7  K26 d         -12.262  24.403 -10.749  0.00  0.00     0.044 H 
BRANCH   9  12
ATOM     12  CBF K26 d         -10.974  23.538 -12.253  0.00  0.00    -0.055 A 
ATOM     13  CAR K26 d         -11.299  24.376 -13.317  0.00  0.00    -0.074 A 
ATOM     14  CAN K26 d         -11.059  23.975 -14.629  0.00  0.00    -0.051 A 
ATOM     15  H1  K26 d         -11.743  25.346 -13.123  0.00  0.00     0.084 H 
ATOM     16  CBD K26 d         -10.487  22.727 -14.881  0.00  0.00     0.065 A 
ATOM     17  H2  K26 d         -11.315  24.631 -15.453  0.00  0.00     0.087 H 
ATOM     18  CAO K26 d         -10.147  21.881 -13.821  0.00  0.00    -0.051 A 
ATOM     19  CAS K26 d         -10.394  22.287 -12.510  0.00  0.00    -0.074 A 
ATOM     20  H4  K26 d          -9.694  20.915 -14.018  0.00  0.00     0.087 H 
ATOM     21  H5  K26 d         -10.137  21.633 -11.684  0.00  0.00     0.084 H 
BRANCH  16  22
ATOM     22  OAI K26 d         -10.260  22.349 -16.168  0.00  0.00    -0.361 OA
ATOM     23  H3  K26 d          -9.360  22.059 -16.258  0.00  0.00     0.217 HD
ENDBRANCH  16  22
ENDBRANCH   9  12
ENDBRANCH   7   9
BRANCH   7  24
ATOM     24  PBK K26 d          -9.927  25.106  -8.570  0.00  0.00     0.283 P 
ATOM     25  OAJ K26 d         -10.016  26.617  -8.107  0.00  0.00    -0.638 OA
ATOM     26  OAK K26 d         -11.217  24.313  -7.963  0.00  0.00    -0.638 OA
ATOM     27  OAG K26 d          -8.626  24.483  -8.206  0.00  0.00    -0.638 OA
ENDBRANCH   7  24
ENDBRANCH   4   7
ENDBRANCH   1   3
BRANCH   1  28
ATOM     28  N   K26 d          -6.053  25.958 -12.075  0.00  0.00    -0.346 N 
ATOM     29  CBB K26 d          -5.428  25.335 -11.067  0.00  0.00     0.241 C 
ATOM     30  OAF K26 d          -5.797  24.275 -10.561  0.00  0.00    -0.271 OA
ATOM     31  H11 K26 d          -5.676  26.829 -12.391  0.00  0.00     0.163 HD
BRANCH  29  32
ATOM     32  CBJ K26 d          -4.219  26.097 -10.497  0.00  0.00     0.092 C 
ATOM     33  H12 K26 d          -4.390  27.176 -10.623  0.00  0.00     0.088 H 
BRANCH  32  34
ATOM     34  CBG K26 d          -2.907  25.749 -11.212  0.00  0.00    -0.030 C 
ATOM     35  H13 K26 d          -2.305  26.665 -11.304  0.00  0.00     0.043 H 
BRANCH  34  36
ATOM     36  CAC K26 d          -2.118  24.724 -10.388  0.00  0.00    -0.071 C 
ATOM     37  H14 K26 d          -2.776  24.283  -9.624  0.00  0.00     0.028 H 
ATOM     38  H15 K26 d          -1.269  25.222  -9.898  0.00  0.00     0.028 H 
ATOM     39  H16 K26 d          -1.744  23.930 -11.052  0.00  0.00     0.028 H 
ENDBRANCH  34  36
BRANCH  34  40
ATOM     40  CAT K26 d          -3.178  25.200 -12.622  0.00  0.00    -0.063 C 
ATOM     41  H17 K26 d          -2.756  25.899 -13.359  0.00  0.00     0.033 H 
ATOM     42  H18 K26 d          -4.266  25.126 -12.768  0.00  0.00     0.033 H 
BRANCH  40  43
ATOM     43  CAA K26 d          -2.560  23.820 -12.844  0.00  0.00    -0.076 C 
ATOM     44  H19 K26 d          -1.879  23.585 -12.013  0.00  0.00     0.027 H 
ATOM     45  H20 K26 d          -1.998  23.818 -13.790  0.00  0.00     0.027 H 
ATOM     46  H21 K26 d          -3.358  23.064 -12.891  0.00  0.00     0.027 H 
ENDBRANCH  40  43
ENDBRANCH  34  40
ENDBRANCH  32  34
BRANCH  32  47
ATOM     47  NAX K26 d          -4.167  25.789  -9.054  0.00  0.00    -0.348 N 
ATOM     48  CAZ K26 d          -5.036  26.310  -8.186  0.00  0.00     0.214 C 
ATOM     49  OAD K26 d          -5.905  27.128  -8.482  0.00  0.00    -0.274 OA
ATOM     50  H22 K26 d          -3.459  25.169  -8.716  0.00  0.00     0.163 HD
BRANCH  48  51
ATOM     51  CAB K26 d          -4.869  25.850  -6.736  0.00  0.00    -0.003 C 
ATOM     52  H23 K26 d          -5.642  26.320  -6.110  0.00  0.00     0.040 H 
ATOM     53  H24 K26 d          -3.873  26.142  -6.371  0.00  0.00     0.040 H 
ATOM     54  H25 K26 d          -4.972  24.756  -6.685  0.00  0.00     0.040 H 
ENDBRANCH  48  51
ENDBRANCH  32  47
ENDBRANCH  29  32
ENDBRANCH   1  28
BRANCH   1  55
ATOM     55  CB  K26 d          -7.156  23.930 -12.892  0.00  0.00    -0.014 C 
ATOM     56  H26 K26 d          -8.145  23.475 -12.742  0.00  0.00     0.043 H 
ATOM     57  H27 K26 d          -6.454  23.537 -12.142  0.00  0.00     0.043 H 
BRANCH  55  58
ATOM     58  CG  K26 d          -6.643  23.600 -14.303  0.00  0.00    -0.056 A 
ATOM     59  CD1 K26 d          -7.225  24.206 -15.414  0.00  0.00    -0.074 A 
ATOM     60  CE1 K26 d          -6.752  23.922 -16.697  0.00  0.00    -0.051 A 
ATOM     61  H28 K26 d          -8.047  24.901 -15.282  0.00  0.00     0.084 H 
ATOM     62  CZ  K26 d          -5.692  23.030 -16.872  0.00  0.00     0.065 A 
ATOM     63  H29 K26 d          -7.208  24.394 -17.559  0.00  0.00     0.087 H 
ATOM     64  CE2 K26 d          -5.107  22.428 -15.758  0.00  0.00    -0.051 A 
ATOM     65  CD2 K26 d          -5.577  22.715 -14.474  0.00  0.00    -0.074 A 
ATOM     66  H31 K26 d          -4.284  21.736 -15.890  0.00  0.00     0.087 H 
ATOM     67  H32 K26 d          -5.113  22.251 -13.611  0.00  0.00     0.084 H 
BRANCH  62  68
ATOM     68  OH  K26 d          -5.239  22.745 -18.131  0.00  0.00    -0.361 OA
ATOM     69  H30 K26 d          -5.214  23.543 -18.645  0.00  0.00     0.217 HD
ENDBRANCH  62  68
ENDBRANCH  55  58
ENDBRANCH   1  55
TORSDOF 17
ENDMDL
MODEL 6
REMARK VINA RESULT:      -6.9      2.463      6.198
REMARK  17 active torsions:
REMARK  status: ('A' for Active; 'I' for Inactive)
REMARK    1  A    between atoms: CBD_3  and  OAI_4 
REMARK    2  A    between atoms: CBF_7  and  CAV_8 
REMARK    3  A    between atoms: CAV_8  and  CBI_9 
REMARK    4  A    between atoms: CBI_9  and  PBK_10 
REMARK    5  A    between atoms: CBI_9  and  NAY_14 
REMARK       I    between atoms: NAY_14  and  C_15 
REMARK    6  A    between atoms: C_15  and  CA_17 
REMARK    7  A    between atoms: CA_17  and  N_18 
REMARK    8  A    between atoms: CA_17  and  CB_30 
REMARK       I    between atoms: N_18  and  CBB_19 
REMARK    9  A    between atoms: CBB_19  and  CBJ_21 
REMARK   10  A    between atoms: CBJ_21  and  CBG_22 
REMARK   11  A    between atoms: CBJ_21  and  NAX_26 
REMARK   12  A    between atoms: CBG_22  and  CAC_23 
REMARK   13  A    between atoms: CBG_22  and  CAT_24 
REMARK   14  A    between atoms: CAT_24  and  CAA_25 
REMARK       I    between atoms: NAX_26  and  CAZ_27 
REMARK   15  A    between atoms: CAZ_27  and  CAB_28 
REMARK   16  A    between atoms: CB_30  and  CG_31 
REMARK   17  A    between atoms: CZ_34  and  OH_35 
ROOT
ATOM      1  CA  K26 d          -8.255  25.851 -11.162  0.00  0.00     0.093 C 
ATOM      2  H10 K26 d          -8.011  24.991 -10.520  0.00  0.00     0.088 H 
ENDROOT
BRANCH   1   3
ATOM      3  C   K26 d          -9.679  25.676 -11.695  0.00  0.00     0.241 C 
ATOM      4  NAY K26 d         -10.276  24.529 -11.362  0.00  0.00    -0.342 N 
ATOM      5  H9  K26 d          -9.810  23.906 -10.735  0.00  0.00     0.163 HD
ATOM      6  O   K26 d         -10.176  26.548 -12.410  0.00  0.00    -0.271 OA
BRANCH   4   7
ATOM      7  CBI K26 d         -11.599  24.149 -11.887  0.00  0.00     0.124 C 
ATOM      8  H8  K26 d         -11.940  24.924 -12.589  0.00  0.00     0.095 H 
BRANCH   7   9
ATOM      9  CAV K26 d         -11.439  22.819 -12.658  0.00  0.00    -0.010 C 
ATOM     10  H6  K26 d         -10.839  22.125 -12.050  0.00  0.00     0.044 H 
ATOM     11  H7  K26 d         -12.435  22.386 -12.833  0.00  0.00     0.044 H 
BRANCH   9  12
ATOM     12  CBF K26 d         -10.742  23.027 -14.011  0.00  0.00    -0.055 A 
ATOM     13  CAR K26 d          -9.937  22.015 -14.529  0.00  0.00    -0.074 A 
ATOM     14  CAN K26 d          -9.305  22.177 -15.759  0.00  0.00    -0.051 A 
ATOM     15  H1  K26 d          -9.802  21.096 -13.971  0.00  0.00     0.084 H 
ATOM     16  CBD K26 d          -9.479  23.359 -16.480  0.00  0.00     0.065 A 
ATOM     17  H2  K26 d          -8.679  21.386 -16.157  0.00  0.00     0.087 H 
ATOM     18  CAO K26 d         -10.292  24.379 -15.976  0.00  0.00    -0.051 A 
ATOM     19  CAS K26 d         -10.919  24.211 -14.741  0.00  0.00    -0.074 A 
ATOM     20  H4  K26 d         -10.434  25.293 -16.541  0.00  0.00     0.087 H 
ATOM     21  H5  K26 d         -11.546  25.000 -14.343  0.00  0.00     0.084 H 
BRANCH  16  22
ATOM     22  OAI K26 d          -8.853  23.503 -17.680  0.00  0.00    -0.361 OA
ATOM     23  H3  K26 d          -9.492  23.433 -18.380  0.00  0.00     0.217 HD
ENDBRANCH  16  22
ENDBRANCH   9  12
ENDBRANCH   7   9
BRANCH   7  24
ATOM     24  PBK K26 d         -12.835  24.027 -10.526  0.00  0.00     0.283 P 
ATOM     25  OAJ K26 d         -13.702  22.741 -10.843  0.00  0.00    -0.638 OA
ATOM     26  OAK K26 d         -11.922  23.709  -9.212  0.00  0.00    -0.638 OA
ATOM     27  OAG K26 d         -13.673  25.248 -10.381  0.00  0.00    -0.638 OA
ENDBRANCH   7  24
ENDBRANCH   4   7
ENDBRANCH   1   3
BRANCH   1  28
ATOM     28  N   K26 d          -7.318  25.884 -12.304  0.00  0.00    -0.346 N 
ATOM     29  CBB K26 d          -6.963  24.809 -13.019  0.00  0.00     0.241 C 
ATOM     30  OAF K26 d          -7.349  23.661 -12.800  0.00  0.00    -0.271 OA
ATOM     31  H11 K26 d          -6.923  26.767 -12.559  0.00  0.00     0.163 HD
BRANCH  29  32
ATOM     32  CBJ K26 d          -5.933  25.091 -14.128  0.00  0.00     0.092 C 
ATOM     33  H12 K26 d          -5.889  26.176 -14.301  0.00  0.00     0.088 H 
BRANCH  32  34
ATOM     34  CBG K26 d          -6.297  24.425 -15.460  0.00  0.00    -0.030 C 
ATOM     35  H13 K26 d          -7.383  24.247 -15.478  0.00  0.00     0.043 H 
BRANCH  34  36
ATOM     36  CAC K26 d          -5.932  25.351 -16.626  0.00  0.00    -0.071 C 
ATOM     37  H14 K26 d          -5.039  25.938 -16.363  0.00  0.00     0.028 H 
ATOM     38  H15 K26 d          -6.771  26.032 -16.830  0.00  0.00     0.028 H 
ATOM     39  H16 K26 d          -5.724  24.749 -17.523  0.00  0.00     0.028 H 
ENDBRANCH  34  36
BRANCH  34  40
ATOM     40  CAT K26 d          -5.579  23.074 -15.613  0.00  0.00    -0.063 C 
ATOM     41  H17 K26 d          -6.186  22.296 -15.126  0.00  0.00     0.033 H 
ATOM     42  H18 K26 d          -4.599  23.138 -15.118  0.00  0.00     0.033 H 
BRANCH  40  43
ATOM     43  CAA K26 d          -5.365  22.684 -17.075  0.00  0.00    -0.076 C 
ATOM     44  H19 K26 d          -5.320  23.592 -17.693  0.00  0.00     0.027 H 
ATOM     45  H20 K26 d          -6.200  22.052 -17.412  0.00  0.00     0.027 H 
ATOM     46  H21 K26 d          -4.422  22.126 -17.171  0.00  0.00     0.027 H 
ENDBRANCH  40  43
ENDBRANCH  34  40
ENDBRANCH  32  34
BRANCH  32  47
ATOM     47  NAX K26 d          -4.625  24.638 -13.615  0.00  0.00    -0.348 N 
ATOM     48  CAZ K26 d          -3.729  25.486 -13.108  0.00  0.00     0.214 C 
ATOM     49  OAD K26 d          -3.872  26.707 -13.076  0.00  0.00    -0.274 OA
ATOM     50  H22 K26 d          -4.403  23.663 -13.649  0.00  0.00     0.163 HD
BRANCH  48  51
ATOM     51  CAB K26 d          -2.444  24.843 -12.579  0.00  0.00    -0.003 C 
ATOM     52  H23 K26 d          -2.560  24.620 -11.509  0.00  0.00     0.040 H 
ATOM     53  H24 K26 d          -1.602  25.537 -12.721  0.00  0.00     0.040 H 
ATOM     54  H25 K26 d          -2.248  23.911 -13.129  0.00  0.00     0.040 H 
ENDBRANCH  48  51
ENDBRANCH  32  47
ENDBRANCH  29  32
ENDBRANCH   1  28
BRANCH   1  55
ATOM     55  CB  K26 d          -8.100  27.126 -10.344  0.00  0.00    -0.014 C 
ATOM     56  H26 K26 d          -9.046  27.353  -9.832  0.00  0.00     0.043 H 
ATOM     57  H27 K26 d          -7.833  27.961 -11.008  0.00  0.00     0.043 H 
BRANCH  55  58
ATOM     58  CG  K26 d          -6.987  26.916  -9.304  0.00  0.00    -0.056 A 
ATOM     59  CD1 K26 d          -5.670  26.736  -9.722  0.00  0.00    -0.074 A 
ATOM     60  CE1 K26 d          -4.652  26.561  -8.781  0.00  0.00    -0.051 A 
ATOM     61  H28 K26 d          -5.435  26.731 -10.781  0.00  0.00     0.084 H 
ATOM     62  CZ  K26 d          -4.950  26.569  -7.418  0.00  0.00     0.065 A 
ATOM     63  H29 K26 d          -3.629  26.419  -9.110  0.00  0.00     0.087 H 
ATOM     64  CE2 K26 d          -6.268  26.755  -7.000  0.00  0.00    -0.051 A 
ATOM     65  CD2 K26 d          -7.285  26.934  -7.941  0.00  0.00    -0.074 A 
ATOM     66  H31 K26 d          -6.503  26.762  -5.942  0.00  0.00     0.087 H 
ATOM     67  H32 K26 d          -8.307  27.087  -7.611  0.00  0.00     0.084 H 
BRANCH  62  68
ATOM     68  OH  K26 d          -3.953  26.386  -6.499  0.00  0.00    -0.361 OA
ATOM     69  H30 K26 d          -3.932  25.475  -6.233  0.00  0.00     0.217 HD
ENDBRANCH  62  68
ENDBRANCH  55  58
ENDBRANCH   1  55
TORSDOF 17
ENDMDL
MODEL 7
REMARK VINA RESULT:      -6.7      2.339      5.778
REMARK  17 active torsions:
REMARK  status: ('A' for Active; 'I' for Inactive)
REMARK    1  A    between atoms: CBD_3  and  OAI_4 
REMARK    2  A    between atoms: CBF_7  and  CAV_8 
REMARK    3  A    between atoms: CAV_8  and  CBI_9 
REMARK    4  A    between atoms: CBI_9  and  PBK_10 
REMARK    5  A    between atoms: CBI_9  and  NAY_14 
REMARK       I    between atoms: NAY_14  and  C_15 
REMARK    6  A    between atoms: C_15  and  CA_17 
REMARK    7  A    between atoms: CA_17  and  N_18 
REMARK    8  A    between atoms: CA_17  and  CB_30 
REMARK       I    between atoms: N_18  and  CBB_19 
REMARK    9  A    between atoms: CBB_19  and  CBJ_21 
REMARK   10  A    between atoms: CBJ_21  and  CBG_22 
REMARK   11  A    between atoms: CBJ_21  and  NAX_26 
REMARK   12  A    between atoms: CBG_22  and  CAC_23 
REMARK   13  A    between atoms: CBG_22  and  CAT_24 
REMARK   14  A    between atoms: CAT_24  and  CAA_25 
REMARK       I    between atoms: NAX_26  and  CAZ_27 
REMARK   15  A    between atoms: CAZ_27  and  CAB_28 
REMARK   16  A    between atoms: CB_30  and  CG_31 
REMARK   17  A    between atoms: CZ_34  and  OH_35 
ROOT
ATOM      1  CA  K26 d          -7.575  25.785 -11.859  0.00  0.00     0.093 C 
ATOM      2  H10 K26 d          -7.226  24.931 -11.260  0.00  0.00     0.088 H 
ENDROOT
BRANCH   1   3
ATOM      3  C   K26 d          -9.061  26.011 -11.572  0.00  0.00     0.241 C 
ATOM      4  NAY K26 d          -9.667  25.032 -10.896  0.00  0.00    -0.342 N 
ATOM      5  H9  K26 d          -9.118  24.271 -10.552  0.00  0.00     0.163 HD
ATOM      6  O   K26 d          -9.618  27.026 -11.993  0.00  0.00    -0.271 OA
BRANCH   4   7
ATOM      7  CBI K26 d         -11.117  25.034 -10.639  0.00  0.00     0.124 C 
ATOM      8  H8  K26 d         -11.584  25.835 -11.231  0.00  0.00     0.095 H 
BRANCH   7   9
ATOM      9  CAV K26 d         -11.684  23.675 -11.110  0.00  0.00    -0.010 C 
ATOM     10  H6  K26 d         -11.361  22.892 -10.409  0.00  0.00     0.044 H 
ATOM     11  H7  K26 d         -12.783  23.730 -11.116  0.00  0.00     0.044 H 
BRANCH   9  12
ATOM     12  CBF K26 d         -11.195  23.314 -12.522  0.00  0.00    -0.055 A 
ATOM     13  CAR K26 d         -10.436  22.161 -12.709  0.00  0.00    -0.074 A 
ATOM     14  CAN K26 d          -9.993  21.809 -13.981  0.00  0.00    -0.051 A 
ATOM     15  H1  K26 d         -10.189  21.535 -11.859  0.00  0.00     0.084 H 
ATOM     16  CBD K26 d         -10.310  22.613 -15.076  0.00  0.00     0.065 A 
ATOM     17  H2  K26 d          -9.401  20.911 -14.120  0.00  0.00     0.087 H 
ATOM     18  CAO K26 d         -11.080  23.768 -14.903  0.00  0.00    -0.051 A 
ATOM     19  CAS K26 d         -11.517  24.117 -13.625  0.00  0.00    -0.074 A 
ATOM     20  H4  K26 d         -11.334  24.387 -15.755  0.00  0.00     0.087 H 
ATOM     21  H5  K26 d         -12.110  25.014 -13.484  0.00  0.00     0.084 H 
BRANCH  16  22
ATOM     22  OAI K26 d          -9.868  22.256 -16.312  0.00  0.00    -0.361 OA
ATOM     23  H3  K26 d         -10.527  22.477 -16.959  0.00  0.00     0.217 HD
ENDBRANCH  16  22
ENDBRANCH   9  12
ENDBRANCH   7   9
BRANCH   7  24
ATOM     24  PBK K26 d         -11.468  25.361  -8.859  0.00  0.00     0.283 P 
ATOM     25  OAJ K26 d         -10.355  26.379  -8.379  0.00  0.00    -0.638 OA
ATOM     26  OAK K26 d         -12.895  26.152  -8.894  0.00  0.00    -0.638 OA
ATOM     27  OAG K26 d         -11.497  24.127  -8.029  0.00  0.00    -0.638 OA
ENDBRANCH   7  24
ENDBRANCH   4   7
ENDBRANCH   1   3
BRANCH   1  28
ATOM     28  N   K26 d          -7.407  25.471 -13.293  0.00  0.00    -0.346 N 
ATOM     29  CBB K26 d          -7.074  24.263 -13.766  0.00  0.00     0.241 C 
ATOM     30  OAF K26 d          -6.841  23.275 -13.069  0.00  0.00    -0.271 OA
ATOM     31  H11 K26 d          -7.552  26.208 -13.953  0.00  0.00     0.163 HD
BRANCH  29  32
ATOM     32  CBJ K26 d          -6.911  24.199 -15.295  0.00  0.00     0.092 C 
ATOM     33  H12 K26 d          -7.368  23.268 -15.660  0.00  0.00     0.088 H 
BRANCH  32  34
ATOM     34  CBG K26 d          -5.442  24.197 -15.736  0.00  0.00    -0.030 C 
ATOM     35  H13 K26 d          -5.386  24.578 -16.767  0.00  0.00     0.043 H 
BRANCH  34  36
ATOM     36  CAC K26 d          -4.621  25.120 -14.826  0.00  0.00    -0.071 C 
ATOM     37  H14 K26 d          -3.577  24.772 -14.798  0.00  0.00     0.028 H 
ATOM     38  H15 K26 d          -5.041  25.101 -13.810  0.00  0.00     0.028 H 
ATOM     39  H16 K26 d          -4.656  26.147 -15.218  0.00  0.00     0.028 H 
ENDBRANCH  34  36
BRANCH  34  40
ATOM     40  CAT K26 d          -4.862  22.774 -15.710  0.00  0.00    -0.063 C 
ATOM     41  H17 K26 d          -4.499  22.523 -16.717  0.00  0.00     0.033 H 
ATOM     42  H18 K26 d          -5.660  22.074 -15.422  0.00  0.00     0.033 H 
BRANCH  40  43
ATOM     43  CAA K26 d          -3.704  22.630 -14.723  0.00  0.00    -0.076 C 
ATOM     44  H19 K26 d          -2.763  22.913 -15.217  0.00  0.00     0.027 H 
ATOM     45  H20 K26 d          -3.640  21.585 -14.383  0.00  0.00     0.027 H 
ATOM     46  H21 K26 d          -3.876  23.286 -13.857  0.00  0.00     0.027 H 
ENDBRANCH  40  43
ENDBRANCH  34  40
ENDBRANCH  32  34
BRANCH  32  47
ATOM     47  NAX K26 d          -7.659  25.345 -15.849  0.00  0.00    -0.348 N 
ATOM     48  CAZ K26 d          -8.337  25.263 -16.995  0.00  0.00     0.214 C 
ATOM     49  OAD K26 d          -8.355  24.270 -17.719  0.00  0.00    -0.274 OA
ATOM     50  H22 K26 d          -7.658  26.212 -15.348  0.00  0.00     0.163 HD
BRANCH  48  51
ATOM     51  CAB K26 d          -9.095  26.530 -17.401  0.00  0.00    -0.003 C 
ATOM     52  H23 K26 d          -8.957  26.711 -18.476  0.00  0.00     0.040 H 
ATOM     53  H24 K26 d          -8.706  27.387 -16.831  0.00  0.00     0.040 H 
ATOM     54  H25 K26 d         -10.165  26.401 -17.184  0.00  0.00     0.040 H 
ENDBRANCH  48  51
ENDBRANCH  32  47
ENDBRANCH  29  32
ENDBRANCH   1  28
BRANCH   1  55
ATOM     55  CB  K26 d          -6.730  27.002 -11.506  0.00  0.00    -0.014 C 
ATOM     56  H26 K26 d          -7.379  27.882 -11.394  0.00  0.00     0.043 H 
ATOM     57  H27 K26 d          -5.996  27.187 -12.305  0.00  0.00     0.043 H 
BRANCH  55  58
ATOM     58  CG  K26 d          -5.995  26.729 -10.184  0.00  0.00    -0.056 A 
ATOM     59  CD1 K26 d          -4.653  27.079 -10.049  0.00  0.00    -0.074 A 
ATOM     60  CE1 K26 d          -3.985  26.848  -8.844  0.00  0.00    -0.051 A 
ATOM     61  H28 K26 d          -4.126  27.531 -10.882  0.00  0.00     0.084 H 
ATOM     62  CZ  K26 d          -4.660  26.268  -7.769  0.00  0.00     0.065 A 
ATOM     63  H29 K26 d          -2.941  27.120  -8.743  0.00  0.00     0.087 H 
ATOM     64  CE2 K26 d          -6.005  25.924  -7.903  0.00  0.00    -0.051 A 
ATOM     65  CD2 K26 d          -6.675  26.158  -9.106  0.00  0.00    -0.074 A 
ATOM     66  H31 K26 d          -6.532  25.474  -7.070  0.00  0.00     0.087 H 
ATOM     67  H32 K26 d          -7.722  25.896  -9.203  0.00  0.00     0.084 H 
BRANCH  62  68
ATOM     68  OH  K26 d          -4.000  26.033  -6.594  0.00  0.00    -0.361 OA
ATOM     69  H30 K26 d          -3.443  26.775  -6.391  0.00  0.00     0.217 HD
ENDBRANCH  62  68
ENDBRANCH  55  58
ENDBRANCH   1  55
TORSDOF 17
ENDMDL
MODEL 8
REMARK VINA RESULT:      -6.6      2.587      8.336
REMARK  17 active torsions:
REMARK  status: ('A' for Active; 'I' for Inactive)
REMARK    1  A    between atoms: CBD_3  and  OAI_4 
REMARK    2  A    between atoms: CBF_7  and  CAV_8 
REMARK    3  A    between atoms: CAV_8  and  CBI_9 
REMARK    4  A    between atoms: CBI_9  and  PBK_10 
REMARK    5  A    between atoms: CBI_9  and  NAY_14 
REMARK       I    between atoms: NAY_14  and  C_15 
REMARK    6  A    between atoms: C_15  and  CA_17 
REMARK    7  A    between atoms: CA_17  and  N_18 
REMARK    8  A    between atoms: CA_17  and  CB_30 
REMARK       I    between atoms: N_18  and  CBB_19 
REMARK    9  A    between atoms: CBB_19  and  CBJ_21 
REMARK   10  A    between atoms: CBJ_21  and  CBG_22 
REMARK   11  A    between atoms: CBJ_21  and  NAX_26 
REMARK   12  A    between atoms: CBG_22  and  CAC_23 
REMARK   13  A    between atoms: CBG_22  and  CAT_24 
REMARK   14  A    between atoms: CAT_24  and  CAA_25 
REMARK       I    between atoms: NAX_26  and  CAZ_27 
REMARK   15  A    between atoms: CAZ_27  and  CAB_28 
REMARK   16  A    between atoms: CB_30  and  CG_31 
REMARK   17  A    between atoms: CZ_34  and  OH_35 
ROOT
ATOM      1  CA  K26 d          -7.077  24.281 -10.849  0.00  0.00     0.093 C 
ATOM      2  H10 K26 d          -6.641  25.108 -11.428  0.00  0.00     0.088 H 
ENDROOT
BRANCH   1   3
ATOM      3  C   K26 d          -8.196  23.641 -11.675  0.00  0.00     0.241 C 
ATOM      4  NAY K26 d          -8.396  24.182 -12.880  0.00  0.00    -0.342 N 
ATOM      5  H9  K26 d          -7.770  24.893 -13.200  0.00  0.00     0.163 HD
ATOM      6  O   K26 d          -8.861  22.722 -11.196  0.00  0.00    -0.271 OA
BRANCH   4   7
ATOM      7  CBI K26 d          -9.507  23.767 -13.753  0.00  0.00     0.124 C 
ATOM      8  H8  K26 d          -9.741  22.711 -13.555  0.00  0.00     0.095 H 
BRANCH   7   9
ATOM      9  CAV K26 d         -10.741  24.625 -13.391  0.00  0.00    -0.010 C 
ATOM     10  H6  K26 d         -10.409  25.506 -12.824  0.00  0.00     0.044 H 
ATOM     11  H7  K26 d         -11.234  24.950 -14.319  0.00  0.00     0.044 H 
BRANCH   9  12
ATOM     12  CBF K26 d         -11.750  23.836 -12.541  0.00  0.00    -0.055 A 
ATOM     13  CAR K26 d         -11.669  22.446 -12.497  0.00  0.00    -0.074 A 
ATOM     14  CAN K26 d         -12.565  21.713 -11.724  0.00  0.00    -0.051 A 
ATOM     15  H1  K26 d         -10.903  21.933 -13.067  0.00  0.00     0.084 H 
ATOM     16  CBD K26 d         -13.550  22.371 -10.987  0.00  0.00     0.065 A 
ATOM     17  H2  K26 d         -12.497  20.631 -11.694  0.00  0.00     0.087 H 
ATOM     18  CAO K26 d         -13.636  23.766 -11.015  0.00  0.00    -0.051 A 
ATOM     19  CAS K26 d         -12.738  24.495 -11.795  0.00  0.00    -0.074 A 
ATOM     20  H4  K26 d         -14.396  24.278 -10.436  0.00  0.00     0.087 H 
ATOM     21  H5  K26 d         -12.803  25.577 -11.825  0.00  0.00     0.084 H 
BRANCH  16  22
ATOM     22  OAI K26 d         -14.419  21.640 -10.238  0.00  0.00    -0.361 OA
ATOM     23  H3  K26 d         -14.722  20.895 -10.744  0.00  0.00     0.217 HD
ENDBRANCH  16  22
ENDBRANCH   9  12
ENDBRANCH   7   9
BRANCH   7  24
ATOM     24  PBK K26 d          -9.040  23.926 -15.529  0.00  0.00     0.283 P 
ATOM     25  OAJ K26 d          -9.838  25.178 -16.077  0.00  0.00    -0.638 OA
ATOM     26  OAK K26 d          -7.458  24.321 -15.471  0.00  0.00    -0.638 OA
ATOM     27  OAG K26 d          -9.312  22.696 -16.320  0.00  0.00    -0.638 OA
ENDBRANCH   7  24
ENDBRANCH   4   7
ENDBRANCH   1   3
BRANCH   1  28
ATOM     28  N   K26 d          -7.651  24.814  -9.597  0.00  0.00    -0.346 N 
ATOM     29  CBB K26 d          -7.990  26.095  -9.409  0.00  0.00     0.241 C 
ATOM     30  OAF K26 d          -7.843  26.990 -10.242  0.00  0.00    -0.271 OA
ATOM     31  H11 K26 d          -7.795  24.176  -8.840  0.00  0.00     0.163 HD
BRANCH  29  32
ATOM     32  CBJ K26 d          -8.521  26.416  -8.001  0.00  0.00     0.092 C 
ATOM     33  H12 K26 d          -8.966  27.422  -8.012  0.00  0.00     0.088 H 
BRANCH  32  34
ATOM     34  CBG K26 d          -7.419  26.409  -6.935  0.00  0.00    -0.030 C 
ATOM     35  H13 K26 d          -7.788  26.941  -6.045  0.00  0.00     0.043 H 
BRANCH  34  36
ATOM     36  CAC K26 d          -7.082  24.966  -6.539  0.00  0.00    -0.071 C 
ATOM     37  H14 K26 d          -6.370  24.543  -7.264  0.00  0.00     0.028 H 
ATOM     38  H15 K26 d          -8.001  24.363  -6.534  0.00  0.00     0.028 H 
ATOM     39  H16 K26 d          -6.632  24.956  -5.535  0.00  0.00     0.028 H 
ENDBRANCH  34  36
BRANCH  34  40
ATOM     40  CAT K26 d          -6.157  27.126  -7.443  0.00  0.00    -0.063 C 
ATOM     41  H17 K26 d          -5.829  27.846  -6.678  0.00  0.00     0.033 H 
ATOM     42  H18 K26 d          -6.408  27.665  -8.369  0.00  0.00     0.033 H 
BRANCH  40  43
ATOM     43  CAA K26 d          -5.008  26.162  -7.733  0.00  0.00    -0.076 C 
ATOM     44  H19 K26 d          -5.417  25.179  -8.011  0.00  0.00     0.027 H 
ATOM     45  H20 K26 d          -4.381  26.058  -6.835  0.00  0.00     0.027 H 
ATOM     46  H21 K26 d          -4.400  26.554  -8.561  0.00  0.00     0.027 H 
ENDBRANCH  40  43
ENDBRANCH  34  40
ENDBRANCH  32  34
BRANCH  32  47
ATOM     47  NAX K26 d          -9.581  25.429  -7.714  0.00  0.00    -0.348 N 
ATOM     48  CAZ K26 d         -10.741  25.422  -8.375  0.00  0.00     0.214 C 
ATOM     49  OAD K26 d         -11.060  26.253  -9.223  0.00  0.00    -0.274 OA
ATOM     50  H22 K26 d          -9.426  24.745  -7.001  0.00  0.00     0.163 HD
BRANCH  48  51
ATOM     51  CAB K26 d         -11.710  24.303  -7.985  0.00  0.00    -0.003 C 
ATOM     52  H23 K26 d         -11.208  23.607  -7.297  0.00  0.00     0.040 H 
ATOM     53  H24 K26 d         -12.028  23.763  -8.888  0.00  0.00     0.040 H 
ATOM     54  H25 K26 d         -12.590  24.738  -7.488  0.00  0.00     0.040 H 
ENDBRANCH  48  51
ENDBRANCH  32  47
ENDBRANCH  29  32
ENDBRANCH   1  28
BRANCH   1  55
ATOM     55  CB  K26 d          -5.971  23.288 -10.516  0.00  0.00    -0.014 C 
ATOM     56  H26 K26 d          -6.395  22.277 -10.428  0.00  0.00     0.043 H 
ATOM     57  H27 K26 d          -5.495  23.570  -9.565  0.00  0.00     0.043 H 
BRANCH  55  58
ATOM     58  CG  K26 d          -4.926  23.312 -11.644  0.00  0.00    -0.056 A 
ATOM     59  CD1 K26 d          -5.126  22.552 -12.794  0.00  0.00    -0.074 A 
ATOM     60  CE1 K26 d          -4.188  22.583 -13.829  0.00  0.00    -0.051 A 
ATOM     61  H28 K26 d          -6.013  21.935 -12.887  0.00  0.00     0.084 H 
ATOM     62  CZ  K26 d          -3.046  23.378 -13.715  0.00  0.00     0.065 A 
ATOM     63  H29 K26 d          -4.346  21.989 -14.721  0.00  0.00     0.087 H 
ATOM     64  CE2 K26 d          -2.850  24.143 -12.566  0.00  0.00    -0.051 A 
ATOM     65  CD2 K26 d          -3.790  24.116 -11.533  0.00  0.00    -0.074 A 
ATOM     66  H31 K26 d          -1.965  24.762 -12.474  0.00  0.00     0.087 H 
ATOM     67  H32 K26 d          -3.636  24.719 -10.645  0.00  0.00     0.084 H 
BRANCH  62  68
ATOM     68  OH  K26 d          -2.124  23.398 -14.725  0.00  0.00    -0.361 OA
ATOM     69  H30 K26 d          -1.281  23.121 -14.388  0.00  0.00     0.217 HD
ENDBRANCH  62  68
ENDBRANCH  55  58
ENDBRANCH   1  55
TORSDOF 17
ENDMDL
MODEL 9
REMARK VINA RESULT:      -6.4      2.566      6.400
REMARK  17 active torsions:
REMARK  status: ('A' for Active; 'I' for Inactive)
REMARK    1  A    between atoms: CBD_3  and  OAI_4 
REMARK    2  A    between atoms: CBF_7  and  CAV_8 
REMARK    3  A    between atoms: CAV_8  and  CBI_9 
REMARK    4  A    between atoms: CBI_9  and  PBK_10 
REMARK    5  A    between atoms: CBI_9  and  NAY_14 
REMARK       I    between atoms: NAY_14  and  C_15 
REMARK    6  A    between atoms: C_15  and  CA_17 
REMARK    7  A    between atoms: CA_17  and  N_18 
REMARK    8  A    between atoms: CA_17  and  CB_30 
REMARK       I    between atoms: N_18  and  CBB_19 
REMARK    9  A    between atoms: CBB_19  and  CBJ_21 
REMARK   10  A    between atoms: CBJ_21  and  CBG_22 
REMARK   11  A    between atoms: CBJ_21  and  NAX_26 
REMARK   12  A    between atoms: CBG_22  and  CAC_23 
REMARK   13  A    between atoms: CBG_22  and  CAT_24 
REMARK   14  A    between atoms: CAT_24  and  CAA_25 
REMARK       I    between atoms: NAX_26  and  CAZ_27 
REMARK   15  A    between atoms: CAZ_27  and  CAB_28 
REMARK   16  A    between atoms: CB_30  and  CG_31 
REMARK   17  A    between atoms: CZ_34  and  OH_35 
ROOT
ATOM      1  CA  K26 d          -8.315  26.193 -14.180  0.00  0.00     0.093 C 
ATOM      2  H10 K26 d          -8.172  27.233 -13.851  0.00  0.00     0.088 H 
ENDROOT
BRANCH   1   3
ATOM      3  C   K26 d          -9.397  25.548 -13.311  0.00  0.00     0.241 C 
ATOM      4  NAY K26 d          -8.995  24.505 -12.579  0.00  0.00    -0.342 N 
ATOM      5  H9  K26 d          -8.024  24.265 -12.574  0.00  0.00     0.163 HD
ATOM      6  O   K26 d         -10.551  25.976 -13.353  0.00  0.00    -0.271 OA
BRANCH   4   7
ATOM      7  CBI K26 d          -9.931  23.697 -11.780  0.00  0.00     0.124 C 
ATOM      8  H8  K26 d          -9.354  23.043 -11.109  0.00  0.00     0.095 H 
BRANCH   7   9
ATOM      9  CAV K26 d         -10.777  24.664 -10.920  0.00  0.00    -0.010 C 
ATOM     10  H6  K26 d         -11.118  25.497 -11.552  0.00  0.00     0.044 H 
ATOM     11  H7  K26 d         -11.649  24.121 -10.526  0.00  0.00     0.044 H 
BRANCH   9  12
ATOM     12  CBF K26 d          -9.969  25.230  -9.741  0.00  0.00    -0.055 A 
ATOM     13  CAR K26 d          -9.497  24.365  -8.757  0.00  0.00    -0.074 A 
ATOM     14  CAN K26 d          -8.753  24.854  -7.686  0.00  0.00    -0.051 A 
ATOM     15  H1  K26 d          -9.711  23.304  -8.825  0.00  0.00     0.084 H 
ATOM     16  CBD K26 d          -8.476  26.219  -7.598  0.00  0.00     0.065 A 
ATOM     17  H2  K26 d          -8.389  24.176  -6.923  0.00  0.00     0.087 H 
ATOM     18  CAO K26 d          -8.936  27.097  -8.584  0.00  0.00    -0.051 A 
ATOM     19  CAS K26 d          -9.685  26.600  -9.652  0.00  0.00    -0.074 A 
ATOM     20  H4  K26 d          -8.713  28.156  -8.519  0.00  0.00     0.087 H 
ATOM     21  H5  K26 d         -10.048  27.277 -10.417  0.00  0.00     0.084 H 
BRANCH  16  22
ATOM     22  OAI K26 d          -7.750  26.682  -6.544  0.00  0.00    -0.361 OA
ATOM     23  H3  K26 d          -8.232  27.374  -6.108  0.00  0.00     0.217 HD
ENDBRANCH  16  22
ENDBRANCH   9  12
ENDBRANCH   7   9
BRANCH   7  24
ATOM     24  PBK K26 d         -10.971  22.631 -12.865  0.00  0.00     0.283 P 
ATOM     25  OAJ K26 d         -11.109  21.248 -12.108  0.00  0.00    -0.638 OA
ATOM     26  OAK K26 d         -12.425  23.370 -12.839  0.00  0.00    -0.638 OA
ATOM     27  OAG K26 d         -10.416  22.469 -14.236  0.00  0.00    -0.638 OA
ENDBRANCH   7  24
ENDBRANCH   4   7
ENDBRANCH   1   3
BRANCH   1  28
ATOM     28  N   K26 d          -7.051  25.450 -14.001  0.00  0.00    -0.346 N 
ATOM     29  CBB K26 d          -6.118  25.759 -13.091  0.00  0.00     0.241 C 
ATOM     30  OAF K26 d          -6.183  26.712 -12.313  0.00  0.00    -0.271 OA
ATOM     31  H11 K26 d          -6.880  24.666 -14.597  0.00  0.00     0.163 HD
BRANCH  29  32
ATOM     32  CBJ K26 d          -4.865  24.866 -13.133  0.00  0.00     0.092 C 
ATOM     33  H12 K26 d          -5.083  23.981 -13.747  0.00  0.00     0.088 H 
BRANCH  32  34
ATOM     34  CBG K26 d          -4.441  24.373 -11.744  0.00  0.00    -0.030 C 
ATOM     35  H13 K26 d          -4.132  25.242 -11.143  0.00  0.00     0.043 H 
BRANCH  34  36
ATOM     36  CAC K26 d          -5.624  23.689 -11.047  0.00  0.00    -0.071 C 
ATOM     37  H14 K26 d          -5.937  24.292 -10.182  0.00  0.00     0.028 H 
ATOM     38  H15 K26 d          -5.320  22.689 -10.707  0.00  0.00     0.028 H 
ATOM     39  H16 K26 d          -6.462  23.597 -11.753  0.00  0.00     0.028 H 
ENDBRANCH  34  36
BRANCH  34  40
ATOM     40  CAT K26 d          -3.253  23.402 -11.845  0.00  0.00    -0.063 C 
ATOM     41  H17 K26 d          -2.951  23.109 -10.828  0.00  0.00     0.033 H 
ATOM     42  H18 K26 d          -2.418  23.919 -12.340  0.00  0.00     0.033 H 
BRANCH  40  43
ATOM     43  CAA K26 d          -3.589  22.141 -12.639  0.00  0.00    -0.076 C 
ATOM     44  H19 K26 d          -2.825  21.981 -13.413  0.00  0.00     0.027 H 
ATOM     45  H20 K26 d          -4.574  22.260 -13.116  0.00  0.00     0.027 H 
ATOM     46  H21 K26 d          -3.613  21.276 -11.960  0.00  0.00     0.027 H 
ENDBRANCH  40  43
ENDBRANCH  34  40
ENDBRANCH  32  34
BRANCH  32  47
ATOM     47  NAX K26 d          -3.806  25.655 -13.793  0.00  0.00    -0.348 N 
ATOM     48  CAZ K26 d          -3.224  25.254 -14.925  0.00  0.00     0.214 C 
ATOM     49  OAD K26 d          -3.461  24.185 -15.485  0.00  0.00    -0.274 OA
ATOM     50  H22 K26 d          -3.514  26.517 -13.378  0.00  0.00     0.163 HD
BRANCH  48  51
ATOM     51  CAB K26 d          -2.179  26.213 -15.500  0.00  0.00    -0.003 C 
ATOM     52  H23 K26 d          -2.667  27.150 -15.804  0.00  0.00     0.040 H 
ATOM     53  H24 K26 d          -1.697  25.749 -16.374  0.00  0.00     0.040 H 
ATOM     54  H25 K26 d          -1.418  26.427 -14.734  0.00  0.00     0.040 H 
ENDBRANCH  48  51
ENDBRANCH  32  47
ENDBRANCH  29  32
ENDBRANCH   1  28
BRANCH   1  55
ATOM     55  CB  K26 d          -8.692  26.199 -15.656  0.00  0.00    -0.014 C 
ATOM     56  H26 K26 d          -8.590  27.217 -16.059  0.00  0.00     0.043 H 
ATOM     57  H27 K26 d          -9.733  25.862 -15.773  0.00  0.00     0.043 H 
BRANCH  55  58
ATOM     58  CG  K26 d          -7.753  25.246 -16.412  0.00  0.00    -0.056 A 
ATOM     59  CD1 K26 d          -6.660  25.756 -17.110  0.00  0.00    -0.074 A 
ATOM     60  CE1 K26 d          -5.794  24.893 -17.786  0.00  0.00    -0.051 A 
ATOM     61  H28 K26 d          -6.481  26.825 -17.129  0.00  0.00     0.084 H 
ATOM     62  CZ  K26 d          -6.018  23.515 -17.763  0.00  0.00     0.065 A 
ATOM     63  H29 K26 d          -4.946  25.293 -18.329  0.00  0.00     0.087 H 
ATOM     64  CE2 K26 d          -7.109  23.006 -17.059  0.00  0.00    -0.051 A 
ATOM     65  CD2 K26 d          -7.973  23.868 -16.380  0.00  0.00    -0.074 A 
ATOM     66  H31 K26 d          -7.286  21.937 -17.039  0.00  0.00     0.087 H 
ATOM     67  H32 K26 d          -8.815  23.467 -15.827  0.00  0.00     0.084 H 
BRANCH  62  68
ATOM     68  OH  K26 d          -5.175  22.674 -18.435  0.00  0.00    -0.361 OA
ATOM     69  H30 K26 d          -4.547  23.186 -18.931  0.00  0.00     0.217 HD
ENDBRANCH  62  68
ENDBRANCH  55  58
ENDBRANCH   1  55
TORSDOF 17
ENDMDL
MODEL 10
REMARK VINA RESULT:      -6.2      2.651      6.101
REMARK  17 active torsions:
REMARK  status: ('A' for Active; 'I' for Inactive)
REMARK    1  A    between atoms: CBD_3  and  OAI_4 
REMARK    2  A    between atoms: CBF_7  and  CAV_8 
REMARK    3  A    between atoms: CAV_8  and  CBI_9 
REMARK    4  A    between atoms: CBI_9  and  PBK_10 
REMARK    5  A    between atoms: CBI_9  and  NAY_14 
REMARK       I    between atoms: NAY_14  and  C_15 
REMARK    6  A    between atoms: C_15  and  CA_17 
REMARK    7  A    between atoms: CA_17  and  N_18 
REMARK    8  A    between atoms: CA_17  and  CB_30 
REMARK       I    between atoms: N_18  and  CBB_19 
REMARK    9  A    between atoms: CBB_19  and  CBJ_21 
REMARK   10  A    between atoms: CBJ_21  and  CBG_22 
REMARK   11  A    between atoms: CBJ_21  and  NAX_26 
REMARK   12  A    between atoms: CBG_22  and  CAC_23 
REMARK   13  A    between atoms: CBG_22  and  CAT_24 
REMARK   14  A    between atoms: CAT_24  and  CAA_25 
REMARK       I    between atoms: NAX_26  and  CAZ_27 
REMARK   15  A    between atoms: CAZ_27  and  CAB_28 
REMARK   16  A    between atoms: CB_30  and  CG_31 
REMARK   17  A    between atoms: CZ_34  and  OH_35 
ROOT
ATOM      1  CA  K26 d          -7.567  25.366 -14.744  0.00  0.00     0.093 C 
ATOM      2  H10 K26 d          -7.566  26.441 -14.978  0.00  0.00     0.088 H 
ENDROOT
BRANCH   1   3
ATOM      3  C   K26 d          -8.667  25.089 -13.716  0.00  0.00     0.241 C 
ATOM      4  NAY K26 d          -8.501  23.983 -12.987  0.00  0.00    -0.342 N 
ATOM      5  H9  K26 d          -7.655  23.461 -13.088  0.00  0.00     0.163 HD
ATOM      6  O   K26 d          -9.637  25.846 -13.639  0.00  0.00    -0.271 OA
BRANCH   4   7
ATOM      7  CBI K26 d          -9.521  23.506 -12.038  0.00  0.00     0.124 C 
ATOM      8  H8  K26 d          -9.026  22.929 -11.242  0.00  0.00     0.095 H 
BRANCH   7   9
ATOM      9  CAV K26 d         -10.197  24.744 -11.405  0.00  0.00    -0.010 C 
ATOM     10  H6  K26 d         -10.134  25.584 -12.112  0.00  0.00     0.044 H 
ATOM     11  H7  K26 d         -11.253  24.511 -11.205  0.00  0.00     0.044 H 
BRANCH   9  12
ATOM     12  CBF K26 d          -9.517  25.150 -10.087  0.00  0.00    -0.055 A 
ATOM     13  CAR K26 d          -9.846  26.366  -9.494  0.00  0.00    -0.074 A 
ATOM     14  CAN K26 d          -9.252  26.748  -8.294  0.00  0.00    -0.051 A 
ATOM     15  H1  K26 d         -10.569  27.019  -9.970  0.00  0.00     0.084 H 
ATOM     16  CBD K26 d          -8.323  25.909  -7.679  0.00  0.00     0.065 A 
ATOM     17  H2  K26 d          -9.512  27.697  -7.838  0.00  0.00     0.087 H 
ATOM     18  CAO K26 d          -7.991  24.680  -8.260  0.00  0.00    -0.051 A 
ATOM     19  CAS K26 d          -8.587  24.306  -9.464  0.00  0.00    -0.074 A 
ATOM     20  H4  K26 d          -7.276  24.025  -7.777  0.00  0.00     0.087 H 
ATOM     21  H5  K26 d          -8.330  23.357  -9.921  0.00  0.00     0.084 H 
BRANCH  16  22
ATOM     22  OAI K26 d          -7.750  26.298  -6.508  0.00  0.00    -0.361 OA
ATOM     23  H3  K26 d          -8.211  27.055  -6.167  0.00  0.00     0.217 HD
ENDBRANCH  16  22
ENDBRANCH   9  12
ENDBRANCH   7   9
BRANCH   7  24
ATOM     24  PBK K26 d         -10.732  22.399 -12.878  0.00  0.00     0.283 P 
ATOM     25  OAJ K26 d         -11.358  21.497 -11.737  0.00  0.00    -0.638 OA
ATOM     26  OAK K26 d         -11.886  23.427 -13.400  0.00  0.00    -0.638 OA
ATOM     27  OAG K26 d         -10.129  21.587 -13.968  0.00  0.00    -0.638 OA
ENDBRANCH   7  24
ENDBRANCH   4   7
ENDBRANCH   1   3
BRANCH   1  28
ATOM     28  N   K26 d          -6.262  24.996 -14.159  0.00  0.00    -0.346 N 
ATOM     29  CBB K26 d          -5.089  25.512 -14.547  0.00  0.00     0.241 C 
ATOM     30  OAF K26 d          -4.948  26.334 -15.454  0.00  0.00    -0.271 OA
ATOM     31  H11 K26 d          -6.254  24.317 -13.426  0.00  0.00     0.163 HD
BRANCH  29  32
ATOM     32  CBJ K26 d          -3.863  24.929 -13.821  0.00  0.00     0.092 C 
ATOM     33  H12 K26 d          -3.070  25.691 -13.802  0.00  0.00     0.088 H 
BRANCH  32  34
ATOM     34  CBG K26 d          -3.296  23.686 -14.516  0.00  0.00    -0.030 C 
ATOM     35  H13 K26 d          -2.794  24.002 -15.444  0.00  0.00     0.043 H 
BRANCH  34  36
ATOM     36  CAC K26 d          -2.265  23.003 -13.609  0.00  0.00    -0.071 C 
ATOM     37  H14 K26 d          -1.829  22.140 -14.134  0.00  0.00     0.028 H 
ATOM     38  H15 K26 d          -2.758  22.660 -12.688  0.00  0.00     0.028 H 
ATOM     39  H16 K26 d          -1.469  23.718 -13.354  0.00  0.00     0.028 H 
ENDBRANCH  34  36
BRANCH  34  40
ATOM     40  CAT K26 d          -4.417  22.700 -14.880  0.00  0.00    -0.063 C 
ATOM     41  H17 K26 d          -5.349  23.034 -14.400  0.00  0.00     0.033 H 
ATOM     42  H18 K26 d          -4.146  21.703 -14.501  0.00  0.00     0.033 H 
BRANCH  40  43
ATOM     43  CAA K26 d          -4.649  22.603 -16.388  0.00  0.00    -0.076 C 
ATOM     44  H19 K26 d          -4.360  21.602 -16.739  0.00  0.00     0.027 H 
ATOM     45  H20 K26 d          -4.042  23.362 -16.902  0.00  0.00     0.027 H 
ATOM     46  H21 K26 d          -5.714  22.776 -16.606  0.00  0.00     0.027 H 
ENDBRANCH  40  43
ENDBRANCH  34  40
ENDBRANCH  32  34
BRANCH  32  47
ATOM     47  NAX K26 d          -4.287  24.649 -12.435  0.00  0.00    -0.348 N 
ATOM     48  CAZ K26 d          -3.904  25.410 -11.408  0.00  0.00     0.214 C 
ATOM     49  OAD K26 d          -3.128  26.359 -11.501  0.00  0.00    -0.274 OA
ATOM     50  H22 K26 d          -4.882  23.864 -12.259  0.00  0.00     0.163 HD
BRANCH  48  51
ATOM     51  CAB K26 d          -4.472  25.007 -10.045  0.00  0.00    -0.003 C 
ATOM     52  H23 K26 d          -3.662  24.986  -9.302  0.00  0.00     0.040 H 
ATOM     53  H24 K26 d          -4.928  24.008 -10.120  0.00  0.00     0.040 H 
ATOM     54  H25 K26 d          -5.235  25.736  -9.736  0.00  0.00     0.040 H 
ENDBRANCH  48  51
ENDBRANCH  32  47
ENDBRANCH  29  32
ENDBRANCH   1  28
BRANCH   1  55
ATOM     55  CB  K26 d          -7.780  24.590 -16.037  0.00  0.00    -0.014 C 
ATOM     56  H26 K26 d          -7.705  23.511 -15.836  0.00  0.00     0.043 H 
ATOM     57  H27 K26 d          -7.015  24.879 -16.773  0.00  0.00     0.043 H 
BRANCH  55  58
ATOM     58  CG  K26 d          -9.177  24.917 -16.588  0.00  0.00    -0.056 A 
ATOM     59  CD1 K26 d         -10.223  24.013 -16.412  0.00  0.00    -0.074 A 
ATOM     60  CE1 K26 d         -11.499  24.313 -16.896  0.00  0.00    -0.051 A 
ATOM     61  H28 K26 d         -10.047  23.075 -15.898  0.00  0.00     0.084 H 
ATOM     62  CZ  K26 d         -11.732  25.520 -17.557  0.00  0.00     0.065 A 
ATOM     63  H29 K26 d         -12.310  23.607 -16.759  0.00  0.00     0.087 H 
ATOM     64  CE2 K26 d         -10.685  26.427 -17.727  0.00  0.00    -0.051 A 
ATOM     65  CD2 K26 d          -9.410  26.129 -17.239  0.00  0.00    -0.074 A 
ATOM     66  H31 K26 d         -10.862  27.365 -18.239  0.00  0.00     0.087 H 
ATOM     67  H32 K26 d          -8.602  26.841 -17.367  0.00  0.00     0.084 H 
BRANCH  62  68
ATOM     68  OH  K26 d         -12.980  25.806 -18.040  0.00  0.00    -0.361 OA
ATOM     69  H30 K26 d         -12.921  26.520 -18.663  0.00  0.00     0.217 HD
ENDBRANCH  62  68
ENDBRANCH  55  58
ENDBRANCH   1  55
TORSDOF 17
ENDMDL
