MODEL 1
REMARK VINA RESULT:      -7.2      0.000      0.000
REMARK  4 active torsions:
REMARK  status: ('A' for Active; 'I' for Inactive)
REMARK    1  A    between atoms: C14_6  and  N2_7 
REMARK    2  A    between atoms: C9_8  and  C8_9 
REMARK       I    between atoms: C8_9  and  N1_11 
REMARK    3  A    between atoms: C4_13  and  C5_14 
REMARK    4  A    between atoms: C2_17  and  C1_18 
ROOT
ATOM      1  C8  SX3 d         -23.755  10.190 -16.457  0.00  0.00     0.256 C 
ATOM      2  O1  SX3 d         -23.389  10.980 -17.327  0.00  0.00    -0.267 OA
ATOM      3  N1  SX3 d         -25.033  10.325 -15.893  0.00  0.00    -0.347 N 
ATOM      4  C6  SX3 d         -25.393   9.516 -14.722  0.00  0.00     0.001 C 
ATOM      5  C4  SX3 d         -25.816  10.348 -13.518  0.00  0.00    -0.042 C 
ATOM      6  C3  SX3 d         -26.927  11.314 -13.905  0.00  0.00    -0.056 C 
ATOM      7  C7  SX3 d         -25.951  11.436 -16.217  0.00  0.00     0.001 C 
ATOM      8  C2  SX3 d         -26.481  12.227 -15.039  0.00  0.00    -0.042 C 
ATOM      9  H6  SX3 d         -24.521   8.910 -14.436  0.00  0.00     0.065 H 
ATOM     10  H7  SX3 d         -26.226   8.853 -14.998  0.00  0.00     0.065 H 
ATOM     11  H8  SX3 d         -24.954  10.933 -13.168  0.00  0.00     0.042 H 
ATOM     12  H12 SX3 d         -27.192  11.927 -13.031  0.00  0.00     0.034 H 
ATOM     13  H13 SX3 d         -27.807  10.739 -14.230  0.00  0.00     0.034 H 
ATOM     14  H14 SX3 d         -26.814  11.014 -16.754  0.00  0.00     0.065 H 
ATOM     15  H15 SX3 d         -25.415  12.133 -16.877  0.00  0.00     0.065 H 
ATOM     16  H16 SX3 d         -25.674  12.876 -14.667  0.00  0.00     0.042 H 
ENDROOT
BRANCH   1  17
ATOM     17  C9  SX3 d         -22.770   9.129 -16.131  0.00  0.00     0.059 A 
ATOM     18  C10 SX3 d         -21.751   9.485 -15.237  0.00  0.00    -0.049 A 
ATOM     19  C11 SX3 d         -20.760   8.555 -14.906  0.00  0.00     0.012 A 
ATOM     20  H1  SX3 d         -21.732  10.478 -14.803  0.00  0.00     0.087 H 
ATOM     21 BR1  SX3 d         -19.422   9.092 -13.680  0.00  0.00    -0.051 Br
ATOM     22  C12 SX3 d         -20.757   7.265 -15.450  0.00  0.00    -0.064 A 
ATOM     23  C13 SX3 d         -21.788   6.912 -16.342  0.00  0.00    -0.055 A 
ATOM     24  H2  SX3 d         -19.979   6.556 -15.190  0.00  0.00     0.085 H 
ATOM     25  C14 SX3 d         -22.797   7.829 -16.707  0.00  0.00     0.041 A 
ATOM     26  H3  SX3 d         -21.806   5.912 -16.758  0.00  0.00     0.087 H 
BRANCH  25  27
ATOM     27  N2  SX3 d         -23.784   7.419 -17.618  0.00  0.00    -0.398 N 
ATOM     28  H4  SX3 d         -23.761   6.466 -18.008  0.00  0.00     0.156 HD
ATOM     29  H5  SX3 d         -24.530   8.072 -17.897  0.00  0.00     0.156 HD
ENDBRANCH  25  27
ENDBRANCH   1  17
BRANCH   5  30
ATOM     30  C5  SX3 d         -26.253   9.415 -12.408  0.00  0.00    -0.071 C 
ATOM     31  H9  SX3 d         -26.561  10.007 -11.533  0.00  0.00     0.028 H 
ATOM     32  H10 SX3 d         -25.415   8.759 -12.131  0.00  0.00     0.028 H 
ATOM     33  H11 SX3 d         -27.100   8.804 -12.755  0.00  0.00     0.028 H 
ENDBRANCH   5  30
BRANCH   8  34
ATOM     34  C1  SX3 d         -27.654  13.101 -15.475  0.00  0.00    -0.071 C 
ATOM     35  H17 SX3 d         -28.029  13.670 -14.611  0.00  0.00     0.028 H 
ATOM     36  H18 SX3 d         -28.459  12.464 -15.871  0.00  0.00     0.028 H 
ATOM     37  H19 SX3 d         -27.321  13.799 -16.257  0.00  0.00     0.028 H 
ENDBRANCH   8  34
TORSDOF 4
ENDMDL
