MODEL 1
REMARK VINA RESULT:      -6.0      0.000      0.000
REMARK  4 active torsions:
REMARK  status: ('A' for Active; 'I' for Inactive)
REMARK    1  A    between atoms: C14_6  and  N2_7 
REMARK    2  A    between atoms: C9_8  and  C8_9 
REMARK       I    between atoms: C8_9  and  N1_11 
REMARK    3  A    between atoms: C4_13  and  C5_14 
REMARK    4  A    between atoms: C2_17  and  C1_18 
ROOT
ATOM      1  C8  SX3 d         -24.825   7.712 -15.857  0.00  0.00     0.256 C 
ATOM      2  O1  SX3 d         -25.542   6.849 -16.363  0.00  0.00    -0.267 OA
ATOM      3  N1  SX3 d         -23.515   7.888 -16.332  0.00  0.00    -0.347 N 
ATOM      4  C6  SX3 d         -22.597   8.770 -15.601  0.00  0.00     0.001 C 
ATOM      5  C4  SX3 d         -21.321   8.073 -15.146  0.00  0.00    -0.042 C 
ATOM      6  C3  SX3 d         -20.639   7.392 -16.323  0.00  0.00    -0.056 C 
ATOM      7  C7  SX3 d         -22.899   7.021 -17.357  0.00  0.00     0.001 C 
ATOM      8  C2  SX3 d         -21.574   6.388 -16.984  0.00  0.00    -0.042 C 
ATOM      9  H6  SX3 d         -23.118   9.157 -14.713  0.00  0.00     0.065 H 
ATOM     10  H7  SX3 d         -22.321   9.608 -16.259  0.00  0.00     0.065 H 
ATOM     11  H8  SX3 d         -21.580   7.305 -14.403  0.00  0.00     0.042 H 
ATOM     12  H12 SX3 d         -19.741   6.867 -15.965  0.00  0.00     0.034 H 
ATOM     13  H13 SX3 d         -20.348   8.154 -17.061  0.00  0.00     0.034 H 
ATOM     14  H14 SX3 d         -22.739   7.628 -18.260  0.00  0.00     0.065 H 
ATOM     15  H15 SX3 d         -23.607   6.210 -17.581  0.00  0.00     0.065 H 
ATOM     16  H16 SX3 d         -21.767   5.571 -16.274  0.00  0.00     0.042 H 
ENDROOT
BRANCH   1  17
ATOM     17  C9  SX3 d         -25.478   8.515 -14.794  0.00  0.00     0.059 A 
ATOM     18  C10 SX3 d         -25.925   9.789 -15.169  0.00  0.00    -0.049 A 
ATOM     19  C11 SX3 d         -26.517  10.626 -14.217  0.00  0.00     0.012 A 
ATOM     20  H1  SX3 d         -25.813  10.125 -16.193  0.00  0.00     0.087 H 
ATOM     21 BR1  SX3 d         -27.116  12.328 -14.790  0.00  0.00    -0.051 Br
ATOM     22  C12 SX3 d         -26.677  10.222 -12.886  0.00  0.00    -0.064 A 
ATOM     23  C13 SX3 d         -26.232   8.937 -12.519  0.00  0.00    -0.055 A 
ATOM     24  H2  SX3 d         -27.132  10.882 -12.156  0.00  0.00     0.085 H 
ATOM     25  C14 SX3 d         -25.620   8.071 -13.451  0.00  0.00     0.041 A 
ATOM     26  H3  SX3 d         -26.364   8.605 -11.496  0.00  0.00     0.087 H 
BRANCH  25  27
ATOM     27  N2  SX3 d         -25.179   6.811 -13.013  0.00  0.00    -0.398 N 
ATOM     28  H4  SX3 d         -25.608   6.375 -12.184  0.00  0.00     0.156 HD
ATOM     29  H5  SX3 d         -24.427   6.324 -13.521  0.00  0.00     0.156 HD
ENDBRANCH  25  27
ENDBRANCH   1  17
BRANCH   5  30
ATOM     30  C5  SX3 d         -20.414   9.094 -14.492  0.00  0.00    -0.071 C 
ATOM     31  H9  SX3 d         -19.389   8.970 -14.874  0.00  0.00     0.028 H 
ATOM     32  H10 SX3 d         -20.420   8.945 -13.402  0.00  0.00     0.028 H 
ATOM     33  H11 SX3 d         -20.772  10.107 -14.727  0.00  0.00     0.028 H 
ENDBRANCH   5  30
BRANCH   8  34
ATOM     34  C1  SX3 d         -20.898   5.811 -18.226  0.00  0.00    -0.071 C 
ATOM     35  H17 SX3 d         -20.160   5.053 -17.923  0.00  0.00     0.028 H 
ATOM     36  H18 SX3 d         -20.391   6.617 -18.776  0.00  0.00     0.028 H 
ATOM     37  H19 SX3 d         -21.656   5.345 -18.873  0.00  0.00     0.028 H 
ENDBRANCH   8  34
TORSDOF 4
ENDMDL
MODEL 2
REMARK VINA RESULT:      -5.9      2.738      6.102
REMARK  4 active torsions:
REMARK  status: ('A' for Active; 'I' for Inactive)
REMARK    1  A    between atoms: C14_6  and  N2_7 
REMARK    2  A    between atoms: C9_8  and  C8_9 
REMARK       I    between atoms: C8_9  and  N1_11 
REMARK    3  A    between atoms: C4_13  and  C5_14 
REMARK    4  A    between atoms: C2_17  and  C1_18 
ROOT
ATOM      1  C8  SX3 d         -24.623  10.435 -16.407  0.00  0.00     0.256 C 
ATOM      2  O1  SX3 d         -24.259  11.301 -17.203  0.00  0.00    -0.267 OA
ATOM      3  N1  SX3 d         -25.862  10.567 -15.759  0.00  0.00    -0.347 N 
ATOM      4  C6  SX3 d         -26.205   9.649 -14.667  0.00  0.00     0.001 C 
ATOM      5  C4  SX3 d         -26.520  10.357 -13.356  0.00  0.00    -0.042 C 
ATOM      6  C3  SX3 d         -27.594  11.414 -13.569  0.00  0.00    -0.056 C 
ATOM      7  C7  SX3 d         -26.732  11.752 -15.905  0.00  0.00     0.001 C 
ATOM      8  C2  SX3 d         -27.156  12.428 -14.617  0.00  0.00    -0.042 C 
ATOM      9  H6  SX3 d         -25.354   8.971 -14.501  0.00  0.00     0.065 H 
ATOM     10  H7  SX3 d         -27.087   9.063 -14.967  0.00  0.00     0.065 H 
ATOM     11  H8  SX3 d         -25.610  10.855 -12.992  0.00  0.00     0.042 H 
ATOM     12  H12 SX3 d         -27.780  11.936 -12.618  0.00  0.00     0.034 H 
ATOM     13  H13 SX3 d         -28.520  10.925 -13.905  0.00  0.00     0.034 H 
ATOM     14  H14 SX3 d         -27.644  11.437 -16.435  0.00  0.00     0.065 H 
ATOM     15  H15 SX3 d         -26.193  12.493 -16.512  0.00  0.00     0.065 H 
ATOM     16  H16 SX3 d         -26.298  12.990 -14.222  0.00  0.00     0.042 H 
ENDROOT
BRANCH   1  17
ATOM     17  C9  SX3 d         -23.683   9.297 -16.258  0.00  0.00     0.059 A 
ATOM     18  C10 SX3 d         -22.550   9.531 -15.468  0.00  0.00    -0.049 A 
ATOM     19  C11 SX3 d         -21.593   8.522 -15.307  0.00  0.00     0.012 A 
ATOM     20  H1  SX3 d         -22.415  10.490 -14.982  0.00  0.00     0.087 H 
ATOM     21 BR1  SX3 d         -20.094   8.895 -14.214  0.00  0.00    -0.051 Br
ATOM     22  C12 SX3 d         -21.739   7.273 -15.921  0.00  0.00    -0.064 A 
ATOM     23  C13 SX3 d         -22.884   7.042 -16.707  0.00  0.00    -0.055 A 
ATOM     24  H2  SX3 d         -20.987   6.501 -15.794  0.00  0.00     0.085 H 
ATOM     25  C14 SX3 d         -23.863   8.041 -16.901  0.00  0.00     0.041 A 
ATOM     26  H3  SX3 d         -23.017   6.074 -17.176  0.00  0.00     0.087 H 
BRANCH  25  27
ATOM     27  N2  SX3 d         -24.970   7.753 -17.715  0.00  0.00    -0.398 N 
ATOM     28  H4  SX3 d         -25.374   6.805 -17.718  0.00  0.00     0.156 HD
ATOM     29  H5  SX3 d         -25.379   8.489 -18.308  0.00  0.00     0.156 HD
ENDBRANCH  25  27
ENDBRANCH   1  17
BRANCH   5  30
ATOM     30  C5  SX3 d         -26.950   9.326 -12.334  0.00  0.00    -0.071 C 
ATOM     31  H9  SX3 d         -27.866   9.670 -11.830  0.00  0.00     0.028 H 
ATOM     32  H10 SX3 d         -26.151   9.192 -11.591  0.00  0.00     0.028 H 
ATOM     33  H11 SX3 d         -27.147   8.369 -12.839  0.00  0.00     0.028 H 
ENDBRANCH   5  30
BRANCH   8  34
ATOM     34  C1  SX3 d         -28.301  13.403 -14.886  0.00  0.00    -0.071 C 
ATOM     35  H17 SX3 d         -28.949  12.998 -15.677  0.00  0.00     0.028 H 
ATOM     36  H18 SX3 d         -27.890  14.371 -15.209  0.00  0.00     0.028 H 
ATOM     37  H19 SX3 d         -28.888  13.542 -13.966  0.00  0.00     0.028 H 
ENDBRANCH   8  34
TORSDOF 4
ENDMDL
MODEL 3
REMARK VINA RESULT:      -5.5      2.427      3.555
REMARK  4 active torsions:
REMARK  status: ('A' for Active; 'I' for Inactive)
REMARK    1  A    between atoms: C14_6  and  N2_7 
REMARK    2  A    between atoms: C9_8  and  C8_9 
REMARK       I    between atoms: C8_9  and  N1_11 
REMARK    3  A    between atoms: C4_13  and  C5_14 
REMARK    4  A    between atoms: C2_17  and  C1_18 
ROOT
ATOM      1  C8  SX3 d         -24.180  10.474 -16.514  0.00  0.00     0.256 C 
ATOM      2  O1  SX3 d         -23.493  11.183 -17.249  0.00  0.00    -0.267 OA
ATOM      3  N1  SX3 d         -23.552   9.589 -15.623  0.00  0.00    -0.347 N 
ATOM      4  C6  SX3 d         -24.362   8.604 -14.895  0.00  0.00     0.001 C 
ATOM      5  C4  SX3 d         -23.927   7.165 -15.136  0.00  0.00    -0.042 C 
ATOM      6  C3  SX3 d         -22.442   7.004 -14.848  0.00  0.00    -0.056 C 
ATOM      7  C7  SX3 d         -22.090   9.382 -15.578  0.00  0.00     0.001 C 
ATOM      8  C2  SX3 d         -21.616   7.949 -15.710  0.00  0.00    -0.042 C 
ATOM      9  H6  SX3 d         -25.410   8.710 -15.215  0.00  0.00     0.065 H 
ATOM     10  H7  SX3 d         -24.285   8.816 -13.819  0.00  0.00     0.065 H 
ATOM     11  H8  SX3 d         -24.105   6.911 -16.191  0.00  0.00     0.042 H 
ATOM     12  H12 SX3 d         -22.143   5.967 -15.062  0.00  0.00     0.034 H 
ATOM     13  H13 SX3 d         -22.255   7.227 -13.787  0.00  0.00     0.034 H 
ATOM     14  H14 SX3 d         -21.725   9.770 -14.615  0.00  0.00     0.065 H 
ATOM     15  H15 SX3 d         -21.643   9.961 -16.399  0.00  0.00     0.065 H 
ATOM     16  H16 SX3 d         -21.722   7.645 -16.762  0.00  0.00     0.042 H 
ENDROOT
BRANCH   1  17
ATOM     17  C9  SX3 d         -25.644  10.684 -16.642  0.00  0.00     0.059 A 
ATOM     18  C10 SX3 d         -26.199  11.677 -15.823  0.00  0.00    -0.049 A 
ATOM     19  C11 SX3 d         -27.578  11.912 -15.854  0.00  0.00     0.012 A 
ATOM     20  H1  SX3 d         -25.563  12.259 -15.168  0.00  0.00     0.087 H 
ATOM     21 BR1  SX3 d         -28.264  13.277 -14.737  0.00  0.00    -0.051 Br
ATOM     22  C12 SX3 d         -28.427  11.176 -16.689  0.00  0.00    -0.064 A 
ATOM     23  C13 SX3 d         -27.860  10.186 -17.515  0.00  0.00    -0.055 A 
ATOM     24  H2  SX3 d         -29.495  11.363 -16.699  0.00  0.00     0.085 H 
ATOM     25  C14 SX3 d         -26.475   9.913 -17.500  0.00  0.00     0.041 A 
ATOM     26  H3  SX3 d         -28.503   9.619 -18.177  0.00  0.00     0.087 H 
BRANCH  25  27
ATOM     27  N2  SX3 d         -25.977   8.898 -18.333  0.00  0.00    -0.398 N 
ATOM     28  H4  SX3 d         -26.181   7.910 -18.119  0.00  0.00     0.156 HD
ATOM     29  H5  SX3 d         -25.410   9.140 -19.158  0.00  0.00     0.156 HD
ENDBRANCH  25  27
ENDBRANCH   1  17
BRANCH   5  30
ATOM     30  C5  SX3 d         -24.764   6.249 -14.269  0.00  0.00    -0.071 C 
ATOM     31  H9  SX3 d         -25.421   5.639 -14.907  0.00  0.00     0.028 H 
ATOM     32  H10 SX3 d         -25.377   6.853 -13.583  0.00  0.00     0.028 H 
ATOM     33  H11 SX3 d         -24.103   5.590 -13.686  0.00  0.00     0.028 H 
ENDBRANCH   5  30
BRANCH   8  34
ATOM     34  C1  SX3 d         -20.146   7.842 -15.313  0.00  0.00    -0.071 C 
ATOM     35  H17 SX3 d         -19.646   7.098 -15.952  0.00  0.00     0.028 H 
ATOM     36  H18 SX3 d         -20.072   7.529 -14.260  0.00  0.00     0.028 H 
ATOM     37  H19 SX3 d         -19.659   8.820 -15.439  0.00  0.00     0.028 H 
ENDBRANCH   8  34
TORSDOF 4
ENDMDL
MODEL 4
REMARK VINA RESULT:      -5.3      2.403      5.809
REMARK  4 active torsions:
REMARK  status: ('A' for Active; 'I' for Inactive)
REMARK    1  A    between atoms: C14_6  and  N2_7 
REMARK    2  A    between atoms: C9_8  and  C8_9 
REMARK       I    between atoms: C8_9  and  N1_11 
REMARK    3  A    between atoms: C4_13  and  C5_14 
REMARK    4  A    between atoms: C2_17  and  C1_18 
ROOT
ATOM      1  C8  SX3 d         -24.966   7.080 -14.310  0.00  0.00     0.256 C 
ATOM      2  O1  SX3 d         -25.371   5.950 -14.036  0.00  0.00    -0.267 OA
ATOM      3  N1  SX3 d         -25.659   8.200 -13.822  0.00  0.00    -0.347 N 
ATOM      4  C6  SX3 d         -25.301   9.537 -14.310  0.00  0.00     0.001 C 
ATOM      5  C4  SX3 d         -26.467  10.282 -14.946  0.00  0.00    -0.042 C 
ATOM      6  C3  SX3 d         -27.653  10.323 -13.993  0.00  0.00    -0.056 C 
ATOM      7  C7  SX3 d         -26.923   8.106 -13.064  0.00  0.00     0.001 C 
ATOM      8  C2  SX3 d         -28.085   8.916 -13.604  0.00  0.00    -0.042 C 
ATOM      9  H6  SX3 d         -24.504   9.432 -15.061  0.00  0.00     0.065 H 
ATOM     10  H7  SX3 d         -24.929  10.130 -13.461  0.00  0.00     0.065 H 
ATOM     11  H8  SX3 d         -26.774   9.752 -15.859  0.00  0.00     0.042 H 
ATOM     12  H12 SX3 d         -28.493  10.835 -14.486  0.00  0.00     0.034 H 
ATOM     13  H13 SX3 d         -27.368  10.877 -13.086  0.00  0.00     0.034 H 
ATOM     14  H14 SX3 d         -26.726   8.445 -12.036  0.00  0.00     0.065 H 
ATOM     15  H15 SX3 d         -27.229   7.050 -13.048  0.00  0.00     0.065 H 
ATOM     16  H16 SX3 d         -28.474   8.410 -14.499  0.00  0.00     0.042 H 
ENDROOT
BRANCH   1  17
ATOM     17  C9  SX3 d         -23.724   7.113 -15.121  0.00  0.00     0.059 A 
ATOM     18  C10 SX3 d         -22.674   7.888 -14.610  0.00  0.00    -0.049 A 
ATOM     19  C11 SX3 d         -21.481   8.004 -15.332  0.00  0.00     0.012 A 
ATOM     20  H1  SX3 d         -22.785   8.395 -13.659  0.00  0.00     0.087 H 
ATOM     21 BR1  SX3 d         -20.095   9.051 -14.581  0.00  0.00    -0.051 Br
ATOM     22  C12 SX3 d         -21.306   7.362 -16.563  0.00  0.00    -0.064 A 
ATOM     23  C13 SX3 d         -22.363   6.578 -17.066  0.00  0.00    -0.055 A 
ATOM     24  H2  SX3 d         -20.379   7.465 -17.117  0.00  0.00     0.085 H 
ATOM     25  C14 SX3 d         -23.585   6.449 -16.370  0.00  0.00     0.041 A 
ATOM     26  H3  SX3 d         -22.236   6.063 -18.011  0.00  0.00     0.087 H 
BRANCH  25  27
ATOM     27  N2  SX3 d         -24.606   5.670 -16.938  0.00  0.00    -0.398 N 
ATOM     28  H4  SX3 d         -25.556   5.698 -16.541  0.00  0.00     0.156 HD
ATOM     29  H5  SX3 d         -24.405   5.071 -17.751  0.00  0.00     0.156 HD
ENDBRANCH  25  27
ENDBRANCH   1  17
BRANCH   5  30
ATOM     30  C5  SX3 d         -26.009  11.675 -15.324  0.00  0.00    -0.071 C 
ATOM     31  H9  SX3 d         -26.280  12.379 -14.523  0.00  0.00     0.028 H 
ATOM     32  H10 SX3 d         -26.499  11.980 -16.260  0.00  0.00     0.028 H 
ATOM     33  H11 SX3 d         -24.918  11.678 -15.462  0.00  0.00     0.028 H 
ENDBRANCH   5  30
BRANCH   8  34
ATOM     34  C1  SX3 d         -29.198   8.999 -12.562  0.00  0.00    -0.071 C 
ATOM     35  H17 SX3 d         -28.873   8.500 -11.637  0.00  0.00     0.028 H 
ATOM     36  H18 SX3 d         -30.100   8.503 -12.949  0.00  0.00     0.028 H 
ATOM     37  H19 SX3 d         -29.423  10.055 -12.349  0.00  0.00     0.028 H 
ENDBRANCH   8  34
TORSDOF 4
ENDMDL
MODEL 5
REMARK VINA RESULT:      -5.1      2.551      6.053
REMARK  4 active torsions:
REMARK  status: ('A' for Active; 'I' for Inactive)
REMARK    1  A    between atoms: C14_6  and  N2_7 
REMARK    2  A    between atoms: C9_8  and  C8_9 
REMARK       I    between atoms: C8_9  and  N1_11 
REMARK    3  A    between atoms: C4_13  and  C5_14 
REMARK    4  A    between atoms: C2_17  and  C1_18 
ROOT
ATOM      1  C8  SX3 d         -25.288   8.489 -14.134  0.00  0.00     0.256 C 
ATOM      2  O1  SX3 d         -25.733   7.522 -13.518  0.00  0.00    -0.267 OA
ATOM      3  N1  SX3 d         -25.784   9.774 -13.858  0.00  0.00    -0.347 N 
ATOM      4  C6  SX3 d         -25.405  10.895 -14.727  0.00  0.00     0.001 C 
ATOM      5  C4  SX3 d         -26.597  11.607 -15.352  0.00  0.00    -0.042 C 
ATOM      6  C3  SX3 d         -27.587  12.030 -14.277  0.00  0.00    -0.056 C 
ATOM      7  C7  SX3 d         -26.897  10.030 -12.921  0.00  0.00     0.001 C 
ATOM      8  C2  SX3 d         -28.062  10.827 -13.473  0.00  0.00    -0.042 C 
ATOM      9  H6  SX3 d         -24.766  10.509 -15.535  0.00  0.00     0.065 H 
ATOM     10  H7  SX3 d         -24.839  11.624 -14.128  0.00  0.00     0.065 H 
ATOM     11  H8  SX3 d         -27.106  10.914 -16.039  0.00  0.00     0.042 H 
ATOM     12  H12 SX3 d         -28.455  12.510 -14.755  0.00  0.00     0.034 H 
ATOM     13  H13 SX3 d         -27.099  12.746 -13.600  0.00  0.00     0.034 H 
ATOM     14  H14 SX3 d         -26.492  10.581 -12.060  0.00  0.00     0.065 H 
ATOM     15  H15 SX3 d         -27.285   9.058 -12.585  0.00  0.00     0.065 H 
ATOM     16  H16 SX3 d         -28.646  10.172 -14.136  0.00  0.00     0.042 H 
ENDROOT
BRANCH   1  17
ATOM     17  C9  SX3 d         -24.212   8.165 -15.103  0.00  0.00     0.059 A 
ATOM     18  C10 SX3 d         -22.905   8.473 -14.701  0.00  0.00    -0.049 A 
ATOM     19  C11 SX3 d         -21.836   8.235 -15.570  0.00  0.00     0.012 A 
ATOM     20  H1  SX3 d         -22.725   8.895 -13.719  0.00  0.00     0.087 H 
ATOM     21 BR1  SX3 d         -20.094   8.656 -14.961  0.00  0.00    -0.051 Br
ATOM     22  C12 SX3 d         -22.036   7.691 -16.844  0.00  0.00    -0.064 A 
ATOM     23  C13 SX3 d         -23.351   7.377 -17.239  0.00  0.00    -0.055 A 
ATOM     24  H2  SX3 d         -21.200   7.517 -17.512  0.00  0.00     0.085 H 
ATOM     25  C14 SX3 d         -24.455   7.615 -16.392  0.00  0.00     0.041 A 
ATOM     26  H3  SX3 d         -23.520   6.941 -18.217  0.00  0.00     0.087 H 
BRANCH  25  27
ATOM     27  N2  SX3 d         -25.743   7.299 -16.855  0.00  0.00    -0.398 N 
ATOM     28  H4  SX3 d         -25.867   6.571 -17.574  0.00  0.00     0.156 HD
ATOM     29  H5  SX3 d         -26.563   7.794 -16.477  0.00  0.00     0.156 HD
ENDBRANCH  25  27
ENDBRANCH   1  17
BRANCH   5  30
ATOM     30  C5  SX3 d         -26.096  12.795 -16.145  0.00  0.00    -0.071 C 
ATOM     31  H9  SX3 d         -26.898  13.544 -16.229  0.00  0.00     0.028 H 
ATOM     32  H10 SX3 d         -25.797  12.465 -17.151  0.00  0.00     0.028 H 
ATOM     33  H11 SX3 d         -25.231  13.240 -15.632  0.00  0.00     0.028 H 
ENDBRANCH   5  30
BRANCH   8  34
ATOM     34  C1  SX3 d         -28.961  11.303 -12.335  0.00  0.00    -0.071 C 
ATOM     35  H17 SX3 d         -29.174  10.462 -11.658  0.00  0.00     0.028 H 
ATOM     36  H18 SX3 d         -29.906  11.687 -12.749  0.00  0.00     0.028 H 
ATOM     37  H19 SX3 d         -28.454  12.103 -11.776  0.00  0.00     0.028 H 
ENDBRANCH   8  34
TORSDOF 4
ENDMDL
MODEL 6
REMARK VINA RESULT:      -5.0      2.880      3.929
REMARK  4 active torsions:
REMARK  status: ('A' for Active; 'I' for Inactive)
REMARK    1  A    between atoms: C14_6  and  N2_7 
REMARK    2  A    between atoms: C9_8  and  C8_9 
REMARK       I    between atoms: C8_9  and  N1_11 
REMARK    3  A    between atoms: C4_13  and  C5_14 
REMARK    4  A    between atoms: C2_17  and  C1_18 
ROOT
ATOM      1  C8  SX3 d         -24.285  10.398 -16.525  0.00  0.00     0.256 C 
ATOM      2  O1  SX3 d         -23.635  11.188 -17.209  0.00  0.00    -0.267 OA
ATOM      3  N1  SX3 d         -23.614   9.523 -15.655  0.00  0.00    -0.347 N 
ATOM      4  C6  SX3 d         -24.365   8.449 -14.993  0.00  0.00     0.001 C 
ATOM      5  C4  SX3 d         -23.817   7.058 -15.282  0.00  0.00    -0.042 C 
ATOM      6  C3  SX3 d         -22.331   6.996 -14.959  0.00  0.00    -0.056 C 
ATOM      7  C7  SX3 d         -22.142   9.424 -15.577  0.00  0.00     0.001 C 
ATOM      8  C2  SX3 d         -21.558   8.037 -15.757  0.00  0.00    -0.042 C 
ATOM      9  H6  SX3 d         -25.409   8.490 -15.337  0.00  0.00     0.065 H 
ATOM     10  H7  SX3 d         -24.331   8.618 -13.906  0.00  0.00     0.065 H 
ATOM     11  H8  SX3 d         -23.948   6.838 -16.352  0.00  0.00     0.042 H 
ATOM     12  H12 SX3 d         -21.949   5.994 -15.209  0.00  0.00     0.034 H 
ATOM     13  H13 SX3 d         -22.188   7.185 -13.885  0.00  0.00     0.034 H 
ATOM     14  H14 SX3 d         -21.831   9.794 -14.589  0.00  0.00     0.065 H 
ATOM     15  H15 SX3 d         -21.720  10.071 -16.360  0.00  0.00     0.065 H 
ATOM     16  H16 SX3 d         -21.615   7.773 -16.823  0.00  0.00     0.042 H 
ENDROOT
BRANCH   1  17
ATOM     17  C9  SX3 d         -25.756  10.503 -16.685  0.00  0.00     0.059 A 
ATOM     18  C10 SX3 d         -26.391   9.410 -17.290  0.00  0.00    -0.049 A 
ATOM     19  C11 SX3 d         -27.772   9.445 -17.514  0.00  0.00     0.012 A 
ATOM     20  H1  SX3 d         -25.815   8.541 -17.583  0.00  0.00     0.087 H 
ATOM     21 BR1  SX3 d         -28.572   7.930 -18.319  0.00  0.00    -0.051 Br
ATOM     22  C12 SX3 d         -28.544  10.553 -17.147  0.00  0.00    -0.064 A 
ATOM     23  C13 SX3 d         -27.900  11.644 -16.532  0.00  0.00    -0.055 A 
ATOM     24  H2  SX3 d         -29.613  10.570 -17.332  0.00  0.00     0.085 H 
ATOM     25  C14 SX3 d         -26.507  11.648 -16.302  0.00  0.00     0.041 A 
ATOM     26  H3  SX3 d         -28.489  12.502 -16.229  0.00  0.00     0.087 H 
BRANCH  25  27
ATOM     27  N2  SX3 d         -25.925  12.778 -15.705  0.00  0.00    -0.398 N 
ATOM     28  H4  SX3 d         -26.349  13.707 -15.838  0.00  0.00     0.156 HD
ATOM     29  H5  SX3 d         -25.073  12.677 -15.134  0.00  0.00     0.156 HD
ENDBRANCH  25  27
ENDBRANCH   1  17
BRANCH   5  30
ATOM     30  C5  SX3 d         -24.603   6.045 -14.478  0.00  0.00    -0.071 C 
ATOM     31  H9  SX3 d         -23.921   5.271 -14.096  0.00  0.00     0.028 H 
ATOM     32  H10 SX3 d         -25.364   5.578 -15.121  0.00  0.00     0.028 H 
ATOM     33  H11 SX3 d         -25.096   6.549 -13.634  0.00  0.00     0.028 H 
ENDBRANCH   5  30
BRANCH   8  34
ATOM     34  C1  SX3 d         -20.094   8.022 -15.323  0.00  0.00    -0.071 C 
ATOM     35  H17 SX3 d         -19.449   8.174 -16.201  0.00  0.00     0.028 H 
ATOM     36  H18 SX3 d         -19.859   7.052 -14.859  0.00  0.00     0.028 H 
ATOM     37  H19 SX3 d         -19.919   8.829 -14.596  0.00  0.00     0.028 H 
ENDBRANCH   8  34
TORSDOF 4
ENDMDL
MODEL 7
REMARK VINA RESULT:      -5.0      2.129      2.888
REMARK  4 active torsions:
REMARK  status: ('A' for Active; 'I' for Inactive)
REMARK    1  A    between atoms: C14_6  and  N2_7 
REMARK    2  A    between atoms: C9_8  and  C8_9 
REMARK       I    between atoms: C8_9  and  N1_11 
REMARK    3  A    between atoms: C4_13  and  C5_14 
REMARK    4  A    between atoms: C2_17  and  C1_18 
ROOT
ATOM      1  C8  SX3 d         -25.345   7.328 -13.673  0.00  0.00     0.256 C 
ATOM      2  O1  SX3 d         -24.981   6.557 -12.786  0.00  0.00    -0.267 OA
ATOM      3  N1  SX3 d         -24.466   7.638 -14.724  0.00  0.00    -0.347 N 
ATOM      4  C6  SX3 d         -24.819   8.707 -15.666  0.00  0.00     0.001 C 
ATOM      5  C4  SX3 d         -23.781   9.818 -15.739  0.00  0.00    -0.042 C 
ATOM      6  C3  SX3 d         -22.403   9.239 -16.025  0.00  0.00    -0.056 C 
ATOM      7  C7  SX3 d         -23.070   7.160 -14.783  0.00  0.00     0.001 C 
ATOM      8  C2  SX3 d         -22.008   8.226 -14.959  0.00  0.00    -0.042 C 
ATOM      9  H6  SX3 d         -25.778   9.145 -15.353  0.00  0.00     0.065 H 
ATOM     10  H7  SX3 d         -24.928   8.265 -16.668  0.00  0.00     0.065 H 
ATOM     11  H8  SX3 d         -23.745  10.336 -14.770  0.00  0.00     0.042 H 
ATOM     12  H12 SX3 d         -21.665  10.055 -16.038  0.00  0.00     0.034 H 
ATOM     13  H13 SX3 d         -22.417   8.743 -17.007  0.00  0.00     0.034 H 
ATOM     14  H14 SX3 d         -22.989   6.462 -15.629  0.00  0.00     0.065 H 
ATOM     15  H15 SX3 d         -22.857   6.626 -13.845  0.00  0.00     0.065 H 
ATOM     16  H16 SX3 d         -21.886   8.756 -14.003  0.00  0.00     0.042 H 
ENDROOT
BRANCH   1  17
ATOM     17  C9  SX3 d         -26.737   7.822 -13.532  0.00  0.00     0.059 A 
ATOM     18  C10 SX3 d         -26.882   9.148 -13.103  0.00  0.00    -0.049 A 
ATOM     19  C11 SX3 d         -28.161   9.680 -12.908  0.00  0.00     0.012 A 
ATOM     20  H1  SX3 d         -26.005   9.760 -12.924  0.00  0.00     0.087 H 
ATOM     21 BR1  SX3 d         -28.289  11.483 -12.345  0.00  0.00    -0.051 Br
ATOM     22  C12 SX3 d         -29.312   8.916 -13.130  0.00  0.00    -0.064 A 
ATOM     23  C13 SX3 d         -29.159   7.586 -13.568  0.00  0.00    -0.055 A 
ATOM     24  H2  SX3 d         -30.298   9.338 -12.968  0.00  0.00     0.085 H 
ATOM     25  C14 SX3 d         -27.883   7.014 -13.764  0.00  0.00     0.041 A 
ATOM     26  H3  SX3 d         -30.042   6.988 -13.759  0.00  0.00     0.087 H 
BRANCH  25  27
ATOM     27  N2  SX3 d         -27.801   5.675 -14.181  0.00  0.00    -0.398 N 
ATOM     28  H4  SX3 d         -27.035   5.375 -14.801  0.00  0.00     0.156 HD
ATOM     29  H5  SX3 d         -28.507   4.993 -13.866  0.00  0.00     0.156 HD
ENDBRANCH  25  27
ENDBRANCH   1  17
BRANCH   5  30
ATOM     30  C5  SX3 d         -24.199  10.809 -16.804  0.00  0.00    -0.071 C 
ATOM     31  H9  SX3 d         -24.807  11.604 -16.346  0.00  0.00     0.028 H 
ATOM     32  H10 SX3 d         -24.792  10.292 -17.573  0.00  0.00     0.028 H 
ATOM     33  H11 SX3 d         -23.304  11.252 -17.266  0.00  0.00     0.028 H 
ENDBRANCH   5  30
BRANCH   8  34
ATOM     34  C1  SX3 d         -20.675   7.585 -15.340  0.00  0.00    -0.071 C 
ATOM     35  H17 SX3 d         -20.753   7.150 -16.348  0.00  0.00     0.028 H 
ATOM     36  H18 SX3 d         -20.429   6.793 -14.617  0.00  0.00     0.028 H 
ATOM     37  H19 SX3 d         -19.885   8.350 -15.331  0.00  0.00     0.028 H 
ENDBRANCH   8  34
TORSDOF 4
ENDMDL
MODEL 8
REMARK VINA RESULT:      -4.7      2.498      3.792
REMARK  4 active torsions:
REMARK  status: ('A' for Active; 'I' for Inactive)
REMARK    1  A    between atoms: C14_6  and  N2_7 
REMARK    2  A    between atoms: C9_8  and  C8_9 
REMARK       I    between atoms: C8_9  and  N1_11 
REMARK    3  A    between atoms: C4_13  and  C5_14 
REMARK    4  A    between atoms: C2_17  and  C1_18 
ROOT
ATOM      1  C8  SX3 d         -25.035  10.578 -15.893  0.00  0.00     0.256 C 
ATOM      2  O1  SX3 d         -24.692  11.007 -16.995  0.00  0.00    -0.267 OA
ATOM      3  N1  SX3 d         -24.285   9.558 -15.285  0.00  0.00    -0.347 N 
ATOM      4  C6  SX3 d         -24.804   8.907 -14.075  0.00  0.00     0.001 C 
ATOM      5  C4  SX3 d         -24.961   7.400 -14.218  0.00  0.00    -0.042 C 
ATOM      6  C3  SX3 d         -23.657   6.771 -14.687  0.00  0.00    -0.056 C 
ATOM      7  C7  SX3 d         -23.143   8.888 -15.939  0.00  0.00     0.001 C 
ATOM      8  C2  SX3 d         -23.209   7.376 -16.011  0.00  0.00    -0.042 C 
ATOM      9  H6  SX3 d         -25.788   9.340 -13.841  0.00  0.00     0.065 H 
ATOM     10  H7  SX3 d         -24.108   9.108 -13.246  0.00  0.00     0.065 H 
ATOM     11  H8  SX3 d         -25.736   7.192 -14.969  0.00  0.00     0.042 H 
ATOM     12  H12 SX3 d         -23.805   5.689 -14.816  0.00  0.00     0.034 H 
ATOM     13  H13 SX3 d         -22.879   6.947 -13.928  0.00  0.00     0.034 H 
ATOM     14  H14 SX3 d         -22.232   9.159 -15.384  0.00  0.00     0.065 H 
ATOM     15  H15 SX3 d         -23.073   9.271 -16.967  0.00  0.00     0.065 H 
ATOM     16  H16 SX3 d         -23.938   7.098 -16.786  0.00  0.00     0.042 H 
ENDROOT
BRANCH   1  17
ATOM     17  C9  SX3 d         -26.223  11.248 -15.310  0.00  0.00     0.059 A 
ATOM     18  C10 SX3 d         -26.975  10.491 -14.401  0.00  0.00    -0.049 A 
ATOM     19  C11 SX3 d         -28.132  11.035 -13.834  0.00  0.00     0.012 A 
ATOM     20  H1  SX3 d         -26.661   9.488 -14.139  0.00  0.00     0.087 H 
ATOM     21 BR1  SX3 d         -29.095   9.969 -12.602  0.00  0.00    -0.051 Br
ATOM     22  C12 SX3 d         -28.564  12.328 -14.152  0.00  0.00    -0.064 A 
ATOM     23  C13 SX3 d         -27.799  13.086 -15.059  0.00  0.00    -0.055 A 
ATOM     24  H2  SX3 d         -29.467  12.736 -13.711  0.00  0.00     0.085 H 
ATOM     25  C14 SX3 d         -26.632  12.564 -15.660  0.00  0.00     0.041 A 
ATOM     26  H3  SX3 d         -28.113  14.094 -15.303  0.00  0.00     0.087 H 
BRANCH  25  27
ATOM     27  N2  SX3 d         -25.927  13.365 -16.573  0.00  0.00    -0.398 N 
ATOM     28  H4  SX3 d         -25.101  12.986 -17.060  0.00  0.00     0.156 HD
ATOM     29  H5  SX3 d         -26.236  14.330 -16.757  0.00  0.00     0.156 HD
ENDBRANCH  25  27
ENDBRANCH   1  17
BRANCH   5  30
ATOM     30  C5  SX3 d         -25.408   6.826 -12.890  0.00  0.00    -0.071 C 
ATOM     31  H9  SX3 d         -24.642   7.032 -12.126  0.00  0.00     0.028 H 
ATOM     32  H10 SX3 d         -25.546   5.739 -12.987  0.00  0.00     0.028 H 
ATOM     33  H11 SX3 d         -26.359   7.292 -12.590  0.00  0.00     0.028 H 
ENDBRANCH   5  30
BRANCH   8  34
ATOM     34  C1  SX3 d         -21.844   6.806 -16.390  0.00  0.00    -0.071 C 
ATOM     35  H17 SX3 d         -21.212   6.740 -15.493  0.00  0.00     0.028 H 
ATOM     36  H18 SX3 d         -21.364   7.465 -17.129  0.00  0.00     0.028 H 
ATOM     37  H19 SX3 d         -21.973   5.803 -16.822  0.00  0.00     0.028 H 
ENDBRANCH   8  34
TORSDOF 4
ENDMDL
MODEL 9
REMARK VINA RESULT:      -4.7      2.731      5.762
REMARK  4 active torsions:
REMARK  status: ('A' for Active; 'I' for Inactive)
REMARK    1  A    between atoms: C14_6  and  N2_7 
REMARK    2  A    between atoms: C9_8  and  C8_9 
REMARK       I    between atoms: C8_9  and  N1_11 
REMARK    3  A    between atoms: C4_13  and  C5_14 
REMARK    4  A    between atoms: C2_17  and  C1_18 
ROOT
ATOM      1  C8  SX3 d         -25.130   7.019 -15.191  0.00  0.00     0.256 C 
ATOM      2  O1  SX3 d         -25.114   5.975 -15.842  0.00  0.00    -0.267 OA
ATOM      3  N1  SX3 d         -26.064   7.174 -14.154  0.00  0.00    -0.347 N 
ATOM      4  C6  SX3 d         -26.220   8.486 -13.515  0.00  0.00     0.001 C 
ATOM      5  C4  SX3 d         -27.640   9.032 -13.590  0.00  0.00    -0.042 C 
ATOM      6  C3  SX3 d         -28.630   8.013 -13.045  0.00  0.00    -0.056 C 
ATOM      7  C7  SX3 d         -27.113   6.179 -13.850  0.00  0.00     0.001 C 
ATOM      8  C2  SX3 d         -28.535   6.701 -13.813  0.00  0.00    -0.042 C 
ATOM      9  H6  SX3 d         -25.546   9.199 -14.013  0.00  0.00     0.065 H 
ATOM     10  H7  SX3 d         -25.938   8.394 -12.456  0.00  0.00     0.065 H 
ATOM     11  H8  SX3 d         -27.890   9.231 -14.642  0.00  0.00     0.042 H 
ATOM     12  H12 SX3 d         -29.650   8.414 -13.142  0.00  0.00     0.034 H 
ATOM     13  H13 SX3 d         -28.408   7.827 -11.984  0.00  0.00     0.034 H 
ATOM     14  H14 SX3 d         -26.888   5.743 -12.866  0.00  0.00     0.065 H 
ATOM     15  H15 SX3 d         -27.064   5.393 -14.618  0.00  0.00     0.065 H 
ATOM     16  H16 SX3 d         -28.867   6.876 -14.846  0.00  0.00     0.042 H 
ENDROOT
BRANCH   1  17
ATOM     17  C9  SX3 d         -24.091   8.006 -15.578  0.00  0.00     0.059 A 
ATOM     18  C10 SX3 d         -22.826   7.827 -15.002  0.00  0.00    -0.049 A 
ATOM     19  C11 SX3 d         -21.800   8.736 -15.283  0.00  0.00     0.012 A 
ATOM     20  H1  SX3 d         -22.643   6.989 -14.341  0.00  0.00     0.087 H 
ATOM     21 BR1  SX3 d         -20.110   8.431 -14.487  0.00  0.00    -0.051 Br
ATOM     22  C12 SX3 d         -22.004   9.830 -16.132  0.00  0.00    -0.064 A 
ATOM     23  C13 SX3 d         -23.276   9.998 -16.713  0.00  0.00    -0.055 A 
ATOM     24  H2  SX3 d         -21.202  10.530 -16.337  0.00  0.00     0.085 H 
ATOM     25  C14 SX3 d         -24.337   9.107 -16.442  0.00  0.00     0.041 A 
ATOM     26  H3  SX3 d         -23.444  10.831 -17.385  0.00  0.00     0.087 H 
BRANCH  25  27
ATOM     27  N2  SX3 d         -25.587   9.345 -17.038  0.00  0.00    -0.398 N 
ATOM     28  H4  SX3 d         -26.022   8.621 -17.628  0.00  0.00     0.156 HD
ATOM     29  H5  SX3 d         -26.068  10.243 -16.884  0.00  0.00     0.156 HD
ENDBRANCH  25  27
ENDBRANCH   1  17
BRANCH   5  30
ATOM     30  C5  SX3 d         -27.704  10.335 -12.822  0.00  0.00    -0.071 C 
ATOM     31  H9  SX3 d         -28.502  10.967 -13.239  0.00  0.00     0.028 H 
ATOM     32  H10 SX3 d         -26.740  10.858 -12.905  0.00  0.00     0.028 H 
ATOM     33  H11 SX3 d         -27.918  10.126 -11.763  0.00  0.00     0.028 H 
ENDBRANCH   5  30
BRANCH   8  34
ATOM     34  C1  SX3 d         -29.458   5.670 -13.166  0.00  0.00    -0.071 C 
ATOM     35  H17 SX3 d         -29.975   5.097 -13.951  0.00  0.00     0.028 H 
ATOM     36  H18 SX3 d         -30.200   6.185 -12.539  0.00  0.00     0.028 H 
ATOM     37  H19 SX3 d         -28.863   4.985 -12.544  0.00  0.00     0.028 H 
ENDBRANCH   8  34
TORSDOF 4
ENDMDL
MODEL 10
REMARK VINA RESULT:      -4.5      3.127      5.886
REMARK  4 active torsions:
REMARK  status: ('A' for Active; 'I' for Inactive)
REMARK    1  A    between atoms: C14_6  and  N2_7 
REMARK    2  A    between atoms: C9_8  and  C8_9 
REMARK       I    between atoms: C8_9  and  N1_11 
REMARK    3  A    between atoms: C4_13  and  C5_14 
REMARK    4  A    between atoms: C2_17  and  C1_18 
ROOT
ATOM      1  C8  SX3 d         -24.841   8.761 -17.113  0.00  0.00     0.256 C 
ATOM      2  O1  SX3 d         -24.993   9.719 -17.870  0.00  0.00    -0.267 OA
ATOM      3  N1  SX3 d         -25.965   8.046 -16.668  0.00  0.00    -0.347 N 
ATOM      4  C6  SX3 d         -25.805   7.037 -15.613  0.00  0.00     0.001 C 
ATOM      5  C4  SX3 d         -26.672   7.298 -14.389  0.00  0.00    -0.042 C 
ATOM      6  C3  SX3 d         -28.128   7.469 -14.796  0.00  0.00    -0.056 C 
ATOM      7  C7  SX3 d         -27.354   8.438 -16.981  0.00  0.00     0.001 C 
ATOM      8  C2  SX3 d         -28.281   8.609 -15.795  0.00  0.00    -0.042 C 
ATOM      9  H6  SX3 d         -24.751   7.026 -15.298  0.00  0.00     0.065 H 
ATOM     10  H7  SX3 d         -26.074   6.054 -16.027  0.00  0.00     0.065 H 
ATOM     11  H8  SX3 d         -26.336   8.227 -13.905  0.00  0.00     0.042 H 
ATOM     12  H12 SX3 d         -28.729   7.692 -13.901  0.00  0.00     0.034 H 
ATOM     13  H13 SX3 d         -28.486   6.536 -15.255  0.00  0.00     0.034 H 
ATOM     14  H14 SX3 d         -27.783   7.664 -17.635  0.00  0.00     0.065 H 
ATOM     15  H15 SX3 d         -27.319   9.395 -17.521  0.00  0.00     0.065 H 
ATOM     16  H16 SX3 d         -28.028   9.552 -15.290  0.00  0.00     0.042 H 
ENDROOT
BRANCH   1  17
ATOM     17  C9  SX3 d         -23.428   8.447 -16.787  0.00  0.00     0.059 A 
ATOM     18  C10 SX3 d         -22.832   7.427 -17.540  0.00  0.00    -0.049 A 
ATOM     19  C11 SX3 d         -21.514   7.043 -17.270  0.00  0.00     0.012 A 
ATOM     20  H1  SX3 d         -23.390   6.937 -18.329  0.00  0.00     0.087 H 
ATOM     21 BR1  SX3 d         -20.761   5.670 -18.334  0.00  0.00    -0.051 Br
ATOM     22  C12 SX3 d         -20.766   7.655 -16.258  0.00  0.00    -0.064 A 
ATOM     23  C13 SX3 d         -21.369   8.686 -15.511  0.00  0.00    -0.055 A 
ATOM     24  H2  SX3 d         -19.748   7.344 -16.054  0.00  0.00     0.085 H 
ATOM     25  C14 SX3 d         -22.701   9.090 -15.748  0.00  0.00     0.041 A 
ATOM     26  H3  SX3 d         -20.797   9.179 -14.734  0.00  0.00     0.087 H 
BRANCH  25  27
ATOM     27  N2  SX3 d         -23.249  10.109 -14.951  0.00  0.00    -0.398 N 
ATOM     28  H4  SX3 d         -23.085  10.112 -13.934  0.00  0.00     0.156 HD
ATOM     29  H5  SX3 d         -23.814  10.853 -15.384  0.00  0.00     0.156 HD
ENDBRANCH  25  27
ENDBRANCH   1  17
BRANCH   5  30
ATOM     30  C5  SX3 d         -26.499   6.153 -13.414  0.00  0.00    -0.071 C 
ATOM     31  H9  SX3 d         -26.561   5.198 -13.956  0.00  0.00     0.028 H 
ATOM     32  H10 SX3 d         -27.294   6.195 -12.654  0.00  0.00     0.028 H 
ATOM     33  H11 SX3 d         -25.518   6.234 -12.923  0.00  0.00     0.028 H 
ENDBRANCH   5  30
BRANCH   8  34
ATOM     34  C1  SX3 d         -29.732   8.676 -16.266  0.00  0.00    -0.071 C 
ATOM     35  H17 SX3 d         -30.063   7.674 -16.579  0.00  0.00     0.028 H 
ATOM     36  H18 SX3 d         -29.810   9.369 -17.117  0.00  0.00     0.028 H 
ATOM     37  H19 SX3 d         -30.369   9.031 -15.443  0.00  0.00     0.028 H 
ENDBRANCH   8  34
TORSDOF 4
ENDMDL
