MODEL 1
REMARK VINA RESULT:      -5.7      0.000      0.000
REMARK  5 active torsions:
REMARK  status: ('A' for Active; 'I' for Inactive)
REMARK       I    between atoms: N3_3  and  C14_6 
REMARK    1  A    between atoms: C14_6  and  C15_7 
REMARK    2  A    between atoms: C15_7  and  C16_8 
REMARK    3  A    between atoms: C15_7  and  N19_11 
REMARK    4  A    between atoms: C16_8  and  C17_9 
REMARK    5  A    between atoms: C16_8  and  C26_12 
ROOT
ATOM      1  C15 A3M d          82.630  75.065  98.655  0.00  0.00     0.169 C 
ATOM      2  H9  A3M d          82.421  75.338  99.699  0.00  0.00     0.092 H 
ENDROOT
BRANCH   1   3
ATOM      3  C14 A3M d          81.494  74.235  98.232  0.00  0.00     0.384 C 
ATOM      4  N3  A3M d          80.153  74.695  97.873  0.00  0.00     0.134 N 
ATOM      5  C2  A3M d          79.495  75.476  98.934  0.00  0.00     0.117 C 
ATOM      6  C4  A3M d          79.163  73.657  97.505  0.00  0.00     0.117 C 
ATOM      7  C1  A3M d          77.930  75.407  98.584  0.00  0.00    -0.038 C 
ATOM      8  H3  A3M d          79.691  75.031  99.921  0.00  0.00     0.080 H 
ATOM      9  H4  A3M d          79.849  76.518  98.925  0.00  0.00     0.080 H 
ATOM     10  C5  A3M d          77.893  74.510  97.266  0.00  0.00    -0.038 C 
ATOM     11  H1  A3M d          77.525  76.411  98.389  0.00  0.00     0.035 H 
ATOM     12  H2  A3M d          77.363  74.934  99.399  0.00  0.00     0.035 H 
ATOM     13  H7  A3M d          77.972  75.118  96.354  0.00  0.00     0.035 H 
ATOM     14  H8  A3M d          76.985  73.891  97.217  0.00  0.00     0.035 H 
ATOM     15  H5  A3M d          79.014  72.936  98.323  0.00  0.00     0.080 H 
ATOM     16  H6  A3M d          79.463  73.121  96.593  0.00  0.00     0.080 H 
ATOM     17  O18 A3M d          81.733  72.882  98.178  0.00  0.00    -0.186 OA
ENDBRANCH   1   3
BRANCH   1  18
ATOM     18  C16 A3M d          82.887  76.352  97.925  0.00  0.00    -0.029 C 
ATOM     19  H10 A3M d          82.399  76.284  96.941  0.00  0.00     0.042 H 
BRANCH  18  20
ATOM     20  C17 A3M d          82.405  77.560  98.612  0.00  0.00    -0.071 C 
ATOM     21  H11 A3M d          81.307  77.539  98.665  0.00  0.00     0.028 H 
ATOM     22  H12 A3M d          82.728  78.452  98.056  0.00  0.00     0.028 H 
ATOM     23  H13 A3M d          82.821  77.594  99.630  0.00  0.00     0.028 H 
ENDBRANCH  18  20
BRANCH  18  24
ATOM     24  C26 A3M d          84.550  76.592  97.725  0.00  0.00    -0.071 C 
ATOM     25  H17 A3M d          84.785  76.650  96.652  0.00  0.00     0.028 H 
ATOM     26  H18 A3M d          85.099  75.752  98.176  0.00  0.00     0.028 H 
ATOM     27  H19 A3M d          84.847  77.530  98.216  0.00  0.00     0.028 H 
ENDBRANCH  18  24
ENDBRANCH   1  18
BRANCH   1  28
ATOM     28  N19 A3M d          83.911  74.284  98.635  0.00  0.00    -0.070 N 
ATOM     29  H14 A3M d          84.685  74.903  98.821  0.00  0.00     0.274 HD
ATOM     30  H15 A3M d          84.032  73.859  97.729  0.00  0.00     0.274 HD
ATOM     31  H16 A3M d          83.879  73.567  99.341  0.00  0.00     0.274 HD
ENDBRANCH   1  28
TORSDOF 5
ENDMDL
MODEL 2
REMARK VINA RESULT:      -5.5      1.291      4.663
REMARK  5 active torsions:
REMARK  status: ('A' for Active; 'I' for Inactive)
REMARK       I    between atoms: N3_3  and  C14_6 
REMARK    1  A    between atoms: C14_6  and  C15_7 
REMARK    2  A    between atoms: C15_7  and  C16_8 
REMARK    3  A    between atoms: C15_7  and  N19_11 
REMARK    4  A    between atoms: C16_8  and  C17_9 
REMARK    5  A    between atoms: C16_8  and  C26_12 
ROOT
ATOM      1  C15 A3M d          80.189  74.652  97.871  0.00  0.00     0.169 C 
ATOM      2  H9  A3M d          80.037  75.617  97.367  0.00  0.00     0.092 H 
ENDROOT
BRANCH   1   3
ATOM      3  C14 A3M d          81.635  74.564  98.121  0.00  0.00     0.384 C 
ATOM      4  N3  A3M d          82.572  75.676  98.268  0.00  0.00     0.134 N 
ATOM      5  C2  A3M d          82.586  76.591  97.113  0.00  0.00     0.117 C 
ATOM      6  C4  A3M d          83.996  75.330  98.486  0.00  0.00     0.117 C 
ATOM      7  C1  A3M d          83.987  77.366  97.221  0.00  0.00    -0.038 C 
ATOM      8  H3  A3M d          82.527  76.026  96.171  0.00  0.00     0.080 H 
ATOM      9  H4  A3M d          81.746  77.299  97.170  0.00  0.00     0.080 H 
ATOM     10  C5  A3M d          84.654  76.731  98.522  0.00  0.00    -0.038 C 
ATOM     11  H1  A3M d          83.831  78.448  97.345  0.00  0.00     0.035 H 
ATOM     12  H2  A3M d          84.608  77.185  96.331  0.00  0.00     0.035 H 
ATOM     13  H7  A3M d          84.387  77.287  99.433  0.00  0.00     0.035 H 
ATOM     14  H8  A3M d          85.749  76.674  98.436  0.00  0.00     0.035 H 
ATOM     15  H5  A3M d          84.393  74.722  97.659  0.00  0.00     0.080 H 
ATOM     16  H6  A3M d          84.138  74.795  99.436  0.00  0.00     0.080 H 
ATOM     17  O18 A3M d          82.144  73.290  98.219  0.00  0.00    -0.186 OA
ENDBRANCH   1   3
BRANCH   1  18
ATOM     18  C16 A3M d          79.259  74.641  99.050  0.00  0.00    -0.029 C 
ATOM     19  H10 A3M d          79.845  74.898  99.945  0.00  0.00     0.042 H 
BRANCH  18  20
ATOM     20  C17 A3M d          78.118  75.564  98.947  0.00  0.00    -0.071 C 
ATOM     21  H11 A3M d          78.382  76.401  98.284  0.00  0.00     0.028 H 
ATOM     22  H12 A3M d          77.870  75.953  99.946  0.00  0.00     0.028 H 
ATOM     23  H13 A3M d          77.249  75.030  98.536  0.00  0.00     0.028 H 
ENDBRANCH  18  20
BRANCH  18  24
ATOM     24  C26 A3M d          78.568  73.108  99.239  0.00  0.00    -0.071 C 
ATOM     25  H17 A3M d          77.911  73.107 100.121  0.00  0.00     0.028 H 
ATOM     26  H18 A3M d          79.364  72.360  99.374  0.00  0.00     0.028 H 
ATOM     27  H19 A3M d          77.980  72.857  98.343  0.00  0.00     0.028 H 
ENDBRANCH  18  24
ENDBRANCH   1  18
BRANCH   1  28
ATOM     28  N19 A3M d          79.731  73.571  96.938  0.00  0.00    -0.070 N 
ATOM     29  H14 A3M d          80.452  73.385  96.258  0.00  0.00     0.274 HD
ATOM     30  H15 A3M d          78.893  73.868  96.465  0.00  0.00     0.274 HD
ATOM     31  H16 A3M d          79.541  72.732  97.463  0.00  0.00     0.274 HD
ENDBRANCH   1  28
TORSDOF 5
ENDMDL
MODEL 3
REMARK VINA RESULT:      -5.3      1.910      5.016
REMARK  5 active torsions:
REMARK  status: ('A' for Active; 'I' for Inactive)
REMARK       I    between atoms: N3_3  and  C14_6 
REMARK    1  A    between atoms: C14_6  and  C15_7 
REMARK    2  A    between atoms: C15_7  and  C16_8 
REMARK    3  A    between atoms: C15_7  and  N19_11 
REMARK    4  A    between atoms: C16_8  and  C17_9 
REMARK    5  A    between atoms: C16_8  and  C26_12 
ROOT
ATOM      1  C15 A3M d          80.038  74.972  98.714  0.00  0.00     0.169 C 
ATOM      2  H9  A3M d          80.675  74.123  98.425  0.00  0.00     0.092 H 
ENDROOT
BRANCH   1   3
ATOM      3  C14 A3M d          80.887  76.163  98.579  0.00  0.00     0.384 C 
ATOM      4  N3  A3M d          82.202  76.239  97.943  0.00  0.00     0.134 N 
ATOM      5  C2  A3M d          83.189  75.309  98.517  0.00  0.00     0.117 C 
ATOM      6  C4  A3M d          82.879  77.557  97.958  0.00  0.00     0.117 C 
ATOM      7  C1  A3M d          84.615  75.908  98.090  0.00  0.00    -0.038 C 
ATOM      8  H3  A3M d          83.096  75.272  99.612  0.00  0.00     0.080 H 
ATOM      9  H4  A3M d          83.054  74.298  98.104  0.00  0.00     0.080 H 
ATOM     10  C5  A3M d          84.227  77.221  97.273  0.00  0.00    -0.038 C 
ATOM     11  H1  A3M d          85.168  75.199  97.458  0.00  0.00     0.035 H 
ATOM     12  H2  A3M d          85.218  76.159  98.975  0.00  0.00     0.035 H 
ATOM     13  H7  A3M d          84.101  77.014  96.200  0.00  0.00     0.035 H 
ATOM     14  H8  A3M d          84.968  78.022  97.407  0.00  0.00     0.035 H 
ATOM     15  H5  A3M d          83.032  77.919  98.986  0.00  0.00     0.080 H 
ATOM     16  H6  A3M d          82.314  78.306  97.386  0.00  0.00     0.080 H 
ATOM     17  O18 A3M d          80.378  77.321  99.119  0.00  0.00    -0.186 OA
ENDBRANCH   1   3
BRANCH   1  18
ATOM     18  C16 A3M d          78.800  74.877  97.870  0.00  0.00    -0.029 C 
ATOM     19  H10 A3M d          78.895  75.603  97.048  0.00  0.00     0.042 H 
BRANCH  18  20
ATOM     20  C17 A3M d          78.540  73.546  97.298  0.00  0.00    -0.071 C 
ATOM     21  H11 A3M d          77.549  73.539  96.821  0.00  0.00     0.028 H 
ATOM     22  H12 A3M d          78.567  72.792  98.098  0.00  0.00     0.028 H 
ATOM     23  H13 A3M d          79.310  73.312  96.548  0.00  0.00     0.028 H 
ENDBRANCH  18  20
BRANCH  18  24
ATOM     24  C26 A3M d          77.429  75.234  98.795  0.00  0.00    -0.071 C 
ATOM     25  H17 A3M d          77.740  75.621  99.776  0.00  0.00     0.028 H 
ATOM     26  H18 A3M d          76.831  74.321  98.933  0.00  0.00     0.028 H 
ATOM     27  H19 A3M d          76.824  75.993  98.276  0.00  0.00     0.028 H 
ENDBRANCH  18  24
ENDBRANCH   1  18
BRANCH   1  28
ATOM     28  N19 A3M d          79.617  74.763 100.139  0.00  0.00    -0.070 N 
ATOM     29  H14 A3M d          78.641  74.998 100.239  0.00  0.00     0.274 HD
ATOM     30  H15 A3M d          80.168  75.351 100.742  0.00  0.00     0.274 HD
ATOM     31  H16 A3M d          79.756  73.797 100.392  0.00  0.00     0.274 HD
ENDBRANCH   1  28
TORSDOF 5
ENDMDL
MODEL 4
REMARK VINA RESULT:      -5.1      1.797      2.090
REMARK  5 active torsions:
REMARK  status: ('A' for Active; 'I' for Inactive)
REMARK       I    between atoms: N3_3  and  C14_6 
REMARK    1  A    between atoms: C14_6  and  C15_7 
REMARK    2  A    between atoms: C15_7  and  C16_8 
REMARK    3  A    between atoms: C15_7  and  N19_11 
REMARK    4  A    between atoms: C16_8  and  C17_9 
REMARK    5  A    between atoms: C16_8  and  C26_12 
ROOT
ATOM      1  C15 A3M d          82.556  76.108  99.044  0.00  0.00     0.169 C 
ATOM      2  H9  A3M d          82.896  76.815  99.814  0.00  0.00     0.092 H 
ENDROOT
BRANCH   1   3
ATOM      3  C14 A3M d          81.096  76.265  98.986  0.00  0.00     0.384 C 
ATOM      4  N3  A3M d          80.107  75.213  98.753  0.00  0.00     0.134 N 
ATOM      5  C2  A3M d          80.317  74.474  97.496  0.00  0.00     0.117 C 
ATOM      6  C4  A3M d          78.685  75.627  98.710  0.00  0.00     0.117 C 
ATOM      7  C1  A3M d          78.898  73.795  97.179  0.00  0.00    -0.038 C 
ATOM      8  H3  A3M d          80.608  75.161  96.688  0.00  0.00     0.080 H 
ATOM      9  H4  A3M d          81.094  73.706  97.624  0.00  0.00     0.080 H 
ATOM     10  C5  A3M d          77.982  74.286  98.387  0.00  0.00    -0.038 C 
ATOM     11  H1  A3M d          78.980  72.698  97.165  0.00  0.00     0.035 H 
ATOM     12  H2  A3M d          78.500  74.145  96.215  0.00  0.00     0.035 H 
ATOM     13  H7  A3M d          78.016  73.589  99.237  0.00  0.00     0.035 H 
ATOM     14  H8  A3M d          76.937  74.434  98.077  0.00  0.00     0.035 H 
ATOM     15  H5  A3M d          78.508  76.373  97.921  0.00  0.00     0.080 H 
ATOM     16  H6  A3M d          78.355  76.031  99.677  0.00  0.00     0.080 H 
ATOM     17  O18 A3M d          80.628  77.545  99.166  0.00  0.00    -0.186 OA
ENDBRANCH   1   3
BRANCH   1  18
ATOM     18  C16 A3M d          83.358  76.412  97.810  0.00  0.00    -0.029 C 
ATOM     19  H10 A3M d          82.931  75.830  96.980  0.00  0.00     0.042 H 
BRANCH  18  20
ATOM     20  C17 A3M d          83.390  77.833  97.427  0.00  0.00    -0.071 C 
ATOM     21  H11 A3M d          84.073  77.967  96.575  0.00  0.00     0.028 H 
ATOM     22  H12 A3M d          83.743  78.434  98.278  0.00  0.00     0.028 H 
ATOM     23  H13 A3M d          82.380  78.159  97.142  0.00  0.00     0.028 H 
ENDBRANCH  18  20
BRANCH  18  24
ATOM     24  C26 A3M d          84.977  75.981  98.041  0.00  0.00    -0.071 C 
ATOM     25  H17 A3M d          85.625  76.827  97.767  0.00  0.00     0.028 H 
ATOM     26  H18 A3M d          85.220  75.114  97.409  0.00  0.00     0.028 H 
ATOM     27  H19 A3M d          85.141  75.721  99.097  0.00  0.00     0.028 H 
ENDBRANCH  18  24
ENDBRANCH   1  18
BRANCH   1  28
ATOM     28  N19 A3M d          82.939  74.728  99.488  0.00  0.00    -0.070 N 
ATOM     29  H14 A3M d          82.562  74.051  98.844  0.00  0.00     0.274 HD
ATOM     30  H15 A3M d          82.568  74.557 100.410  0.00  0.00     0.274 HD
ATOM     31  H16 A3M d          83.943  74.648  99.510  0.00  0.00     0.274 HD
ENDBRANCH   1  28
TORSDOF 5
ENDMDL
MODEL 5
REMARK VINA RESULT:      -4.6      1.553      4.809
REMARK  5 active torsions:
REMARK  status: ('A' for Active; 'I' for Inactive)
REMARK       I    between atoms: N3_3  and  C14_6 
REMARK    1  A    between atoms: C14_6  and  C15_7 
REMARK    2  A    between atoms: C15_7  and  C16_8 
REMARK    3  A    between atoms: C15_7  and  N19_11 
REMARK    4  A    between atoms: C16_8  and  C17_9 
REMARK    5  A    between atoms: C16_8  and  C26_12 
ROOT
ATOM      1  C15 A3M d          78.939  74.351  97.413  0.00  0.00     0.169 C 
ATOM      2  H9  A3M d          79.119  75.113  96.641  0.00  0.00     0.092 H 
ENDROOT
BRANCH   1   3
ATOM      3  C14 A3M d          79.954  74.593  98.449  0.00  0.00     0.384 C 
ATOM      4  N3  A3M d          80.923  75.687  98.492  0.00  0.00     0.134 N 
ATOM      5  C2  A3M d          81.781  75.762  97.297  0.00  0.00     0.117 C 
ATOM      6  C4  A3M d          81.869  75.700  99.632  0.00  0.00     0.117 C 
ATOM      7  C1  A3M d          83.058  76.615  97.762  0.00  0.00    -0.038 C 
ATOM      8  H3  A3M d          82.084  74.755  96.974  0.00  0.00     0.080 H 
ATOM      9  H4  A3M d          81.255  76.269  96.474  0.00  0.00     0.080 H 
ATOM     10  C5  A3M d          82.745  76.931  99.293  0.00  0.00    -0.038 C 
ATOM     11  H1  A3M d          83.147  77.543  97.178  0.00  0.00     0.035 H 
ATOM     12  H2  A3M d          83.983  76.028  97.661  0.00  0.00     0.035 H 
ATOM     13  H7  A3M d          82.193  77.874  99.413  0.00  0.00     0.035 H 
ATOM     14  H8  A3M d          83.661  76.964  99.901  0.00  0.00     0.035 H 
ATOM     15  H5  A3M d          82.469  74.778  99.667  0.00  0.00     0.080 H 
ATOM     16  H6  A3M d          81.344  75.833 100.588  0.00  0.00     0.080 H 
ATOM     17  O18 A3M d          79.984  73.680  99.476  0.00  0.00    -0.186 OA
ENDBRANCH   1   3
BRANCH   1  18
ATOM     18  C16 A3M d          77.490  74.468  97.791  0.00  0.00    -0.029 C 
ATOM     19  H10 A3M d          76.944  74.851  96.916  0.00  0.00     0.042 H 
BRANCH  18  20
ATOM     20  C17 A3M d          76.861  73.214  98.232  0.00  0.00    -0.071 C 
ATOM     21  H11 A3M d          76.810  72.512  97.387  0.00  0.00     0.028 H 
ATOM     22  H12 A3M d          75.845  73.422  98.598  0.00  0.00     0.028 H 
ATOM     23  H13 A3M d          77.457  72.769  99.043  0.00  0.00     0.028 H 
ENDBRANCH  18  20
BRANCH  18  24
ATOM     24  C26 A3M d          77.307  75.535  99.092  0.00  0.00    -0.071 C 
ATOM     25  H17 A3M d          76.271  75.491  99.459  0.00  0.00     0.028 H 
ATOM     26  H18 A3M d          77.536  76.559  98.762  0.00  0.00     0.028 H 
ATOM     27  H19 A3M d          77.995  75.248  99.901  0.00  0.00     0.028 H 
ENDBRANCH  18  24
ENDBRANCH   1  18
BRANCH   1  28
ATOM     28  N19 A3M d          79.121  73.004  96.778  0.00  0.00    -0.070 N 
ATOM     29  H14 A3M d          79.067  72.288  97.485  0.00  0.00     0.274 HD
ATOM     30  H15 A3M d          80.021  72.964  96.327  0.00  0.00     0.274 HD
ATOM     31  H16 A3M d          78.396  72.855  96.094  0.00  0.00     0.274 HD
ENDBRANCH   1  28
TORSDOF 5
ENDMDL
MODEL 6
REMARK VINA RESULT:      -4.6      1.495      1.727
REMARK  5 active torsions:
REMARK  status: ('A' for Active; 'I' for Inactive)
REMARK       I    between atoms: N3_3  and  C14_6 
REMARK    1  A    between atoms: C14_6  and  C15_7 
REMARK    2  A    between atoms: C15_7  and  C16_8 
REMARK    3  A    between atoms: C15_7  and  N19_11 
REMARK    4  A    between atoms: C16_8  and  C17_9 
REMARK    5  A    between atoms: C16_8  and  C26_12 
ROOT
ATOM      1  C15 A3M d          82.110  76.911  98.648  0.00  0.00     0.169 C 
ATOM      2  H9  A3M d          81.258  77.575  98.444  0.00  0.00     0.092 H 
ENDROOT
BRANCH   1   3
ATOM      3  C14 A3M d          81.729  75.603  98.095  0.00  0.00     0.384 C 
ATOM      4  N3  A3M d          80.389  75.173  97.697  0.00  0.00     0.134 N 
ATOM      5  C2  A3M d          79.393  75.273  98.778  0.00  0.00     0.117 C 
ATOM      6  C4  A3M d          80.252  73.787  97.191  0.00  0.00     0.117 C 
ATOM      7  C1  A3M d          78.205  74.290  98.334  0.00  0.00    -0.038 C 
ATOM      8  H3  A3M d          79.827  74.948  99.735  0.00  0.00     0.080 H 
ATOM      9  H4  A3M d          79.027  76.306  98.872  0.00  0.00     0.080 H 
ATOM     10  C5  A3M d          78.725  73.695  96.949  0.00  0.00    -0.038 C 
ATOM     11  H1  A3M d          77.265  74.843  98.197  0.00  0.00     0.035 H 
ATOM     12  H2  A3M d          78.056  73.491  99.075  0.00  0.00     0.035 H 
ATOM     13  H7  A3M d          78.408  74.309  96.094  0.00  0.00     0.035 H 
ATOM     14  H8  A3M d          78.395  72.657  96.798  0.00  0.00     0.035 H 
ATOM     15  H5  A3M d          80.585  73.052  97.939  0.00  0.00     0.080 H 
ATOM     16  H6  A3M d          80.816  73.643  96.259  0.00  0.00     0.080 H 
ATOM     17  O18 A3M d          82.754  74.699  97.947  0.00  0.00    -0.186 OA
ENDBRANCH   1   3
BRANCH   1  18
ATOM     18  C16 A3M d          83.322  77.598  98.088  0.00  0.00    -0.029 C 
ATOM     19  H10 A3M d          83.181  78.682  98.209  0.00  0.00     0.042 H 
BRANCH  18  20
ATOM     20  C17 A3M d          84.597  77.211  98.712  0.00  0.00    -0.071 C 
ATOM     21  H11 A3M d          85.432  77.527  98.069  0.00  0.00     0.028 H 
ATOM     22  H12 A3M d          84.627  76.119  98.841  0.00  0.00     0.028 H 
ATOM     23  H13 A3M d          84.687  77.698  99.694  0.00  0.00     0.028 H 
ENDBRANCH  18  20
BRANCH  18  24
ATOM     24  C26 A3M d          83.504  77.223  96.447  0.00  0.00    -0.071 C 
ATOM     25  H17 A3M d          84.566  77.035  96.230  0.00  0.00     0.028 H 
ATOM     26  H18 A3M d          83.149  78.067  95.837  0.00  0.00     0.028 H 
ATOM     27  H19 A3M d          82.916  76.325  96.209  0.00  0.00     0.028 H 
ENDBRANCH  18  24
ENDBRANCH   1  18
BRANCH   1  28
ATOM     28  N19 A3M d          82.291  76.841 100.135  0.00  0.00    -0.070 N 
ATOM     29  H14 A3M d          82.803  77.650 100.450  0.00  0.00     0.274 HD
ATOM     30  H15 A3M d          82.802  76.006 100.373  0.00  0.00     0.274 HD
ATOM     31  H16 A3M d          81.388  76.821 100.583  0.00  0.00     0.274 HD
ENDBRANCH   1  28
TORSDOF 5
ENDMDL
MODEL 7
REMARK VINA RESULT:      -4.2      1.843      2.437
REMARK  5 active torsions:
REMARK  status: ('A' for Active; 'I' for Inactive)
REMARK       I    between atoms: N3_3  and  C14_6 
REMARK    1  A    between atoms: C14_6  and  C15_7 
REMARK    2  A    between atoms: C15_7  and  C16_8 
REMARK    3  A    between atoms: C15_7  and  N19_11 
REMARK    4  A    between atoms: C16_8  and  C17_9 
REMARK    5  A    between atoms: C16_8  and  C26_12 
ROOT
ATOM      1  C15 A3M d          83.113  76.340  99.323  0.00  0.00     0.169 C 
ATOM      2  H9  A3M d          83.385  76.607 100.354  0.00  0.00     0.092 H 
ENDROOT
BRANCH   1   3
ATOM      3  C14 A3M d          81.656  76.520  99.242  0.00  0.00     0.384 C 
ATOM      4  N3  A3M d          80.648  75.476  99.066  0.00  0.00     0.134 N 
ATOM      5  C2  A3M d          80.853  74.657  97.858  0.00  0.00     0.117 C 
ATOM      6  C4  A3M d          79.235  75.914  98.983  0.00  0.00     0.117 C 
ATOM      7  C1  A3M d          79.424  73.987  97.570  0.00  0.00    -0.038 C 
ATOM      8  H3  A3M d          81.164  75.287  97.012  0.00  0.00     0.080 H 
ATOM      9  H4  A3M d          81.615  73.884  98.040  0.00  0.00     0.080 H 
ATOM     10  C5  A3M d          78.508  74.569  98.737  0.00  0.00    -0.038 C 
ATOM     11  H1  A3M d          79.484  72.891  97.625  0.00  0.00     0.035 H 
ATOM     12  H2  A3M d          79.041  74.285  96.582  0.00  0.00     0.035 H 
ATOM     13  H7  A3M d          78.522  73.926  99.629  0.00  0.00     0.035 H 
ATOM     14  H8  A3M d          77.469  74.718  98.409  0.00  0.00     0.035 H 
ATOM     15  H5  A3M d          79.080  76.613  98.148  0.00  0.00     0.080 H 
ATOM     16  H6  A3M d          78.906  76.383  99.922  0.00  0.00     0.080 H 
ATOM     17  O18 A3M d          81.213  77.819  99.339  0.00  0.00    -0.186 OA
ENDBRANCH   1   3
BRANCH   1  18
ATOM     18  C16 A3M d          83.987  77.170  98.428  0.00  0.00    -0.029 C 
ATOM     19  H10 A3M d          84.213  78.110  98.954  0.00  0.00     0.042 H 
BRANCH  18  20
ATOM     20  C17 A3M d          85.252  76.532  98.031  0.00  0.00    -0.071 C 
ATOM     21  H11 A3M d          85.094  75.939  97.118  0.00  0.00     0.028 H 
ATOM     22  H12 A3M d          85.600  75.873  98.840  0.00  0.00     0.028 H 
ATOM     23  H13 A3M d          86.009  77.306  97.839  0.00  0.00     0.028 H 
ENDBRANCH  18  20
BRANCH  18  24
ATOM     24  C26 A3M d          83.189  77.506  96.974  0.00  0.00    -0.071 C 
ATOM     25  H17 A3M d          83.456  78.517  96.634  0.00  0.00     0.028 H 
ATOM     26  H18 A3M d          82.101  77.447  97.130  0.00  0.00     0.028 H 
ATOM     27  H19 A3M d          83.489  76.771  96.212  0.00  0.00     0.028 H 
ENDBRANCH  18  24
ENDBRANCH   1  18
BRANCH   1  28
ATOM     28  N19 A3M d          83.496  74.906  99.106  0.00  0.00    -0.070 N 
ATOM     29  H14 A3M d          83.546  74.717  98.117  0.00  0.00     0.274 HD
ATOM     30  H15 A3M d          82.806  74.306  99.529  0.00  0.00     0.274 HD
ATOM     31  H16 A3M d          84.395  74.732  99.526  0.00  0.00     0.274 HD
ENDBRANCH   1  28
TORSDOF 5
ENDMDL
MODEL 8
REMARK VINA RESULT:      -4.2      2.019      2.518
REMARK  5 active torsions:
REMARK  status: ('A' for Active; 'I' for Inactive)
REMARK       I    between atoms: N3_3  and  C14_6 
REMARK    1  A    between atoms: C14_6  and  C15_7 
REMARK    2  A    between atoms: C15_7  and  C16_8 
REMARK    3  A    between atoms: C15_7  and  N19_11 
REMARK    4  A    between atoms: C16_8  and  C17_9 
REMARK    5  A    between atoms: C16_8  and  C26_12 
ROOT
ATOM      1  C15 A3M d          82.378  76.278  97.980  0.00  0.00     0.169 C 
ATOM      2  H9  A3M d          82.323  75.713  97.038  0.00  0.00     0.092 H 
ENDROOT
BRANCH   1   3
ATOM      3  C14 A3M d          81.048  76.150  98.592  0.00  0.00     0.384 C 
ATOM      4  N3  A3M d          80.219  74.948  98.654  0.00  0.00     0.134 N 
ATOM      5  C2  A3M d          79.929  74.364  97.333  0.00  0.00     0.117 C 
ATOM      6  C4  A3M d          78.894  75.079  99.303  0.00  0.00     0.117 C 
ATOM      7  C1  A3M d          78.632  73.448  97.565  0.00  0.00    -0.038 C 
ATOM      8  H3  A3M d          79.718  75.154  96.598  0.00  0.00     0.080 H 
ATOM      9  H4  A3M d          80.777  73.755  96.984  0.00  0.00     0.080 H 
ATOM     10  C5  A3M d          78.314  73.655  99.114  0.00  0.00    -0.038 C 
ATOM     11  H1  A3M d          78.850  72.392  97.345  0.00  0.00     0.035 H 
ATOM     12  H2  A3M d          77.792  73.787  96.941  0.00  0.00     0.035 H 
ATOM     13  H7  A3M d          78.831  72.914  99.741  0.00  0.00     0.035 H 
ATOM     14  H8  A3M d          77.234  73.620  99.319  0.00  0.00     0.035 H 
ATOM     15  H5  A3M d          78.273  75.835  98.799  0.00  0.00     0.080 H 
ATOM     16  H6  A3M d          78.992  75.334 100.368  0.00  0.00     0.080 H 
ATOM     17  O18 A3M d          80.543  77.297  99.159  0.00  0.00    -0.186 OA
ENDBRANCH   1   3
BRANCH   1  18
ATOM     18  C16 A3M d          83.564  75.738  98.727  0.00  0.00    -0.029 C 
ATOM     19  H10 A3M d          83.481  76.066  99.774  0.00  0.00     0.042 H 
BRANCH  18  20
ATOM     20  C17 A3M d          83.700  74.273  98.698  0.00  0.00    -0.071 C 
ATOM     21  H11 A3M d          84.423  73.956  99.463  0.00  0.00     0.028 H 
ATOM     22  H12 A3M d          84.054  73.957  97.706  0.00  0.00     0.028 H 
ATOM     23  H13 A3M d          82.723  73.810  98.902  0.00  0.00     0.028 H 
ENDBRANCH  18  20
BRANCH  18  24
ATOM     24  C26 A3M d          85.000  76.326  98.053  0.00  0.00    -0.071 C 
ATOM     25  H17 A3M d          85.437  75.562  97.394  0.00  0.00     0.028 H 
ATOM     26  H18 A3M d          85.711  76.566  98.858  0.00  0.00     0.028 H 
ATOM     27  H19 A3M d          84.787  77.234  97.470  0.00  0.00     0.028 H 
ENDBRANCH  18  24
ENDBRANCH   1  18
BRANCH   1  28
ATOM     28  N19 A3M d          82.686  77.706  97.639  0.00  0.00    -0.070 N 
ATOM     29  H14 A3M d          82.399  77.895  96.691  0.00  0.00     0.274 HD
ATOM     30  H15 A3M d          83.677  77.867  97.728  0.00  0.00     0.274 HD
ATOM     31  H16 A3M d          82.189  78.316  98.268  0.00  0.00     0.274 HD
ENDBRANCH   1  28
TORSDOF 5
ENDMDL
MODEL 9
REMARK VINA RESULT:      -4.0      0.984      1.179
REMARK  5 active torsions:
REMARK  status: ('A' for Active; 'I' for Inactive)
REMARK       I    between atoms: N3_3  and  C14_6 
REMARK    1  A    between atoms: C14_6  and  C15_7 
REMARK    2  A    between atoms: C15_7  and  C16_8 
REMARK    3  A    between atoms: C15_7  and  N19_11 
REMARK    4  A    between atoms: C16_8  and  C17_9 
REMARK    5  A    between atoms: C16_8  and  C26_12 
ROOT
ATOM      1  C15 A3M d          81.935  75.009  99.480  0.00  0.00     0.169 C 
ATOM      2  H9  A3M d          81.347  75.265 100.373  0.00  0.00     0.092 H 
ENDROOT
BRANCH   1   3
ATOM      3  C14 A3M d          81.022  74.251  98.613  0.00  0.00     0.384 C 
ATOM      4  N3  A3M d          79.665  74.629  98.221  0.00  0.00     0.134 N 
ATOM      5  C2  A3M d          78.766  74.865  99.364  0.00  0.00     0.117 C 
ATOM      6  C4  A3M d          78.927  73.678  97.357  0.00  0.00     0.117 C 
ATOM      7  C1  A3M d          77.287  74.723  98.758  0.00  0.00    -0.038 C 
ATOM      8  H3  A3M d          78.935  74.116 100.151  0.00  0.00     0.080 H 
ATOM      9  H4  A3M d          78.921  75.873  99.777  0.00  0.00     0.080 H 
ATOM     10  C5  A3M d          77.554  74.382  97.224  0.00  0.00    -0.038 C 
ATOM     11  H1  A3M d          76.726  75.663  98.861  0.00  0.00     0.035 H 
ATOM     12  H2  A3M d          76.734  73.910  99.252  0.00  0.00     0.035 H 
ATOM     13  H7  A3M d          77.615  75.289  96.607  0.00  0.00     0.035 H 
ATOM     14  H8  A3M d          76.786  73.710  96.813  0.00  0.00     0.035 H 
ATOM     15  H5  A3M d          78.828  72.693  97.836  0.00  0.00     0.080 H 
ATOM     16  H6  A3M d          79.415  73.564  96.378  0.00  0.00     0.080 H 
ATOM     17  O18 A3M d          81.511  73.059  98.132  0.00  0.00    -0.186 OA
ENDBRANCH   1   3
BRANCH   1  18
ATOM     18  C16 A3M d          82.504  76.300  98.965  0.00  0.00    -0.029 C 
ATOM     19  H10 A3M d          81.937  77.124  99.424  0.00  0.00     0.042 H 
BRANCH  18  20
ATOM     20  C17 A3M d          83.936  76.498  99.237  0.00  0.00    -0.071 C 
ATOM     21  H11 A3M d          84.509  76.360  98.308  0.00  0.00     0.028 H 
ATOM     22  H12 A3M d          84.272  75.767  99.987  0.00  0.00     0.028 H 
ATOM     23  H13 A3M d          84.099  77.517  99.620  0.00  0.00     0.028 H 
ENDBRANCH  18  20
BRANCH  18  24
ATOM     24  C26 A3M d          82.361  76.374  97.281  0.00  0.00    -0.071 C 
ATOM     25  H17 A3M d          83.300  76.037  96.818  0.00  0.00     0.028 H 
ATOM     26  H18 A3M d          82.152  77.410  96.975  0.00  0.00     0.028 H 
ATOM     27  H19 A3M d          81.537  75.723  96.953  0.00  0.00     0.028 H 
ENDBRANCH  18  24
ENDBRANCH   1  18
BRANCH   1  28
ATOM     28  N19 A3M d          83.093  74.163  99.922  0.00  0.00    -0.070 N 
ATOM     29  H14 A3M d          83.837  74.758 100.253  0.00  0.00     0.274 HD
ATOM     30  H15 A3M d          83.423  73.612  99.146  0.00  0.00     0.274 HD
ATOM     31  H16 A3M d          82.797  73.551 100.666  0.00  0.00     0.274 HD
ENDBRANCH   1  28
TORSDOF 5
ENDMDL
MODEL 10
REMARK VINA RESULT:      -3.6      2.184      5.210
REMARK  5 active torsions:
REMARK  status: ('A' for Active; 'I' for Inactive)
REMARK       I    between atoms: N3_3  and  C14_6 
REMARK    1  A    between atoms: C14_6  and  C15_7 
REMARK    2  A    between atoms: C15_7  and  C16_8 
REMARK    3  A    between atoms: C15_7  and  N19_11 
REMARK    4  A    between atoms: C16_8  and  C17_9 
REMARK    5  A    between atoms: C16_8  and  C26_12 
ROOT
ATOM      1  C15 A3M d          77.858  74.624  98.180  0.00  0.00     0.169 C 
ATOM      2  H9  A3M d          76.957  75.211  98.410  0.00  0.00     0.092 H 
ENDROOT
BRANCH   1   3
ATOM      3  C14 A3M d          78.990  75.512  98.477  0.00  0.00     0.384 C 
ATOM      4  N3  A3M d          80.409  75.233  98.256  0.00  0.00     0.134 N 
ATOM      5  C2  A3M d          80.881  74.012  98.932  0.00  0.00     0.117 C 
ATOM      6  C4  A3M d          81.371  76.282  98.667  0.00  0.00     0.117 C 
ATOM      7  C1  A3M d          82.474  74.184  99.023  0.00  0.00    -0.038 C 
ATOM      8  H3  A3M d          80.442  73.932  99.937  0.00  0.00     0.080 H 
ATOM      9  H4  A3M d          80.620  73.119  98.345  0.00  0.00     0.080 H 
ATOM     10  C5  A3M d          82.725  75.604  98.344  0.00  0.00    -0.038 C 
ATOM     11  H1  A3M d          82.989  73.385  98.469  0.00  0.00     0.035 H 
ATOM     12  H2  A3M d          82.812  74.182 100.070  0.00  0.00     0.035 H 
ATOM     13  H7  A3M d          82.893  75.517  97.261  0.00  0.00     0.035 H 
ATOM     14  H8  A3M d          83.571  76.136  98.804  0.00  0.00     0.035 H 
ATOM     15  H5  A3M d          81.282  76.511  99.739  0.00  0.00     0.080 H 
ATOM     16  H6  A3M d          81.234  77.203  98.082  0.00  0.00     0.080 H 
ATOM     17  O18 A3M d          78.663  76.730  99.025  0.00  0.00    -0.186 OA
ENDBRANCH   1   3
BRANCH   1  18
ATOM     18  C16 A3M d          77.733  73.342  98.952  0.00  0.00    -0.029 C 
ATOM     19  H10 A3M d          78.743  73.040  99.268  0.00  0.00     0.042 H 
BRANCH  18  20
ATOM     20  C17 A3M d          76.866  73.414 100.138  0.00  0.00    -0.071 C 
ATOM     21  H11 A3M d          76.153  72.577 100.123  0.00  0.00     0.028 H 
ATOM     22  H12 A3M d          76.314  74.366 100.132  0.00  0.00     0.028 H 
ATOM     23  H13 A3M d          77.482  73.354 101.047  0.00  0.00     0.028 H 
ENDBRANCH  18  20
BRANCH  18  24
ATOM     24  C26 A3M d          77.051  72.136  97.981  0.00  0.00    -0.071 C 
ATOM     25  H17 A3M d          76.912  71.221  98.575  0.00  0.00     0.028 H 
ATOM     26  H18 A3M d          77.721  71.925  97.133  0.00  0.00     0.028 H 
ATOM     27  H19 A3M d          76.077  72.478  97.601  0.00  0.00     0.028 H 
ENDBRANCH  18  24
ENDBRANCH   1  18
BRANCH   1  28
ATOM     28  N19 A3M d          77.812  74.269  96.724  0.00  0.00    -0.070 N 
ATOM     29  H14 A3M d          78.497  74.813  96.223  0.00  0.00     0.274 HD
ATOM     30  H15 A3M d          76.894  74.466  96.358  0.00  0.00     0.274 HD
ATOM     31  H16 A3M d          78.015  73.288  96.611  0.00  0.00     0.274 HD
ENDBRANCH   1  28
TORSDOF 5
ENDMDL
