REMARK  4 active torsions:
REMARK  status: ('A' for Active; 'I' for Inactive)
REMARK    1  A    between atoms: C14_6  and  N2_7 
REMARK    2  A    between atoms: C9_8  and  C8_9 
REMARK       I    between atoms: C8_9  and  N1_11 
REMARK    3  A    between atoms: C4_13  and  C5_14 
REMARK    4  A    between atoms: C2_17  and  C1_18 
ROOT
ATOM      1  C8  SX3 d         -23.974  10.127 -16.615  0.00  0.00     0.256 C 
ATOM      2  O1  SX3 d         -23.597  10.945 -17.454  0.00  0.00    -0.267 OA
ATOM      3  N1  SX3 d         -25.272  10.225 -16.088  0.00  0.00    -0.347 N 
ATOM      4  C6  SX3 d         -25.652   9.382 -14.948  0.00  0.00     0.001 C 
ATOM      5  C4  SX3 d         -26.128  10.176 -13.739  0.00  0.00    -0.042 C 
ATOM      6  C3  SX3 d         -27.244  11.131 -14.137  0.00  0.00    -0.056 C 
ATOM      7  C7  SX3 d         -26.200  11.327 -16.414  0.00  0.00     0.001 C 
ATOM      8  C2  SX3 d         -26.780  12.080 -15.234  0.00  0.00    -0.042 C 
ATOM      9  H6  SX3 d         -24.778   8.784 -14.650  0.00  0.00     0.065 H 
ATOM     10  H7  SX3 d         -26.464   8.711 -15.266  0.00  0.00     0.065 H 
ATOM     11  H8  SX3 d         -25.288  10.768 -13.348  0.00  0.00     0.042 H 
ATOM     12  H12 SX3 d         -27.547  11.718 -13.257  0.00  0.00     0.034 H 
ATOM     13  H13 SX3 d         -28.103  10.549 -14.503  0.00  0.00     0.034 H 
ATOM     14  H14 SX3 d         -27.038  10.903 -16.987  0.00  0.00     0.065 H 
ATOM     15  H15 SX3 d         -25.657  12.050 -17.040  0.00  0.00     0.065 H 
ATOM     16  H16 SX3 d         -25.998  12.734 -14.822  0.00  0.00     0.042 H 
ENDROOT
BRANCH   1  17
ATOM     17  C9  SX3 d         -22.980   9.076 -16.284  0.00  0.00     0.059 A 
ATOM     18  C10 SX3 d         -21.821   9.508 -15.625  0.00  0.00    -0.049 A 
ATOM     19  C11 SX3 d         -20.816   8.587 -15.311  0.00  0.00     0.012 A 
ATOM     20  H1  SX3 d         -21.704  10.552 -15.360  0.00  0.00     0.087 H 
ATOM     21 BR1  SX3 d         -19.283   9.230 -14.406  0.00  0.00    -0.051 Br
ATOM     22  C12 SX3 d         -20.937   7.232 -15.640  0.00  0.00    -0.064 A 
ATOM     23  C13 SX3 d         -22.108   6.804 -16.295  0.00  0.00    -0.055 A 
ATOM     24  H2  SX3 d         -20.148   6.529 -15.397  0.00  0.00     0.085 H 
ATOM     25  C14 SX3 d         -23.137   7.708 -16.638  0.00  0.00     0.041 A 
ATOM     26  H3  SX3 d         -22.222   5.755 -16.542  0.00  0.00     0.087 H 
BRANCH  25  27
ATOM     27  N2  SX3 d         -24.269   7.219 -17.310  0.00  0.00    -0.398 N 
ATOM     28  H4  SX3 d         -24.336   6.218 -17.545  0.00  0.00     0.156 HD
ATOM     29  H5  SX3 d         -25.032   7.861 -17.568  0.00  0.00     0.156 HD
ENDBRANCH  25  27
ENDBRANCH   1  17
BRANCH   5  30
ATOM     30  C5  SX3 d         -26.581   9.209 -12.666  0.00  0.00    -0.071 C 
ATOM     31  H9  SX3 d         -26.927   9.773 -11.787  0.00  0.00     0.028 H 
ATOM     32  H10 SX3 d         -25.740   8.561 -12.378  0.00  0.00     0.028 H 
ATOM     33  H11 SX3 d         -27.405   8.591 -13.053  0.00  0.00     0.028 H 
ENDBRANCH   5  30
BRANCH   8  34
ATOM     34  C1  SX3 d         -27.956  12.943 -15.686  0.00  0.00    -0.071 C 
ATOM     35  H17 SX3 d         -28.368  13.484 -14.821  0.00  0.00     0.028 H 
ATOM     36  H18 SX3 d         -28.736  12.301 -16.122  0.00  0.00     0.028 H 
ATOM     37  H19 SX3 d         -27.612  13.666 -16.440  0.00  0.00     0.028 H 
ENDBRANCH   8  34
TORSDOF 4
