MODEL 1
REMARK VINA RESULT:      -6.0      0.000      0.000
REMARK  4 active torsions:
REMARK  status: ('A' for Active; 'I' for Inactive)
REMARK    1  A    between atoms: C14_6  and  N2_7 
REMARK    2  A    between atoms: C9_8  and  C8_9 
REMARK       I    between atoms: C8_9  and  N1_11 
REMARK    3  A    between atoms: C4_13  and  C5_14 
REMARK    4  A    between atoms: C2_17  and  C1_18 
ROOT
ATOM      1  C8  SX3 d         -24.368   8.368 -16.694  0.00  0.00     0.256 C 
ATOM      2  O1  SX3 d         -25.116   7.607 -17.307  0.00  0.00    -0.267 OA
ATOM      3  N1  SX3 d         -22.980   8.286 -16.896  0.00  0.00    -0.347 N 
ATOM      4  C6  SX3 d         -22.079   9.047 -16.022  0.00  0.00     0.001 C 
ATOM      5  C4  SX3 d         -21.064   8.176 -15.294  0.00  0.00    -0.042 C 
ATOM      6  C3  SX3 d         -20.299   7.311 -16.285  0.00  0.00    -0.056 C 
ATOM      7  C7  SX3 d         -22.343   7.259 -17.745  0.00  0.00     0.001 C 
ATOM      8  C2  SX3 d         -21.252   6.437 -17.090  0.00  0.00    -0.042 C 
ATOM      9  H6  SX3 d         -22.685   9.576 -15.273  0.00  0.00     0.065 H 
ATOM     10  H7  SX3 d         -21.534   9.779 -16.637  0.00  0.00     0.065 H 
ATOM     11  H8  SX3 d         -21.596   7.516 -14.595  0.00  0.00     0.042 H 
ATOM     12  H12 SX3 d         -19.597   6.666 -15.734  0.00  0.00     0.034 H 
ATOM     13  H13 SX3 d         -19.737   7.960 -16.973  0.00  0.00     0.034 H 
ATOM     14  H14 SX3 d         -21.903   7.768 -18.616  0.00  0.00     0.065 H 
ATOM     15  H15 SX3 d         -23.128   6.567 -18.083  0.00  0.00     0.065 H 
ATOM     16  H16 SX3 d         -21.724   5.715 -16.408  0.00  0.00     0.042 H 
ENDROOT
BRANCH   1  17
ATOM     17  C9  SX3 d         -25.060   9.341 -15.812  0.00  0.00     0.059 A 
ATOM     18  C10 SX3 d         -25.446  10.549 -16.409  0.00  0.00    -0.049 A 
ATOM     19  C11 SX3 d         -26.070  11.536 -15.639  0.00  0.00     0.012 A 
ATOM     20  H1  SX3 d         -25.261  10.717 -17.463  0.00  0.00     0.087 H 
ATOM     21 BR1  SX3 d         -26.581  13.138 -16.507  0.00  0.00    -0.051 Br
ATOM     22  C12 SX3 d         -26.322  11.349 -14.275  0.00  0.00    -0.064 A 
ATOM     23  C13 SX3 d         -25.939  10.129 -13.684  0.00  0.00    -0.055 A 
ATOM     24  H2  SX3 d         -26.801  12.124 -13.687  0.00  0.00     0.085 H 
ATOM     25  C14 SX3 d         -25.296   9.116 -14.429  0.00  0.00     0.041 A 
ATOM     26  H3  SX3 d         -26.142   9.964 -12.633  0.00  0.00     0.087 H 
BRANCH  25  27
ATOM     27  N2  SX3 d         -24.921   7.932 -13.773  0.00  0.00    -0.398 N 
ATOM     28  H4  SX3 d         -25.638   7.242 -13.505  0.00  0.00     0.156 HD
ATOM     29  H5  SX3 d         -23.929   7.753 -13.560  0.00  0.00     0.156 HD
ENDBRANCH  25  27
ENDBRANCH   1  17
BRANCH   5  30
ATOM     30  C5  SX3 d         -20.132   9.070 -14.503  0.00  0.00    -0.071 C 
ATOM     31  H9  SX3 d         -19.212   9.244 -15.081  0.00  0.00     0.028 H 
ATOM     32  H10 SX3 d         -19.879   8.582 -13.550  0.00  0.00     0.028 H 
ATOM     33  H11 SX3 d         -20.628  10.031 -14.303  0.00  0.00     0.028 H 
ENDBRANCH   5  30
BRANCH   8  34
ATOM     34  C1  SX3 d         -20.462   5.670 -18.148  0.00  0.00    -0.071 C 
ATOM     35  H17 SX3 d         -20.407   4.608 -17.867  0.00  0.00     0.028 H 
ATOM     36  H18 SX3 d         -19.445   6.083 -18.218  0.00  0.00     0.028 H 
ATOM     37  H19 SX3 d         -20.964   5.766 -19.122  0.00  0.00     0.028 H 
ENDBRANCH   8  34
TORSDOF 4
ENDMDL
MODEL 2
REMARK VINA RESULT:      -5.9      2.612      6.100
REMARK  4 active torsions:
REMARK  status: ('A' for Active; 'I' for Inactive)
REMARK    1  A    between atoms: C14_6  and  N2_7 
REMARK    2  A    between atoms: C9_8  and  C8_9 
REMARK       I    between atoms: C8_9  and  N1_11 
REMARK    3  A    between atoms: C4_13  and  C5_14 
REMARK    4  A    between atoms: C2_17  and  C1_18 
ROOT
ATOM      1  C8  SX3 d         -24.609  10.384 -16.406  0.00  0.00     0.256 C 
ATOM      2  O1  SX3 d         -24.236  11.237 -17.211  0.00  0.00    -0.267 OA
ATOM      3  N1  SX3 d         -25.852  10.531 -15.768  0.00  0.00    -0.347 N 
ATOM      4  C6  SX3 d         -26.207   9.629 -14.666  0.00  0.00     0.001 C 
ATOM      5  C4  SX3 d         -26.527  10.357 -13.367  0.00  0.00    -0.042 C 
ATOM      6  C3  SX3 d         -27.594  11.416 -13.601  0.00  0.00    -0.056 C 
ATOM      7  C7  SX3 d         -26.715  11.718 -15.936  0.00  0.00     0.001 C 
ATOM      8  C2  SX3 d         -27.144  12.414 -14.660  0.00  0.00    -0.042 C 
ATOM      9  H6  SX3 d         -25.361   8.950 -14.485  0.00  0.00     0.065 H 
ATOM     10  H7  SX3 d         -27.089   9.044 -14.964  0.00  0.00     0.065 H 
ATOM     11  H8  SX3 d         -25.617  10.856 -13.004  0.00  0.00     0.042 H 
ATOM     12  H12 SX3 d         -27.783  11.952 -12.659  0.00  0.00     0.034 H 
ATOM     13  H13 SX3 d         -28.520  10.927 -13.937  0.00  0.00     0.034 H 
ATOM     14  H14 SX3 d         -27.624  11.400 -16.467  0.00  0.00     0.065 H 
ATOM     15  H15 SX3 d         -26.168  12.448 -16.550  0.00  0.00     0.065 H 
ATOM     16  H16 SX3 d         -26.285  12.977 -14.267  0.00  0.00     0.042 H 
ENDROOT
BRANCH   1  17
ATOM     17  C9  SX3 d         -23.676   9.243 -16.235  0.00  0.00     0.059 A 
ATOM     18  C10 SX3 d         -22.543   9.485 -15.446  0.00  0.00    -0.049 A 
ATOM     19  C11 SX3 d         -21.593   8.474 -15.266  0.00  0.00     0.012 A 
ATOM     20  H1  SX3 d         -22.404  10.451 -14.977  0.00  0.00     0.087 H 
ATOM     21 BR1  SX3 d         -20.094   8.857 -14.176  0.00  0.00    -0.051 Br
ATOM     22  C12 SX3 d         -21.744   7.215 -15.859  0.00  0.00    -0.064 A 
ATOM     23  C13 SX3 d         -22.888   6.977 -16.644  0.00  0.00    -0.055 A 
ATOM     24  H2  SX3 d         -20.997   6.441 -15.717  0.00  0.00     0.085 H 
ATOM     25  C14 SX3 d         -23.861   7.978 -16.857  0.00  0.00     0.041 A 
ATOM     26  H3  SX3 d         -23.026   6.001 -17.096  0.00  0.00     0.087 H 
BRANCH  25  27
ATOM     27  N2  SX3 d         -24.968   7.681 -17.668  0.00  0.00    -0.398 N 
ATOM     28  H4  SX3 d         -25.306   8.374 -18.352  0.00  0.00     0.156 HD
ATOM     29  H5  SX3 d         -25.443   6.772 -17.579  0.00  0.00     0.156 HD
ENDBRANCH  25  27
ENDBRANCH   1  17
BRANCH   5  30
ATOM     30  C5  SX3 d         -26.969   9.342 -12.334  0.00  0.00    -0.071 C 
ATOM     31  H9  SX3 d         -26.940   9.801 -11.334  0.00  0.00     0.028 H 
ATOM     32  H10 SX3 d         -26.293   8.475 -12.359  0.00  0.00     0.028 H 
ATOM     33  H11 SX3 d         -27.995   9.015 -12.557  0.00  0.00     0.028 H 
ENDBRANCH   5  30
BRANCH   8  34
ATOM     34  C1  SX3 d         -28.282  13.390 -14.950  0.00  0.00    -0.071 C 
ATOM     35  H17 SX3 d         -28.495  13.984 -14.048  0.00  0.00     0.028 H 
ATOM     36  H18 SX3 d         -29.183  12.829 -15.240  0.00  0.00     0.028 H 
ATOM     37  H19 SX3 d         -27.989  14.062 -15.770  0.00  0.00     0.028 H 
ENDBRANCH   8  34
TORSDOF 4
ENDMDL
MODEL 3
REMARK VINA RESULT:      -5.6      2.063      3.146
REMARK  4 active torsions:
REMARK  status: ('A' for Active; 'I' for Inactive)
REMARK    1  A    between atoms: C14_6  and  N2_7 
REMARK    2  A    between atoms: C9_8  and  C8_9 
REMARK       I    between atoms: C8_9  and  N1_11 
REMARK    3  A    between atoms: C4_13  and  C5_14 
REMARK    4  A    between atoms: C2_17  and  C1_18 
ROOT
ATOM      1  C8  SX3 d         -24.180  10.473 -16.510  0.00  0.00     0.256 C 
ATOM      2  O1  SX3 d         -23.496  11.182 -17.248  0.00  0.00    -0.267 OA
ATOM      3  N1  SX3 d         -23.548   9.589 -15.620  0.00  0.00    -0.347 N 
ATOM      4  C6  SX3 d         -24.354   8.604 -14.889  0.00  0.00     0.001 C 
ATOM      5  C4  SX3 d         -23.919   7.165 -15.130  0.00  0.00    -0.042 C 
ATOM      6  C3  SX3 d         -22.433   7.005 -14.848  0.00  0.00    -0.056 C 
ATOM      7  C7  SX3 d         -22.086   9.383 -15.581  0.00  0.00     0.001 C 
ATOM      8  C2  SX3 d         -21.611   7.950 -15.714  0.00  0.00    -0.042 C 
ATOM      9  H6  SX3 d         -25.403   8.709 -15.205  0.00  0.00     0.065 H 
ATOM     10  H7  SX3 d         -24.272   8.817 -13.813  0.00  0.00     0.065 H 
ATOM     11  H8  SX3 d         -24.101   6.909 -16.184  0.00  0.00     0.042 H 
ATOM     12  H12 SX3 d         -22.134   5.968 -15.062  0.00  0.00     0.034 H 
ATOM     13  H13 SX3 d         -22.241   7.230 -13.788  0.00  0.00     0.034 H 
ATOM     14  H14 SX3 d         -21.717   9.772 -14.621  0.00  0.00     0.065 H 
ATOM     15  H15 SX3 d         -21.642   9.962 -16.405  0.00  0.00     0.065 H 
ATOM     16  H16 SX3 d         -21.721   7.645 -16.765  0.00  0.00     0.042 H 
ENDROOT
BRANCH   1  17
ATOM     17  C9  SX3 d         -25.644  10.681 -16.632  0.00  0.00     0.059 A 
ATOM     18  C10 SX3 d         -26.198  11.668 -15.805  0.00  0.00    -0.049 A 
ATOM     19  C11 SX3 d         -27.578  11.901 -15.831  0.00  0.00     0.012 A 
ATOM     20  H1  SX3 d         -25.561  12.247 -15.148  0.00  0.00     0.087 H 
ATOM     21 BR1  SX3 d         -28.262  13.258 -14.702  0.00  0.00    -0.051 Br
ATOM     22  C12 SX3 d         -28.428  11.170 -16.668  0.00  0.00    -0.064 A 
ATOM     23  C13 SX3 d         -27.862  10.186 -17.502  0.00  0.00    -0.055 A 
ATOM     24  H2  SX3 d         -29.496  11.355 -16.673  0.00  0.00     0.085 H 
ATOM     25  C14 SX3 d         -26.477   9.915 -17.493  0.00  0.00     0.041 A 
ATOM     26  H3  SX3 d         -28.507   9.622 -18.166  0.00  0.00     0.087 H 
BRANCH  25  27
ATOM     27  N2  SX3 d         -25.981   8.906 -18.334  0.00  0.00    -0.398 N 
ATOM     28  H4  SX3 d         -25.902   9.072 -19.348  0.00  0.00     0.156 HD
ATOM     29  H5  SX3 d         -25.696   7.999 -17.937  0.00  0.00     0.156 HD
ENDBRANCH  25  27
ENDBRANCH   1  17
BRANCH   5  30
ATOM     30  C5  SX3 d         -24.752   6.249 -14.258  0.00  0.00    -0.071 C 
ATOM     31  H9  SX3 d         -24.197   5.318 -14.070  0.00  0.00     0.028 H 
ATOM     32  H10 SX3 d         -25.697   6.015 -14.771  0.00  0.00     0.028 H 
ATOM     33  H11 SX3 d         -24.966   6.749 -13.302  0.00  0.00     0.028 H 
ENDBRANCH   5  30
BRANCH   8  34
ATOM     34  C1  SX3 d         -20.139   7.844 -15.323  0.00  0.00    -0.071 C 
ATOM     35  H17 SX3 d         -19.637   7.114 -15.975  0.00  0.00     0.028 H 
ATOM     36  H18 SX3 d         -20.061   7.514 -14.276  0.00  0.00     0.028 H 
ATOM     37  H19 SX3 d         -19.658   8.827 -15.435  0.00  0.00     0.028 H 
ENDBRANCH   8  34
TORSDOF 4
ENDMDL
MODEL 4
REMARK VINA RESULT:      -5.3      2.723      6.047
REMARK  4 active torsions:
REMARK  status: ('A' for Active; 'I' for Inactive)
REMARK    1  A    between atoms: C14_6  and  N2_7 
REMARK    2  A    between atoms: C9_8  and  C8_9 
REMARK       I    between atoms: C8_9  and  N1_11 
REMARK    3  A    between atoms: C4_13  and  C5_14 
REMARK    4  A    between atoms: C2_17  and  C1_18 
ROOT
ATOM      1  C8  SX3 d         -24.984   7.102 -14.306  0.00  0.00     0.256 C 
ATOM      2  O1  SX3 d         -25.380   5.980 -13.989  0.00  0.00    -0.267 OA
ATOM      3  N1  SX3 d         -25.661   8.235 -13.828  0.00  0.00    -0.347 N 
ATOM      4  C6  SX3 d         -25.319   9.558 -14.364  0.00  0.00     0.001 C 
ATOM      5  C4  SX3 d         -26.503  10.287 -14.984  0.00  0.00    -0.042 C 
ATOM      6  C3  SX3 d         -27.660  10.355 -13.997  0.00  0.00    -0.056 C 
ATOM      7  C7  SX3 d         -26.902   8.163 -13.030  0.00  0.00     0.001 C 
ATOM      8  C2  SX3 d         -28.079   8.959 -13.556  0.00  0.00    -0.042 C 
ATOM      9  H6  SX3 d         -24.545   9.432 -15.135  0.00  0.00     0.065 H 
ATOM     10  H7  SX3 d         -24.921  10.174 -13.543  0.00  0.00     0.065 H 
ATOM     11  H8  SX3 d         -26.838   9.732 -15.872  0.00  0.00     0.042 H 
ATOM     12  H12 SX3 d         -28.515  10.853 -14.478  0.00  0.00     0.034 H 
ATOM     13  H13 SX3 d         -27.347  10.933 -13.115  0.00  0.00     0.034 H 
ATOM     14  H14 SX3 d         -26.673   8.530 -12.018  0.00  0.00     0.065 H 
ATOM     15  H15 SX3 d         -27.207   7.108 -12.976  0.00  0.00     0.065 H 
ATOM     16  H16 SX3 d         -28.495   8.428 -14.425  0.00  0.00     0.042 H 
ENDROOT
BRANCH   1  17
ATOM     17  C9  SX3 d         -23.767   7.112 -15.155  0.00  0.00     0.059 A 
ATOM     18  C10 SX3 d         -22.690   7.874 -14.682  0.00  0.00    -0.049 A 
ATOM     19  C11 SX3 d         -21.519   7.969 -15.442  0.00  0.00     0.012 A 
ATOM     20  H1  SX3 d         -22.765   8.389 -13.732  0.00  0.00     0.087 H 
ATOM     21 BR1  SX3 d         -20.095   9.000 -14.740  0.00  0.00    -0.051 Br
ATOM     22  C12 SX3 d         -21.391   7.316 -16.673  0.00  0.00    -0.064 A 
ATOM     23  C13 SX3 d         -22.474   6.545 -17.138  0.00  0.00    -0.055 A 
ATOM     24  H2  SX3 d         -20.481   7.403 -17.255  0.00  0.00     0.085 H 
ATOM     25  C14 SX3 d         -23.676   6.438 -16.404  0.00  0.00     0.041 A 
ATOM     26  H3  SX3 d         -22.383   6.022 -18.083  0.00  0.00     0.087 H 
BRANCH  25  27
ATOM     27  N2  SX3 d         -24.725   5.670 -16.935  0.00  0.00    -0.398 N 
ATOM     28  H4  SX3 d         -25.347   5.143 -16.305  0.00  0.00     0.156 HD
ATOM     29  H5  SX3 d         -24.873   5.635 -17.954  0.00  0.00     0.156 HD
ENDBRANCH  25  27
ENDBRANCH   1  17
BRANCH   5  30
ATOM     30  C5  SX3 d         -26.058  11.668 -15.413  0.00  0.00    -0.071 C 
ATOM     31  H9  SX3 d         -25.213  11.992 -14.787  0.00  0.00     0.028 H 
ATOM     32  H10 SX3 d         -26.892  12.375 -15.296  0.00  0.00     0.028 H 
ATOM     33  H11 SX3 d         -25.744  11.641 -16.467  0.00  0.00     0.028 H 
ENDBRANCH   5  30
BRANCH   8  34
ATOM     34  C1  SX3 d         -29.161   9.071 -12.484  0.00  0.00    -0.071 C 
ATOM     35  H17 SX3 d         -28.944   9.932 -11.833  0.00  0.00     0.028 H 
ATOM     36  H18 SX3 d         -29.177   8.151 -11.881  0.00  0.00     0.028 H 
ATOM     37  H19 SX3 d         -30.140   9.213 -12.964  0.00  0.00     0.028 H 
ENDBRANCH   8  34
TORSDOF 4
ENDMDL
MODEL 5
REMARK VINA RESULT:      -5.0      2.684      3.704
REMARK  4 active torsions:
REMARK  status: ('A' for Active; 'I' for Inactive)
REMARK    1  A    between atoms: C14_6  and  N2_7 
REMARK    2  A    between atoms: C9_8  and  C8_9 
REMARK       I    between atoms: C8_9  and  N1_11 
REMARK    3  A    between atoms: C4_13  and  C5_14 
REMARK    4  A    between atoms: C2_17  and  C1_18 
ROOT
ATOM      1  C8  SX3 d         -25.361   7.349 -13.603  0.00  0.00     0.256 C 
ATOM      2  O1  SX3 d         -24.981   6.602 -12.702  0.00  0.00    -0.267 OA
ATOM      3  N1  SX3 d         -24.498   7.638 -14.673  0.00  0.00    -0.347 N 
ATOM      4  C6  SX3 d         -24.870   8.681 -15.637  0.00  0.00     0.001 C 
ATOM      5  C4  SX3 d         -23.840   9.797 -15.750  0.00  0.00    -0.042 C 
ATOM      6  C3  SX3 d         -22.462   9.219 -16.040  0.00  0.00    -0.056 C 
ATOM      7  C7  SX3 d         -23.100   7.167 -14.738  0.00  0.00     0.001 C 
ATOM      8  C2  SX3 d         -22.047   8.236 -14.954  0.00  0.00    -0.042 C 
ATOM      9  H6  SX3 d         -25.828   9.121 -15.322  0.00  0.00     0.065 H 
ATOM     10  H7  SX3 d         -24.989   8.214 -16.626  0.00  0.00     0.065 H 
ATOM     11  H8  SX3 d         -23.795  10.339 -14.795  0.00  0.00     0.042 H 
ATOM     12  H12 SX3 d         -21.730  10.039 -16.082  0.00  0.00     0.034 H 
ATOM     13  H13 SX3 d         -22.486   8.699 -17.009  0.00  0.00     0.034 H 
ATOM     14  H14 SX3 d         -23.025   6.449 -15.567  0.00  0.00     0.065 H 
ATOM     15  H15 SX3 d         -22.872   6.658 -13.790  0.00  0.00     0.065 H 
ATOM     16  H16 SX3 d         -21.917   8.789 -14.013  0.00  0.00     0.042 H 
ENDROOT
BRANCH   1  17
ATOM     17  C9  SX3 d         -26.755   7.837 -13.456  0.00  0.00     0.059 A 
ATOM     18  C10 SX3 d         -26.903   9.173 -13.057  0.00  0.00    -0.049 A 
ATOM     19  C11 SX3 d         -28.183   9.701 -12.857  0.00  0.00     0.012 A 
ATOM     20  H1  SX3 d         -26.028   9.793 -12.902  0.00  0.00     0.087 H 
ATOM     21 BR1  SX3 d         -28.316  11.515 -12.334  0.00  0.00    -0.051 Br
ATOM     22  C12 SX3 d         -29.332   8.925 -13.048  0.00  0.00    -0.064 A 
ATOM     23  C13 SX3 d         -29.176   7.587 -13.458  0.00  0.00    -0.055 A 
ATOM     24  H2  SX3 d         -30.318   9.344 -12.884  0.00  0.00     0.085 H 
ATOM     25  C14 SX3 d         -27.899   7.017 -13.656  0.00  0.00     0.041 A 
ATOM     26  H3  SX3 d         -30.057   6.979 -13.624  0.00  0.00     0.087 H 
BRANCH  25  27
ATOM     27  N2  SX3 d         -27.814   5.670 -14.044  0.00  0.00    -0.398 N 
ATOM     28  H4  SX3 d         -28.104   5.387 -14.991  0.00  0.00     0.156 HD
ATOM     29  H5  SX3 d         -27.461   4.965 -13.381  0.00  0.00     0.156 HD
ENDBRANCH  25  27
ENDBRANCH   1  17
BRANCH   5  30
ATOM     30  C5  SX3 d         -24.278  10.759 -16.834  0.00  0.00    -0.071 C 
ATOM     31  H9  SX3 d         -23.727  10.542 -17.761  0.00  0.00     0.028 H 
ATOM     32  H10 SX3 d         -24.069  11.790 -16.515  0.00  0.00     0.028 H 
ATOM     33  H11 SX3 d         -25.358  10.642 -17.014  0.00  0.00     0.028 H 
ENDBRANCH   5  30
BRANCH   8  34
ATOM     34  C1  SX3 d         -20.716   7.593 -15.336  0.00  0.00    -0.071 C 
ATOM     35  H17 SX3 d         -19.897   8.100 -14.803  0.00  0.00     0.028 H 
ATOM     36  H18 SX3 d         -20.560   7.690 -16.421  0.00  0.00     0.028 H 
ATOM     37  H19 SX3 d         -20.729   6.529 -15.061  0.00  0.00     0.028 H 
ENDBRANCH   8  34
TORSDOF 4
ENDMDL
MODEL 6
REMARK VINA RESULT:      -5.0      2.695      3.512
REMARK  4 active torsions:
REMARK  status: ('A' for Active; 'I' for Inactive)
REMARK    1  A    between atoms: C14_6  and  N2_7 
REMARK    2  A    between atoms: C9_8  and  C8_9 
REMARK       I    between atoms: C8_9  and  N1_11 
REMARK    3  A    between atoms: C4_13  and  C5_14 
REMARK    4  A    between atoms: C2_17  and  C1_18 
ROOT
ATOM      1  C8  SX3 d         -24.366  10.406 -16.522  0.00  0.00     0.256 C 
ATOM      2  O1  SX3 d         -23.745  11.218 -17.208  0.00  0.00    -0.267 OA
ATOM      3  N1  SX3 d         -23.664   9.555 -15.653  0.00  0.00    -0.347 N 
ATOM      4  C6  SX3 d         -24.377   8.457 -14.990  0.00  0.00     0.001 C 
ATOM      5  C4  SX3 d         -23.781   7.086 -15.279  0.00  0.00    -0.042 C 
ATOM      6  C3  SX3 d         -22.294   7.074 -14.959  0.00  0.00    -0.056 C 
ATOM      7  C7  SX3 d         -22.190   9.507 -15.578  0.00  0.00     0.001 C 
ATOM      8  C2  SX3 d         -21.559   8.141 -15.759  0.00  0.00    -0.042 C 
ATOM      9  H6  SX3 d         -25.422   8.462 -15.332  0.00  0.00     0.065 H 
ATOM     10  H7  SX3 d         -24.346   8.627 -13.903  0.00  0.00     0.065 H 
ATOM     11  H8  SX3 d         -23.907   6.861 -16.348  0.00  0.00     0.042 H 
ATOM     12  H12 SX3 d         -21.879   6.086 -15.209  0.00  0.00     0.034 H 
ATOM     13  H13 SX3 d         -22.155   7.269 -13.885  0.00  0.00     0.034 H 
ATOM     14  H14 SX3 d         -21.890   9.888 -14.591  0.00  0.00     0.065 H 
ATOM     15  H15 SX3 d         -21.791  10.167 -16.362  0.00  0.00     0.065 H 
ATOM     16  H16 SX3 d         -21.608   7.875 -16.824  0.00  0.00     0.042 H 
ENDROOT
BRANCH   1  17
ATOM     17  C9  SX3 d         -25.841  10.461 -16.680  0.00  0.00     0.059 A 
ATOM     18  C10 SX3 d         -26.437   9.351 -17.294  0.00  0.00    -0.049 A 
ATOM     19  C11 SX3 d         -27.819   9.340 -17.516  0.00  0.00     0.012 A 
ATOM     20  H1  SX3 d         -25.831   8.506 -17.595  0.00  0.00     0.087 H 
ATOM     21 BR1  SX3 d         -28.566   7.805 -18.334  0.00  0.00    -0.051 Br
ATOM     22  C12 SX3 d         -28.629  10.416 -17.138  0.00  0.00    -0.064 A 
ATOM     23  C13 SX3 d         -28.024  11.524 -16.515  0.00  0.00    -0.055 A 
ATOM     24  H2  SX3 d         -29.698  10.398 -17.322  0.00  0.00     0.085 H 
ATOM     25  C14 SX3 d         -26.631  11.575 -16.286  0.00  0.00     0.041 A 
ATOM     26  H3  SX3 d         -28.641  12.358 -16.203  0.00  0.00     0.087 H 
BRANCH  25  27
ATOM     27  N2  SX3 d         -26.088  12.719 -15.679  0.00  0.00    -0.398 N 
ATOM     28  H4  SX3 d         -25.066  12.844 -15.638  0.00  0.00     0.156 HD
ATOM     29  H5  SX3 d         -26.711  13.433 -15.276  0.00  0.00     0.156 HD
ENDBRANCH  25  27
ENDBRANCH   1  17
BRANCH   5  30
ATOM     30  C5  SX3 d         -24.531   6.046 -14.473  0.00  0.00    -0.071 C 
ATOM     31  H9  SX3 d         -25.433   6.502 -14.037  0.00  0.00     0.028 H 
ATOM     32  H10 SX3 d         -23.883   5.670 -13.668  0.00  0.00     0.028 H 
ATOM     33  H11 SX3 d         -24.822   5.213 -15.130  0.00  0.00     0.028 H 
ENDBRANCH   5  30
BRANCH   8  34
ATOM     34  C1  SX3 d         -20.094   8.177 -15.327  0.00  0.00    -0.071 C 
ATOM     35  H17 SX3 d         -19.449   8.006 -16.202  0.00  0.00     0.028 H 
ATOM     36  H18 SX3 d         -19.913   7.390 -14.580  0.00  0.00     0.028 H 
ATOM     37  H19 SX3 d         -19.864   9.159 -14.889  0.00  0.00     0.028 H 
ENDBRANCH   8  34
TORSDOF 4
ENDMDL
MODEL 7
REMARK VINA RESULT:      -4.8      1.707      2.117
REMARK  4 active torsions:
REMARK  status: ('A' for Active; 'I' for Inactive)
REMARK    1  A    between atoms: C14_6  and  N2_7 
REMARK    2  A    between atoms: C9_8  and  C8_9 
REMARK       I    between atoms: C8_9  and  N1_11 
REMARK    3  A    between atoms: C4_13  and  C5_14 
REMARK    4  A    between atoms: C2_17  and  C1_18 
ROOT
ATOM      1  C8  SX3 d         -24.360   8.356 -16.536  0.00  0.00     0.256 C 
ATOM      2  O1  SX3 d         -25.115   7.599 -17.146  0.00  0.00    -0.267 OA
ATOM      3  N1  SX3 d         -22.975   8.276 -16.756  0.00  0.00    -0.347 N 
ATOM      4  C6  SX3 d         -22.063   9.030 -15.888  0.00  0.00     0.001 C 
ATOM      5  C4  SX3 d         -21.039   8.155 -15.178  0.00  0.00    -0.042 C 
ATOM      6  C3  SX3 d         -20.286   7.297 -16.185  0.00  0.00    -0.056 C 
ATOM      7  C7  SX3 d         -22.348   7.256 -17.620  0.00  0.00     0.001 C 
ATOM      8  C2  SX3 d         -21.248   6.429 -16.984  0.00  0.00    -0.042 C 
ATOM      9  H6  SX3 d         -22.660   9.555 -15.127  0.00  0.00     0.065 H 
ATOM     10  H7  SX3 d         -21.525   9.767 -16.503  0.00  0.00     0.065 H 
ATOM     11  H8  SX3 d         -21.563   7.489 -14.478  0.00  0.00     0.042 H 
ATOM     12  H12 SX3 d         -19.578   6.649 -15.647  0.00  0.00     0.034 H 
ATOM     13  H13 SX3 d         -19.733   7.952 -16.874  0.00  0.00     0.034 H 
ATOM     14  H14 SX3 d         -21.919   7.771 -18.492  0.00  0.00     0.065 H 
ATOM     15  H15 SX3 d         -23.137   6.566 -17.954  0.00  0.00     0.065 H 
ATOM     16  H16 SX3 d         -21.712   5.702 -16.302  0.00  0.00     0.042 H 
ENDROOT
BRANCH   1  17
ATOM     17  C9  SX3 d         -25.042   9.322 -15.639  0.00  0.00     0.059 A 
ATOM     18  C10 SX3 d         -25.834   8.769 -14.624  0.00  0.00    -0.049 A 
ATOM     19  C11 SX3 d         -26.542   9.609 -13.759  0.00  0.00     0.012 A 
ATOM     20  H1  SX3 d         -25.898   7.693 -14.510  0.00  0.00     0.087 H 
ATOM     21 BR1  SX3 d         -27.581   8.801 -12.399  0.00  0.00    -0.051 Br
ATOM     22  C12 SX3 d         -26.480  11.002 -13.880  0.00  0.00    -0.064 A 
ATOM     23  C13 SX3 d         -25.676  11.551 -14.897  0.00  0.00    -0.055 A 
ATOM     24  H2  SX3 d         -27.039  11.643 -13.207  0.00  0.00     0.085 H 
ATOM     25  C14 SX3 d         -24.957  10.733 -15.796  0.00  0.00     0.041 A 
ATOM     26  H3  SX3 d         -25.606  12.629 -14.993  0.00  0.00     0.087 H 
BRANCH  25  27
ATOM     27  N2  SX3 d         -24.191  11.344 -16.801  0.00  0.00    -0.398 N 
ATOM     28  H4  SX3 d         -23.567  10.775 -17.391  0.00  0.00     0.156 HD
ATOM     29  H5  SX3 d         -24.253  12.362 -16.949  0.00  0.00     0.156 HD
ENDBRANCH  25  27
ENDBRANCH   1  17
BRANCH   5  30
ATOM     30  C5  SX3 d         -20.098   9.043 -14.392  0.00  0.00    -0.071 C 
ATOM     31  H9  SX3 d         -20.243  10.090 -14.695  0.00  0.00     0.028 H 
ATOM     32  H10 SX3 d         -19.058   8.744 -14.592  0.00  0.00     0.028 H 
ATOM     33  H11 SX3 d         -20.309   8.940 -13.317  0.00  0.00     0.028 H 
ENDBRANCH   5  30
BRANCH   8  34
ATOM     34  C1  SX3 d         -20.471   5.670 -18.058  0.00  0.00    -0.071 C 
ATOM     35  H17 SX3 d         -20.755   4.607 -18.033  0.00  0.00     0.028 H 
ATOM     36  H18 SX3 d         -19.392   5.766 -17.866  0.00  0.00     0.028 H 
ATOM     37  H19 SX3 d         -20.708   6.089 -19.047  0.00  0.00     0.028 H 
ENDBRANCH   8  34
TORSDOF 4
ENDMDL
MODEL 8
REMARK VINA RESULT:      -4.8      1.788      2.898
REMARK  4 active torsions:
REMARK  status: ('A' for Active; 'I' for Inactive)
REMARK    1  A    between atoms: C14_6  and  N2_7 
REMARK    2  A    between atoms: C9_8  and  C8_9 
REMARK       I    between atoms: C8_9  and  N1_11 
REMARK    3  A    between atoms: C4_13  and  C5_14 
REMARK    4  A    between atoms: C2_17  and  C1_18 
ROOT
ATOM      1  C8  SX3 d         -23.733   8.692 -15.153  0.00  0.00     0.256 C 
ATOM      2  O1  SX3 d         -22.691   9.300 -14.904  0.00  0.00    -0.267 OA
ATOM      3  N1  SX3 d         -23.677   7.493 -15.881  0.00  0.00    -0.347 N 
ATOM      4  C6  SX3 d         -24.924   6.877 -16.351  0.00  0.00     0.001 C 
ATOM      5  C4  SX3 d         -24.971   6.680 -17.860  0.00  0.00    -0.042 C 
ATOM      6  C3  SX3 d         -23.745   5.913 -18.334  0.00  0.00    -0.056 C 
ATOM      7  C7  SX3 d         -22.431   6.951 -16.460  0.00  0.00     0.001 C 
ATOM      8  C2  SX3 d         -22.466   6.642 -17.943  0.00  0.00    -0.042 C 
ATOM      9  H6  SX3 d         -25.764   7.524 -16.057  0.00  0.00     0.065 H 
ATOM     10  H7  SX3 d         -25.031   5.895 -15.867  0.00  0.00     0.065 H 
ATOM     11  H8  SX3 d         -24.975   7.665 -18.348  0.00  0.00     0.042 H 
ATOM     12  H12 SX3 d         -23.783   5.814 -19.429  0.00  0.00     0.034 H 
ATOM     13  H13 SX3 d         -23.745   4.914 -17.875  0.00  0.00     0.034 H 
ATOM     14  H14 SX3 d         -22.189   6.019 -15.928  0.00  0.00     0.065 H 
ATOM     15  H15 SX3 d         -21.632   7.688 -16.290  0.00  0.00     0.065 H 
ATOM     16  H16 SX3 d         -22.422   7.592 -18.496  0.00  0.00     0.042 H 
ENDROOT
BRANCH   1  17
ATOM     17  C9  SX3 d         -24.960   9.312 -14.594  0.00  0.00     0.059 A 
ATOM     18  C10 SX3 d         -25.373  10.511 -15.192  0.00  0.00    -0.049 A 
ATOM     19  C11 SX3 d         -26.498  11.180 -14.701  0.00  0.00     0.012 A 
ATOM     20  H1  SX3 d         -24.823  10.916 -16.033  0.00  0.00     0.087 H 
ATOM     21 BR1  SX3 d         -27.015  12.784 -15.562  0.00  0.00    -0.051 Br
ATOM     22  C12 SX3 d         -27.231  10.682 -13.617  0.00  0.00    -0.064 A 
ATOM     23  C13 SX3 d         -26.814   9.473 -13.026  0.00  0.00    -0.055 A 
ATOM     24  H2  SX3 d         -28.097  11.214 -13.241  0.00  0.00     0.085 H 
ATOM     25  C14 SX3 d         -25.676   8.777 -13.489  0.00  0.00     0.041 A 
ATOM     26  H3  SX3 d         -27.380   9.068 -12.196  0.00  0.00     0.087 H 
BRANCH  25  27
ATOM     27  N2  SX3 d         -25.302   7.589 -12.841  0.00  0.00    -0.398 N 
ATOM     28  H4  SX3 d         -24.924   6.801 -13.387  0.00  0.00     0.156 HD
ATOM     29  H5  SX3 d         -25.406   7.504 -11.819  0.00  0.00     0.156 HD
ENDBRANCH  25  27
ENDBRANCH   1  17
BRANCH   5  30
ATOM     30  C5  SX3 d         -26.251   5.955 -18.219  0.00  0.00    -0.071 C 
ATOM     31  H9  SX3 d         -26.965   6.038 -17.386  0.00  0.00     0.028 H 
ATOM     32  H10 SX3 d         -26.031   4.894 -18.409  0.00  0.00     0.028 H 
ATOM     33  H11 SX3 d         -26.688   6.407 -19.122  0.00  0.00     0.028 H 
ENDBRANCH   5  30
BRANCH   8  34
ATOM     34  C1  SX3 d         -21.260   5.790 -18.333  0.00  0.00    -0.071 C 
ATOM     35  H17 SX3 d         -21.605   4.812 -18.701  0.00  0.00     0.028 H 
ATOM     36  H18 SX3 d         -20.615   5.643 -17.453  0.00  0.00     0.028 H 
ATOM     37  H19 SX3 d         -20.690   6.299 -19.124  0.00  0.00     0.028 H 
ENDBRANCH   8  34
TORSDOF 4
ENDMDL
MODEL 9
REMARK VINA RESULT:      -4.7      2.637      3.697
REMARK  4 active torsions:
REMARK  status: ('A' for Active; 'I' for Inactive)
REMARK    1  A    between atoms: C14_6  and  N2_7 
REMARK    2  A    between atoms: C9_8  and  C8_9 
REMARK       I    between atoms: C8_9  and  N1_11 
REMARK    3  A    between atoms: C4_13  and  C5_14 
REMARK    4  A    between atoms: C2_17  and  C1_18 
ROOT
ATOM      1  C8  SX3 d         -25.285  10.456 -16.043  0.00  0.00     0.256 C 
ATOM      2  O1  SX3 d         -25.054  10.791 -17.204  0.00  0.00    -0.267 OA
ATOM      3  N1  SX3 d         -24.477   9.485 -15.429  0.00  0.00    -0.347 N 
ATOM      4  C6  SX3 d         -24.871   8.939 -14.125  0.00  0.00     0.001 C 
ATOM      5  C4  SX3 d         -25.039   7.426 -14.127  0.00  0.00    -0.042 C 
ATOM      6  C3  SX3 d         -23.787   6.753 -14.670  0.00  0.00    -0.056 C 
ATOM      7  C7  SX3 d         -23.404   8.757 -16.136  0.00  0.00     0.001 C 
ATOM      8  C2  SX3 d         -23.474   7.244 -16.077  0.00  0.00    -0.042 C 
ATOM      9  H6  SX3 d         -25.828   9.396 -13.831  0.00  0.00     0.065 H 
ATOM     10  H7  SX3 d         -24.097   9.203 -13.389  0.00  0.00     0.065 H 
ATOM     11  H8  SX3 d         -25.885   7.162 -14.778  0.00  0.00     0.042 H 
ATOM     12  H12 SX3 d         -23.945   5.664 -14.695  0.00  0.00     0.034 H 
ATOM     13  H13 SX3 d         -22.938   6.986 -14.009  0.00  0.00     0.034 H 
ATOM     14  H14 SX3 d         -22.443   9.066 -15.699  0.00  0.00     0.065 H 
ATOM     15  H15 SX3 d         -23.437   9.053 -17.195  0.00  0.00     0.065 H 
ATOM     16  H16 SX3 d         -24.276   6.908 -16.750  0.00  0.00     0.042 H 
ENDROOT
BRANCH   1  17
ATOM     17  C9  SX3 d         -26.410  11.180 -15.401  0.00  0.00     0.059 A 
ATOM     18  C10 SX3 d         -27.209  10.430 -14.527  0.00  0.00    -0.049 A 
ATOM     19  C11 SX3 d         -28.314  11.026 -13.910  0.00  0.00     0.012 A 
ATOM     20  H1  SX3 d         -26.971   9.391 -14.331  0.00  0.00     0.087 H 
ATOM     21 BR1  SX3 d         -29.342   9.965 -12.728  0.00  0.00    -0.051 Br
ATOM     22  C12 SX3 d         -28.647  12.365 -14.143  0.00  0.00    -0.064 A 
ATOM     23  C13 SX3 d         -27.835  13.115 -15.016  0.00  0.00    -0.055 A 
ATOM     24  H2  SX3 d         -29.510  12.814 -13.664  0.00  0.00     0.085 H 
ATOM     25  C14 SX3 d         -26.720  12.542 -15.666  0.00  0.00     0.041 A 
ATOM     26  H3  SX3 d         -28.073  14.157 -15.194  0.00  0.00     0.087 H 
BRANCH  25  27
ATOM     27  N2  SX3 d         -25.965  13.340 -16.541  0.00  0.00    -0.398 N 
ATOM     28  H4  SX3 d         -25.731  12.992 -17.482  0.00  0.00     0.156 HD
ATOM     29  H5  SX3 d         -25.646  14.272 -16.242  0.00  0.00     0.156 HD
ENDBRANCH  25  27
ENDBRANCH   1  17
BRANCH   5  30
ATOM     30  C5  SX3 d         -25.350   6.967 -12.718  0.00  0.00    -0.071 C 
ATOM     31  H9  SX3 d         -26.431   7.060 -12.532  0.00  0.00     0.028 H 
ATOM     32  H10 SX3 d         -24.799   7.591 -11.999  0.00  0.00     0.028 H 
ATOM     33  H11 SX3 d         -25.047   5.915 -12.600  0.00  0.00     0.028 H 
ENDBRANCH   5  30
BRANCH   8  34
ATOM     34  C1  SX3 d         -22.153   6.637 -16.542  0.00  0.00    -0.071 C 
ATOM     35  H17 SX3 d         -22.353   5.837 -17.271  0.00  0.00     0.028 H 
ATOM     36  H18 SX3 d         -21.617   6.218 -15.677  0.00  0.00     0.028 H 
ATOM     37  H19 SX3 d         -21.537   7.416 -17.014  0.00  0.00     0.028 H 
ENDBRANCH   8  34
TORSDOF 4
ENDMDL
MODEL 10
REMARK VINA RESULT:      -4.5      2.972      6.332
REMARK  4 active torsions:
REMARK  status: ('A' for Active; 'I' for Inactive)
REMARK    1  A    between atoms: C14_6  and  N2_7 
REMARK    2  A    between atoms: C9_8  and  C8_9 
REMARK       I    between atoms: C8_9  and  N1_11 
REMARK    3  A    between atoms: C4_13  and  C5_14 
REMARK    4  A    between atoms: C2_17  and  C1_18 
ROOT
ATOM      1  C8  SX3 d         -26.178   8.557 -13.904  0.00  0.00     0.256 C 
ATOM      2  O1  SX3 d         -26.794   7.798 -13.156  0.00  0.00    -0.267 OA
ATOM      3  N1  SX3 d         -26.346   9.945 -13.772  0.00  0.00    -0.347 N 
ATOM      4  C6  SX3 d         -25.775  10.839 -14.786  0.00  0.00     0.001 C 
ATOM      5  C4  SX3 d         -26.809  11.738 -15.452  0.00  0.00    -0.042 C 
ATOM      6  C3  SX3 d         -27.603  12.502 -14.403  0.00  0.00    -0.056 C 
ATOM      7  C7  SX3 d         -27.307  10.561 -12.835  0.00  0.00     0.001 C 
ATOM      8  C2  SX3 d         -28.290  11.544 -13.439  0.00  0.00    -0.042 C 
ATOM      9  H6  SX3 d         -25.296  10.225 -15.563  0.00  0.00     0.065 H 
ATOM     10  H7  SX3 d         -25.019  11.476 -14.304  0.00  0.00     0.065 H 
ATOM     11  H8  SX3 d         -27.506  11.114 -16.028  0.00  0.00     0.042 H 
ATOM     12  H12 SX3 d         -28.365  13.117 -14.905  0.00  0.00     0.034 H 
ATOM     13  H13 SX3 d         -26.920  13.154 -13.838  0.00  0.00     0.034 H 
ATOM     14  H14 SX3 d         -26.731  11.094 -12.063  0.00  0.00     0.065 H 
ATOM     15  H15 SX3 d         -27.886   9.752 -12.366  0.00  0.00     0.065 H 
ATOM     16  H16 SX3 d         -29.050  10.976 -13.994  0.00  0.00     0.042 H 
ENDROOT
BRANCH   1  17
ATOM     17  C9  SX3 d         -25.271   7.880 -14.864  0.00  0.00     0.059 A 
ATOM     18  C10 SX3 d         -23.934   8.300 -14.849  0.00  0.00    -0.049 A 
ATOM     19  C11 SX3 d         -23.020   7.740 -15.749  0.00  0.00     0.012 A 
ATOM     20  H1  SX3 d         -23.609   9.055 -14.144  0.00  0.00     0.087 H 
ATOM     21 BR1  SX3 d         -21.226   8.336 -15.668  0.00  0.00    -0.051 Br
ATOM     22  C12 SX3 d         -23.408   6.762 -16.672  0.00  0.00    -0.064 A 
ATOM     23  C13 SX3 d         -24.752   6.340 -16.675  0.00  0.00    -0.055 A 
ATOM     24  H2  SX3 d         -22.692   6.340 -17.368  0.00  0.00     0.085 H 
ATOM     25  C14 SX3 d         -25.704   6.892 -15.790  0.00  0.00     0.041 A 
ATOM     26  H3  SX3 d         -25.063   5.572 -17.374  0.00  0.00     0.087 H 
BRANCH  25  27
ATOM     27  N2  SX3 d         -27.032   6.442 -15.860  0.00  0.00    -0.398 N 
ATOM     28  H4  SX3 d         -27.374   5.979 -16.714  0.00  0.00     0.156 HD
ATOM     29  H5  SX3 d         -27.664   6.575 -15.057  0.00  0.00     0.156 HD
ENDBRANCH  25  27
ENDBRANCH   1  17
BRANCH   5  30
ATOM     30  C5  SX3 d         -26.099  12.677 -16.404  0.00  0.00    -0.071 C 
ATOM     31  H9  SX3 d         -25.046  12.779 -16.102  0.00  0.00     0.028 H 
ATOM     32  H10 SX3 d         -26.585  13.664 -16.376  0.00  0.00     0.028 H 
ATOM     33  H11 SX3 d         -26.150  12.272 -17.426  0.00  0.00     0.028 H 
ENDBRANCH   5  30
BRANCH   8  34
ATOM     34  C1  SX3 d         -28.980  12.345 -12.337  0.00  0.00    -0.071 C 
ATOM     35  H17 SX3 d         -30.071  12.257 -12.448  0.00  0.00     0.028 H 
ATOM     36  H18 SX3 d         -28.688  13.403 -12.414  0.00  0.00     0.028 H 
ATOM     37  H19 SX3 d         -28.679  11.952 -11.355  0.00  0.00     0.028 H 
ENDBRANCH   8  34
TORSDOF 4
ENDMDL
