MODEL 1
REMARK VINA RESULT:      -7.8      0.000      0.000
REMARK  5 active torsions:
REMARK  status: ('A' for Active; 'I' for Inactive)
REMARK    1  A    between atoms: C4_1  and  O4_2 
REMARK    2  A    between atoms: C3_3  and  O3_4 
REMARK    3  A    between atoms: C2_5  and  O2_6 
REMARK    4  A    between atoms: C5_14  and  C6_15 
REMARK    5  A    between atoms: C6_15  and  O6_16 
ROOT
ATOM      1  C4  KIF d          31.420  66.676   6.957  0.00  0.00     0.084 C 
ATOM      2  C3  KIF d          32.436  66.832   8.154  0.00  0.00     0.090 C 
ATOM      3  C2  KIF d          32.117  66.079   9.489  0.00  0.00     0.099 C 
ATOM      4  C1  KIF d          30.645  65.272   9.319  0.00  0.00     0.111 A 
ATOM      5  N9  KIF d          30.105  65.070  10.662  0.00  0.00    -0.329 N 
ATOM      6  C8  KIF d          28.994  65.746  10.853  0.00  0.00     0.311 A 
ATOM      7  O8  KIF d          28.362  65.724  11.910  0.00  0.00    -0.262 OA
ATOM      8  C7  KIF d          28.689  66.501   9.576  0.00  0.00     0.313 A 
ATOM      9  O7  KIF d          27.717  67.250   9.372  0.00  0.00    -0.262 OA
ATOM     10  N   KIF d          29.683  66.201   8.713  0.00  0.00    -0.311 N 
ATOM     11  C5  KIF d          29.908  66.882   7.377  0.00  0.00     0.064 C 
ATOM     12  H1  KIF d          31.533  65.670   6.529  0.00  0.00     0.090 H 
ATOM     13  H3  KIF d          32.419  67.899   8.418  0.00  0.00     0.091 H 
ATOM     14  H5  KIF d          31.968  66.884  10.224  0.00  0.00     0.093 H 
ATOM     15  H7  KIF d          30.750  64.336   8.751  0.00  0.00     0.111 H 
ATOM     16  H8  KIF d          30.531  64.488  11.354  0.00  0.00     0.165 HD
ATOM     17  H9  KIF d          29.699  67.957   7.481  0.00  0.00     0.080 H 
ENDROOT
BRANCH  11  18
ATOM     18  C6  KIF d          28.982  66.294   6.277  0.00  0.00     0.038 C 
ATOM     19  H10 KIF d          28.880  65.211   6.440  0.00  0.00     0.077 H 
ATOM     20  H11 KIF d          29.439  66.475   5.293  0.00  0.00     0.077 H 
BRANCH  18  21
ATOM     21  O6  KIF d          27.676  66.892   6.300  0.00  0.00    -0.399 OA
ATOM     22  H12 KIF d          27.195  66.629   5.523  0.00  0.00     0.209 HD
ENDBRANCH  18  21
ENDBRANCH  11  18
BRANCH   1  23
ATOM     23  O4  KIF d          31.736  67.662   5.971  0.00  0.00    -0.391 OA
ATOM     24  H2  KIF d          31.454  68.515   6.276  0.00  0.00     0.210 HD
ENDBRANCH   1  23
BRANCH   2  25
ATOM     25  O3  KIF d          33.746  66.548   7.680  0.00  0.00    -0.390 OA
ATOM     26  H4  KIF d          33.945  67.116   6.945  0.00  0.00     0.210 HD
ENDBRANCH   2  25
BRANCH   3  27
ATOM     27  O2  KIF d          32.881  65.322  10.024  0.00  0.00    -0.389 OA
ATOM     28  H6  KIF d          32.792  65.396  10.967  0.00  0.00     0.210 HD
ENDBRANCH   3  27
TORSDOF 5
ENDMDL
