MODEL 1
REMARK VINA RESULT:      -4.8      0.000      0.000
REMARK  5 active torsions:
REMARK  status: ('A' for Active; 'I' for Inactive)
REMARK    1  A    between atoms: C11_2  and  O1_3 
REMARK    2  A    between atoms: C11_2  and  C13_14 
REMARK    3  A    between atoms: O1_3  and  C2_4 
REMARK    4  A    between atoms: C7_5  and  C1_6 
REMARK    5  A    between atoms: C3_10  and  C8_11 
ROOT
ATOM      1  C2  M3S d          35.729  40.264  -2.856  0.00  0.00     0.102 A 
ATOM      2  C7  M3S d          35.920  40.651  -1.517  0.00  0.00    -0.027 A 
ATOM      3  C6  M3S d          36.376  39.704  -0.597  0.00  0.00    -0.074 A 
ATOM      4  C5  M3S d          36.645  38.393  -1.005  0.00  0.00    -0.081 A 
ATOM      5  C4  M3S d          36.454  38.009  -2.345  0.00  0.00    -0.064 A 
ATOM      6  C3  M3S d          35.993  38.961  -3.260  0.00  0.00     0.075 A 
ATOM      7  H4  M3S d          36.523  39.987   0.439  0.00  0.00     0.084 H 
ATOM      8  H5  M3S d          37.002  37.668  -0.284  0.00  0.00     0.083 H 
ATOM      9  H6  M3S d          36.662  36.993  -2.661  0.00  0.00     0.085 H 
ENDROOT
BRANCH   1  10
ATOM     10  O1  M3S d          35.274  41.246  -3.712  0.00  0.00    -0.278 OA
BRANCH  10  11
ATOM     11  C11 M3S d          36.128  41.747  -4.624  0.00  0.00     0.260 C 
ATOM     12  O12 M3S d          35.679  41.951  -5.748  0.00  0.00    -0.265 OA
BRANCH  11  13
ATOM     13  C13 M3S d          37.516  42.062  -4.152  0.00  0.00     0.004 C 
ATOM     14  H7  M3S d          38.194  41.243  -4.434  0.00  0.00     0.041 H 
ATOM     15  H8  M3S d          37.515  42.177  -3.059  0.00  0.00     0.041 H 
ATOM     16  H9  M3S d          37.859  42.998  -4.619  0.00  0.00     0.041 H 
ENDBRANCH  11  13
ENDBRANCH  10  11
ENDBRANCH   1  10
BRANCH   2  17
ATOM     17  C1  M3S d          35.620  42.095  -1.113  0.00  0.00    -0.049 C 
ATOM     18  H1  M3S d          34.690  42.426  -1.598  0.00  0.00     0.033 H 
ATOM     19  H2  M3S d          36.450  42.744  -1.429  0.00  0.00     0.033 H 
ATOM     20  H3  M3S d          35.505  42.153  -0.020  0.00  0.00     0.033 H 
ENDBRANCH   2  17
BRANCH   6  21
ATOM     21  C8  M3S d          35.793  38.494  -4.758  0.00  0.00     0.212 C 
ATOM     22  O10 M3S d          36.890  38.200  -5.411  0.00  0.00    -0.644 OA
ATOM     23  O9  M3S d          34.557  38.417  -5.129  0.00  0.00    -0.644 OA
ENDBRANCH   6  21
TORSDOF 5
ENDMDL
MODEL 2
REMARK VINA RESULT:      -4.7      2.002      4.707
REMARK  5 active torsions:
REMARK  status: ('A' for Active; 'I' for Inactive)
REMARK    1  A    between atoms: C11_2  and  O1_3 
REMARK    2  A    between atoms: C11_2  and  C13_14 
REMARK    3  A    between atoms: O1_3  and  C2_4 
REMARK    4  A    between atoms: C7_5  and  C1_6 
REMARK    5  A    between atoms: C3_10  and  C8_11 
ROOT
ATOM      1  C2  M3S d          36.410  40.085  -4.046  0.00  0.00     0.102 A 
ATOM      2  C7  M3S d          36.028  39.254  -5.115  0.00  0.00    -0.027 A 
ATOM      3  C6  M3S d          35.282  39.799  -6.163  0.00  0.00    -0.074 A 
ATOM      4  C5  M3S d          34.927  41.152  -6.150  0.00  0.00    -0.081 A 
ATOM      5  C4  M3S d          35.311  41.981  -5.081  0.00  0.00    -0.064 A 
ATOM      6  C3  M3S d          36.054  41.429  -4.032  0.00  0.00     0.075 A 
ATOM      7  H4  M3S d          34.977  39.170  -6.991  0.00  0.00     0.084 H 
ATOM      8  H5  M3S d          34.352  41.565  -6.971  0.00  0.00     0.083 H 
ATOM      9  H6  M3S d          35.036  43.029  -5.070  0.00  0.00     0.085 H 
ENDROOT
BRANCH   1  10
ATOM     10  O1  M3S d          37.141  39.484  -3.043  0.00  0.00    -0.278 OA
BRANCH  10  11
ATOM     11  C11 M3S d          36.479  38.834  -2.067  0.00  0.00     0.260 C 
ATOM     12  O12 M3S d          35.327  39.196  -1.845  0.00  0.00    -0.265 OA
BRANCH  11  13
ATOM     13  C13 M3S d          37.195  37.697  -1.402  0.00  0.00     0.004 C 
ATOM     14  H7  M3S d          37.011  37.732  -0.318  0.00  0.00     0.041 H 
ATOM     15  H8  M3S d          38.275  37.782  -1.593  0.00  0.00     0.041 H 
ATOM     16  H9  M3S d          36.825  36.744  -1.806  0.00  0.00     0.041 H 
ENDBRANCH  11  13
ENDBRANCH  10  11
ENDBRANCH   1  10
BRANCH   2  17
ATOM     17  C1  M3S d          36.440  37.782  -5.094  0.00  0.00    -0.049 C 
ATOM     18  H1  M3S d          35.562  37.158  -4.870  0.00  0.00     0.033 H 
ATOM     19  H2  M3S d          37.208  37.627  -4.321  0.00  0.00     0.033 H 
ATOM     20  H3  M3S d          36.849  37.502  -6.076  0.00  0.00     0.033 H 
ENDBRANCH   2  17
BRANCH   6  21
ATOM     21  C8  M3S d          36.470  42.391  -2.848  0.00  0.00     0.212 C 
ATOM     22  O10 M3S d          35.697  42.355  -1.791  0.00  0.00    -0.644 OA
ATOM     23  O9  M3S d          37.557  43.057  -3.063  0.00  0.00    -0.644 OA
ENDBRANCH   6  21
TORSDOF 5
ENDMDL
MODEL 3
REMARK VINA RESULT:      -4.6      1.846      3.460
REMARK  5 active torsions:
REMARK  status: ('A' for Active; 'I' for Inactive)
REMARK    1  A    between atoms: C11_2  and  O1_3 
REMARK    2  A    between atoms: C11_2  and  C13_14 
REMARK    3  A    between atoms: O1_3  and  C2_4 
REMARK    4  A    between atoms: C7_5  and  C1_6 
REMARK    5  A    between atoms: C3_10  and  C8_11 
ROOT
ATOM      1  C2  M3S d          36.598  40.009  -2.951  0.00  0.00     0.102 A 
ATOM      2  C7  M3S d          36.554  38.658  -2.559  0.00  0.00    -0.027 A 
ATOM      3  C6  M3S d          36.285  37.682  -3.521  0.00  0.00    -0.074 A 
ATOM      4  C5  M3S d          36.069  38.044  -4.855  0.00  0.00    -0.081 A 
ATOM      5  C4  M3S d          36.114  39.395  -5.245  0.00  0.00    -0.064 A 
ATOM      6  C3  M3S d          36.380  40.368  -4.276  0.00  0.00     0.075 A 
ATOM      7  H4  M3S d          36.243  36.638  -3.233  0.00  0.00     0.084 H 
ATOM      8  H5  M3S d          35.865  37.278  -5.594  0.00  0.00     0.083 H 
ATOM      9  H6  M3S d          35.946  39.676  -6.278  0.00  0.00     0.085 H 
ENDROOT
BRANCH   1  10
ATOM     10  O1  M3S d          36.866  40.921  -1.952  0.00  0.00    -0.278 OA
BRANCH  10  11
ATOM     11  C11 M3S d          35.876  41.740  -1.549  0.00  0.00     0.260 C 
ATOM     12  O12 M3S d          34.770  41.232  -1.388  0.00  0.00    -0.265 OA
BRANCH  11  13
ATOM     13  C13 M3S d          36.244  43.168  -1.281  0.00  0.00     0.004 C 
ATOM     14  H7  M3S d          36.343  43.324  -0.197  0.00  0.00     0.041 H 
ATOM     15  H8  M3S d          35.461  43.830  -1.677  0.00  0.00     0.041 H 
ATOM     16  H9  M3S d          37.201  43.399  -1.773  0.00  0.00     0.041 H 
ENDBRANCH  11  13
ENDBRANCH  10  11
ENDBRANCH   1  10
BRANCH   2  17
ATOM     17  C1  M3S d          36.801  38.303  -1.093  0.00  0.00    -0.049 C 
ATOM     18  H1  M3S d          37.233  37.293  -1.027  0.00  0.00     0.033 H 
ATOM     19  H2  M3S d          35.848  38.331  -0.543  0.00  0.00     0.033 H 
ATOM     20  H3  M3S d          37.499  39.030  -0.652  0.00  0.00     0.033 H 
ENDBRANCH   2  17
BRANCH   6  21
ATOM     21  C8  M3S d          36.427  41.875  -4.751  0.00  0.00     0.212 C 
ATOM     22  O10 M3S d          35.312  42.345  -5.255  0.00  0.00    -0.644 OA
ATOM     23  O9  M3S d          37.556  42.466  -4.531  0.00  0.00    -0.644 OA
ENDBRANCH   6  21
TORSDOF 5
ENDMDL
MODEL 4
REMARK VINA RESULT:      -4.6      1.432      2.147
REMARK  5 active torsions:
REMARK  status: ('A' for Active; 'I' for Inactive)
REMARK    1  A    between atoms: C11_2  and  O1_3 
REMARK    2  A    between atoms: C11_2  and  C13_14 
REMARK    3  A    between atoms: O1_3  and  C2_4 
REMARK    4  A    between atoms: C7_5  and  C1_6 
REMARK    5  A    between atoms: C3_10  and  C8_11 
ROOT
ATOM      1  C2  M3S d          35.855  40.873  -2.450  0.00  0.00     0.102 A 
ATOM      2  C7  M3S d          36.115  40.327  -1.179  0.00  0.00    -0.027 A 
ATOM      3  C6  M3S d          36.411  38.965  -1.075  0.00  0.00    -0.074 A 
ATOM      4  C5  M3S d          36.454  38.161  -2.220  0.00  0.00    -0.081 A 
ATOM      5  C4  M3S d          36.194  38.709  -3.489  0.00  0.00    -0.064 A 
ATOM      6  C3  M3S d          35.894  40.072  -3.585  0.00  0.00     0.075 A 
ATOM      7  H4  M3S d          36.609  38.530  -0.103  0.00  0.00     0.084 H 
ATOM      8  H5  M3S d          36.688  37.107  -2.128  0.00  0.00     0.083 H 
ATOM      9  H6  M3S d          36.226  38.087  -4.375  0.00  0.00     0.085 H 
ENDROOT
BRANCH   1  10
ATOM     10  O1  M3S d          35.566  42.221  -2.481  0.00  0.00    -0.278 OA
BRANCH  10  11
ATOM     11  C11 M3S d          36.583  43.097  -2.371  0.00  0.00     0.260 C 
ATOM     12  O12 M3S d          37.557  42.908  -3.095  0.00  0.00    -0.265 OA
BRANCH  11  13
ATOM     13  C13 M3S d          36.391  44.243  -1.424  0.00  0.00     0.004 C 
ATOM     14  H7  M3S d          37.335  44.446  -0.898  0.00  0.00     0.041 H 
ATOM     15  H8  M3S d          35.611  43.987  -0.692  0.00  0.00     0.041 H 
ATOM     16  H9  M3S d          36.086  45.137  -1.987  0.00  0.00     0.041 H 
ENDBRANCH  11  13
ENDBRANCH  10  11
ENDBRANCH   1  10
BRANCH   2  17
ATOM     17  C1  M3S d          36.065  41.240   0.045  0.00  0.00    -0.049 C 
ATOM     18  H1  M3S d          37.033  41.750   0.163  0.00  0.00     0.033 H 
ATOM     19  H2  M3S d          35.856  40.639   0.943  0.00  0.00     0.033 H 
ATOM     20  H3  M3S d          35.269  41.988  -0.088  0.00  0.00     0.033 H 
ENDBRANCH   2  17
BRANCH   6  21
ATOM     21  C8  M3S d          35.610  40.655  -5.028  0.00  0.00     0.212 C 
ATOM     22  O10 M3S d          36.125  41.834  -5.274  0.00  0.00    -0.644 OA
ATOM     23  O9  M3S d          34.941  39.861  -5.798  0.00  0.00    -0.644 OA
ENDBRANCH   6  21
TORSDOF 5
ENDMDL
MODEL 5
REMARK VINA RESULT:      -4.5      1.343      3.411
REMARK  5 active torsions:
REMARK  status: ('A' for Active; 'I' for Inactive)
REMARK    1  A    between atoms: C11_2  and  O1_3 
REMARK    2  A    between atoms: C11_2  and  C13_14 
REMARK    3  A    between atoms: O1_3  and  C2_4 
REMARK    4  A    between atoms: C7_5  and  C1_6 
REMARK    5  A    between atoms: C3_10  and  C8_11 
ROOT
ATOM      1  C2  M3S d          35.858  40.527  -2.715  0.00  0.00     0.102 A 
ATOM      2  C7  M3S d          36.028  40.365  -1.328  0.00  0.00    -0.027 A 
ATOM      3  C6  M3S d          36.391  41.472  -0.556  0.00  0.00    -0.074 A 
ATOM      4  C5  M3S d          36.576  42.723  -1.156  0.00  0.00    -0.081 A 
ATOM      5  C4  M3S d          36.404  42.883  -2.543  0.00  0.00    -0.064 A 
ATOM      6  C3  M3S d          36.045  41.770  -3.310  0.00  0.00     0.075 A 
ATOM      7  H4  M3S d          36.531  41.361   0.512  0.00  0.00     0.084 H 
ATOM      8  H5  M3S d          36.853  43.575  -0.547  0.00  0.00     0.083 H 
ATOM      9  H6  M3S d          36.547  43.851  -3.008  0.00  0.00     0.085 H 
ENDROOT
BRANCH   1  10
ATOM     10  O1  M3S d          35.503  39.395  -3.418  0.00  0.00    -0.278 OA
BRANCH  10  11
ATOM     11  C11 M3S d          36.393  38.872  -4.283  0.00  0.00     0.260 C 
ATOM     12  O12 M3S d          37.557  38.797  -3.900  0.00  0.00    -0.265 OA
BRANCH  11  13
ATOM     13  C13 M3S d          35.856  38.379  -5.593  0.00  0.00     0.004 C 
ATOM     14  H7  M3S d          34.834  38.761  -5.737  0.00  0.00     0.041 H 
ATOM     15  H8  M3S d          35.840  37.280  -5.592  0.00  0.00     0.041 H 
ATOM     16  H9  M3S d          36.499  38.736  -6.410  0.00  0.00     0.041 H 
ENDBRANCH  11  13
ENDBRANCH  10  11
ENDBRANCH   1  10
BRANCH   2  17
ATOM     17  C1  M3S d          35.812  38.984  -0.711  0.00  0.00    -0.049 C 
ATOM     18  H1  M3S d          34.952  38.496  -1.195  0.00  0.00     0.033 H 
ATOM     19  H2  M3S d          35.615  39.090   0.367  0.00  0.00     0.033 H 
ATOM     20  H3  M3S d          36.713  38.370  -0.859  0.00  0.00     0.033 H 
ENDBRANCH   2  17
BRANCH   6  21
ATOM     21  C8  M3S d          35.858  41.987  -4.865  0.00  0.00     0.212 C 
ATOM     22  O10 M3S d          34.620  41.976  -5.294  0.00  0.00    -0.644 OA
ATOM     23  O9  M3S d          36.960  42.197  -5.508  0.00  0.00    -0.644 OA
ENDBRANCH   6  21
TORSDOF 5
ENDMDL
MODEL 6
REMARK VINA RESULT:      -4.4      1.900      3.393
REMARK  5 active torsions:
REMARK  status: ('A' for Active; 'I' for Inactive)
REMARK    1  A    between atoms: C11_2  and  O1_3 
REMARK    2  A    between atoms: C11_2  and  C13_14 
REMARK    3  A    between atoms: O1_3  and  C2_4 
REMARK    4  A    between atoms: C7_5  and  C1_6 
REMARK    5  A    between atoms: C3_10  and  C8_11 
ROOT
ATOM      1  C2  M3S d          35.594  40.508  -4.156  0.00  0.00     0.102 A 
ATOM      2  C7  M3S d          35.260  40.623  -5.518  0.00  0.00    -0.027 A 
ATOM      3  C6  M3S d          35.295  39.482  -6.323  0.00  0.00    -0.074 A 
ATOM      4  C5  M3S d          35.650  38.243  -5.779  0.00  0.00    -0.081 A 
ATOM      5  C4  M3S d          35.982  38.129  -4.417  0.00  0.00    -0.064 A 
ATOM      6  C3  M3S d          35.949  39.277  -3.618  0.00  0.00     0.075 A 
ATOM      7  H4  M3S d          35.045  39.557  -7.375  0.00  0.00     0.084 H 
ATOM      8  H5  M3S d          35.669  37.363  -6.412  0.00  0.00     0.083 H 
ATOM      9  H6  M3S d          36.258  37.170  -3.995  0.00  0.00     0.085 H 
ENDROOT
BRANCH   1  10
ATOM     10  O1  M3S d          35.542  41.672  -3.419  0.00  0.00    -0.278 OA
BRANCH  10  11
ATOM     11  C11 M3S d          36.702  42.263  -3.073  0.00  0.00     0.260 C 
ATOM     12  O12 M3S d          37.557  42.359  -3.949  0.00  0.00    -0.265 OA
BRANCH  11  13
ATOM     13  C13 M3S d          36.799  42.797  -1.675  0.00  0.00     0.004 C 
ATOM     14  H7  M3S d          37.529  43.620  -1.647  0.00  0.00     0.041 H 
ATOM     15  H8  M3S d          37.126  41.995  -0.998  0.00  0.00     0.041 H 
ATOM     16  H9  M3S d          35.815  43.169  -1.355  0.00  0.00     0.041 H 
ENDBRANCH  11  13
ENDBRANCH  10  11
ENDBRANCH   1  10
BRANCH   2  17
ATOM     17  C1  M3S d          34.872  41.994  -6.073  0.00  0.00    -0.049 C 
ATOM     18  H1  M3S d          34.764  41.930  -7.166  0.00  0.00     0.033 H 
ATOM     19  H2  M3S d          35.656  42.725  -5.824  0.00  0.00     0.033 H 
ATOM     20  H3  M3S d          33.919  42.314  -5.627  0.00  0.00     0.033 H 
ENDBRANCH   2  17
BRANCH   6  21
ATOM     21  C8  M3S d          36.326  39.111  -2.091  0.00  0.00     0.212 C 
ATOM     22  O10 M3S d          37.557  38.734  -1.848  0.00  0.00    -0.644 OA
ATOM     23  O9  M3S d          35.373  39.421  -1.273  0.00  0.00    -0.644 OA
ENDBRANCH   6  21
TORSDOF 5
ENDMDL
MODEL 7
REMARK VINA RESULT:      -4.4      1.348      3.227
REMARK  5 active torsions:
REMARK  status: ('A' for Active; 'I' for Inactive)
REMARK    1  A    between atoms: C11_2  and  O1_3 
REMARK    2  A    between atoms: C11_2  and  C13_14 
REMARK    3  A    between atoms: O1_3  and  C2_4 
REMARK    4  A    between atoms: C7_5  and  C1_6 
REMARK    5  A    between atoms: C3_10  and  C8_11 
ROOT
ATOM      1  C2  M3S d          36.018  39.857  -3.150  0.00  0.00     0.102 A 
ATOM      2  C7  M3S d          36.392  38.650  -3.767  0.00  0.00    -0.027 A 
ATOM      3  C6  M3S d          36.997  37.654  -2.996  0.00  0.00    -0.074 A 
ATOM      4  C5  M3S d          37.220  37.855  -1.629  0.00  0.00    -0.081 A 
ATOM      5  C4  M3S d          36.844  39.063  -1.014  0.00  0.00    -0.064 A 
ATOM      6  C3  M3S d          36.243  40.057  -1.793  0.00  0.00     0.075 A 
ATOM      7  H4  M3S d          37.294  36.720  -3.459  0.00  0.00     0.084 H 
ATOM      8  H5  M3S d          37.686  37.074  -1.039  0.00  0.00     0.083 H 
ATOM      9  H6  M3S d          37.017  39.219   0.044  0.00  0.00     0.085 H 
ENDROOT
BRANCH   1  10
ATOM     10  O1  M3S d          35.430  40.799  -3.968  0.00  0.00    -0.278 OA
BRANCH  10  11
ATOM     11  C11 M3S d          36.227  41.607  -4.692  0.00  0.00     0.260 C 
ATOM     12  O12 M3S d          35.788  41.995  -5.771  0.00  0.00    -0.265 OA
BRANCH  11  13
ATOM     13  C13 M3S d          37.537  41.997  -4.075  0.00  0.00     0.004 C 
ATOM     14  H7  M3S d          38.360  41.533  -4.638  0.00  0.00     0.041 H 
ATOM     15  H8  M3S d          37.567  41.653  -3.031  0.00  0.00     0.041 H 
ATOM     16  H9  M3S d          37.645  43.091  -4.105  0.00  0.00     0.041 H 
ENDBRANCH  11  13
ENDBRANCH  10  11
ENDBRANCH   1  10
BRANCH   2  17
ATOM     17  C1  M3S d          36.126  38.467  -5.261  0.00  0.00    -0.049 C 
ATOM     18  H1  M3S d          37.001  37.995  -5.734  0.00  0.00     0.033 H 
ATOM     19  H2  M3S d          35.944  39.448  -5.724  0.00  0.00     0.033 H 
ATOM     20  H3  M3S d          35.243  37.826  -5.401  0.00  0.00     0.033 H 
ENDBRANCH   2  17
BRANCH   6  21
ATOM     21  C8  M3S d          35.832  41.401  -1.067  0.00  0.00     0.212 C 
ATOM     22  O10 M3S d          36.825  42.138  -0.635  0.00  0.00    -0.644 OA
ATOM     23  O9  M3S d          34.558  41.620  -1.040  0.00  0.00    -0.644 OA
ENDBRANCH   6  21
TORSDOF 5
ENDMDL
MODEL 8
REMARK VINA RESULT:      -3.3      1.249      3.533
REMARK  5 active torsions:
REMARK  status: ('A' for Active; 'I' for Inactive)
REMARK    1  A    between atoms: C11_2  and  O1_3 
REMARK    2  A    between atoms: C11_2  and  C13_14 
REMARK    3  A    between atoms: O1_3  and  C2_4 
REMARK    4  A    between atoms: C7_5  and  C1_6 
REMARK    5  A    between atoms: C3_10  and  C8_11 
ROOT
ATOM      1  C2  M3S d          36.899  39.581  -2.979  0.00  0.00     0.102 A 
ATOM      2  C7  M3S d          36.813  38.786  -1.822  0.00  0.00    -0.027 A 
ATOM      3  C6  M3S d          36.163  39.298  -0.696  0.00  0.00    -0.074 A 
ATOM      4  C5  M3S d          35.602  40.579  -0.723  0.00  0.00    -0.081 A 
ATOM      5  C4  M3S d          35.689  41.372  -1.882  0.00  0.00    -0.064 A 
ATOM      6  C3  M3S d          36.344  40.855  -3.005  0.00  0.00     0.075 A 
ATOM      7  H4  M3S d          36.093  38.698   0.205  0.00  0.00     0.084 H 
ATOM      8  H5  M3S d          35.097  40.965   0.155  0.00  0.00     0.083 H 
ATOM      9  H6  M3S d          35.255  42.365  -1.904  0.00  0.00     0.085 H 
ENDROOT
BRANCH   1  10
ATOM     10  O1  M3S d          37.555  39.017  -4.054  0.00  0.00    -0.278 OA
BRANCH  10  11
ATOM     11  C11 M3S d          36.878  38.160  -4.841  0.00  0.00     0.260 C 
ATOM     12  O12 M3S d          37.535  37.290  -5.404  0.00  0.00    -0.265 OA
BRANCH  11  13
ATOM     13  C13 M3S d          35.389  38.322  -4.894  0.00  0.00     0.004 C 
ATOM     14  H7  M3S d          34.922  37.351  -5.119  0.00  0.00     0.041 H 
ATOM     15  H8  M3S d          35.126  39.045  -5.679  0.00  0.00     0.041 H 
ATOM     16  H9  M3S d          35.024  38.686  -3.922  0.00  0.00     0.041 H 
ENDBRANCH  11  13
ENDBRANCH  10  11
ENDBRANCH   1  10
BRANCH   2  17
ATOM     17  C1  M3S d          37.433  37.389  -1.833  0.00  0.00    -0.049 C 
ATOM     18  H1  M3S d          36.634  36.633  -1.845  0.00  0.00     0.033 H 
ATOM     19  H2  M3S d          38.052  37.255  -0.933  0.00  0.00     0.033 H 
ATOM     20  H3  M3S d          38.061  37.274  -2.730  0.00  0.00     0.033 H 
ENDBRANCH   2  17
BRANCH   6  21
ATOM     21  C8  M3S d          36.420  41.773  -4.290  0.00  0.00     0.212 C 
ATOM     22  O10 M3S d          35.318  41.853  -4.995  0.00  0.00    -0.644 OA
ATOM     23  O9  M3S d          37.557  42.367  -4.452  0.00  0.00    -0.644 OA
ENDBRANCH   6  21
TORSDOF 5
ENDMDL
MODEL 9
REMARK VINA RESULT:      -3.2      1.671      3.523
REMARK  5 active torsions:
REMARK  status: ('A' for Active; 'I' for Inactive)
REMARK    1  A    between atoms: C11_2  and  O1_3 
REMARK    2  A    between atoms: C11_2  and  C13_14 
REMARK    3  A    between atoms: O1_3  and  C2_4 
REMARK    4  A    between atoms: C7_5  and  C1_6 
REMARK    5  A    between atoms: C3_10  and  C8_11 
ROOT
ATOM      1  C2  M3S d          35.913  40.950  -2.392  0.00  0.00     0.102 A 
ATOM      2  C7  M3S d          36.264  41.330  -1.084  0.00  0.00    -0.027 A 
ATOM      3  C6  M3S d          36.756  42.618  -0.861  0.00  0.00    -0.074 A 
ATOM      4  C5  M3S d          36.890  43.518  -1.925  0.00  0.00    -0.081 A 
ATOM      5  C4  M3S d          36.538  43.137  -3.232  0.00  0.00    -0.064 A 
ATOM      6  C3  M3S d          36.050  41.844  -3.449  0.00  0.00     0.075 A 
ATOM      7  H4  M3S d          37.035  42.923   0.140  0.00  0.00     0.084 H 
ATOM      8  H5  M3S d          37.269  44.516  -1.741  0.00  0.00     0.083 H 
ATOM      9  H6  M3S d          36.642  43.832  -4.056  0.00  0.00     0.085 H 
ENDROOT
BRANCH   1  10
ATOM     10  O1  M3S d          35.437  39.665  -2.543  0.00  0.00    -0.278 OA
BRANCH  10  11
ATOM     11  C11 M3S d          36.300  38.641  -2.401  0.00  0.00     0.260 C 
ATOM     12  O12 M3S d          36.045  37.820  -1.524  0.00  0.00    -0.265 OA
BRANCH  11  13
ATOM     13  C13 M3S d          37.443  38.579  -3.368  0.00  0.00     0.004 C 
ATOM     14  H7  M3S d          38.191  37.858  -3.007  0.00  0.00     0.041 H 
ATOM     15  H8  M3S d          37.905  39.573  -3.455  0.00  0.00     0.041 H 
ATOM     16  H9  M3S d          37.073  38.260  -4.354  0.00  0.00     0.041 H 
ENDBRANCH  11  13
ENDBRANCH  10  11
ENDBRANCH   1  10
BRANCH   2  17
ATOM     17  C1  M3S d          36.097  40.320   0.051  0.00  0.00    -0.049 C 
ATOM     18  H1  M3S d          36.917  40.443   0.775  0.00  0.00     0.033 H 
ATOM     19  H2  M3S d          36.121  39.299  -0.359  0.00  0.00     0.033 H 
ATOM     20  H3  M3S d          35.134  40.490   0.555  0.00  0.00     0.033 H 
ENDBRANCH   2  17
BRANCH   6  21
ATOM     21  C8  M3S d          35.660  41.450  -4.930  0.00  0.00     0.212 C 
ATOM     22  O10 M3S d          35.963  40.228  -5.290  0.00  0.00    -0.644 OA
ATOM     23  O9  M3S d          35.044  42.382  -5.582  0.00  0.00    -0.644 OA
ENDBRANCH   6  21
TORSDOF 5
ENDMDL
