MODEL 1
REMARK VINA RESULT:      -7.6      0.000      0.000
REMARK  4 active torsions:
REMARK  status: ('A' for Active; 'I' for Inactive)
REMARK    1  A    between atoms: C2_2  and  N14_12 
REMARK    2  A    between atoms: C15_13  and  C5_5 
REMARK    3  A    between atoms: C16_15  and  C15_13 
REMARK    4  A    between atoms: C7_14  and  C16_15 
ROOT
ATOM      1  C15 V15 d          -1.379   2.715  10.936  0.00  0.00    -0.020 C 
ATOM      2  H10 V15 d          -0.570   2.436  11.628  0.00  0.00     0.042 H 
ATOM      3  H11 V15 d          -1.454   1.963  10.137  0.00  0.00     0.042 H 
ENDROOT
BRANCH   1   4
ATOM      4  C5  V15 d          -0.980   4.018  10.287  0.00  0.00     0.059 A 
ATOM      5  C4  V15 d          -1.870   4.997   9.916  0.00  0.00     0.007 A 
ATOM      6  C3  V15 d          -1.365   6.179   9.315  0.00  0.00     0.261 A 
ATOM      7  H2  V15 d          -2.940   4.869  10.079  0.00  0.00     0.095 H 
ATOM      8  N1  V15 d          -0.024   6.307   9.105  0.00  0.00    -0.155 N 
ATOM      9  O15 V15 d          -2.128   7.076   8.981  0.00  0.00    -0.268 OA
ATOM     10  C2  V15 d           0.813   5.302   9.514  0.00  0.00     0.701 A 
ATOM     11  H1  V15 d           0.343   7.123   8.659  0.00  0.00     0.187 HD
ATOM     12  N6  V15 d           0.332   4.222  10.089  0.00  0.00    -0.070 NA
BRANCH  10  13
ATOM     13  N14 V15 d           2.178   5.426   9.374  0.00  0.00    -0.233 N 
ATOM     14  H8  V15 d           2.799   4.665   9.684  0.00  0.00     0.174 HD
ATOM     15  H9  V15 d           2.578   6.280   8.959  0.00  0.00     0.174 HD
ENDBRANCH  10  13
ENDBRANCH   1   4
BRANCH   1  16
ATOM     16  C16 V15 d          -2.694   2.667  11.732  0.00  0.00    -0.036 C 
ATOM     17  H12 V15 d          -3.250   3.600  11.560  0.00  0.00     0.040 H 
ATOM     18  H13 V15 d          -2.462   2.570  12.802  0.00  0.00     0.040 H 
BRANCH  16  19
ATOM     19  C7  V15 d          -3.550   1.501  11.308  0.00  0.00    -0.058 A 
ATOM     20  C8  V15 d          -3.018   0.225  11.122  0.00  0.00    -0.077 A 
ATOM     21  C9  V15 d          -3.832  -0.822  10.721  0.00  0.00    -0.082 A 
ATOM     22  H3  V15 d          -1.962   0.052  11.293  0.00  0.00     0.084 H 
ATOM     23  C10 V15 d          -5.193  -0.600  10.525  0.00  0.00    -0.083 A 
ATOM     24  H4  V15 d          -3.412  -1.809  10.561  0.00  0.00     0.083 H 
ATOM     25  C11 V15 d          -5.732   0.665  10.721  0.00  0.00    -0.082 A 
ATOM     26  H5  V15 d          -5.834  -1.418  10.219  0.00  0.00     0.083 H 
ATOM     27  C12 V15 d          -4.913   1.715  11.118  0.00  0.00    -0.077 A 
ATOM     28  H6  V15 d          -6.791   0.833  10.564  0.00  0.00     0.083 H 
ATOM     29  H7  V15 d          -5.335   2.700  11.281  0.00  0.00     0.084 H 
ENDBRANCH  16  19
ENDBRANCH   1  16
TORSDOF 4
ENDMDL
