MODEL 1
REMARK VINA RESULT:      -7.7      0.000      0.000
REMARK  4 active torsions:
REMARK  status: ('A' for Active; 'I' for Inactive)
REMARK    1  A    between atoms: C2_2  and  N14_12 
REMARK    2  A    between atoms: C15_13  and  C5_5 
REMARK    3  A    between atoms: C16_15  and  C15_13 
REMARK    4  A    between atoms: C7_14  and  C16_15 
ROOT
ATOM      1  C15 V15 d          -1.592   3.102  11.164  0.00  0.00    -0.020 C 
ATOM      2  H10 V15 d          -1.073   3.211  12.128  0.00  0.00     0.042 H 
ATOM      3  H11 V15 d          -1.356   2.120  10.730  0.00  0.00     0.042 H 
ENDROOT
BRANCH   1   4
ATOM      4  C5  V15 d          -1.028   4.148  10.234  0.00  0.00     0.059 A 
ATOM      5  C4  V15 d          -1.789   4.920   9.389  0.00  0.00     0.007 A 
ATOM      6  C3  V15 d          -1.135   5.870   8.565  0.00  0.00     0.261 A 
ATOM      7  H2  V15 d          -2.872   4.804   9.353  0.00  0.00     0.095 H 
ATOM      8  N1  V15 d           0.223   5.983   8.615  0.00  0.00    -0.155 N 
ATOM      9  O15 V15 d          -1.783   6.582   7.808  0.00  0.00    -0.268 OA
ATOM     10  C2  V15 d           0.925   5.196   9.491  0.00  0.00     0.701 A 
ATOM     11  H1  V15 d           0.700   6.630   8.021  0.00  0.00     0.187 HD
ATOM     12  N6  V15 d           0.302   4.335  10.264  0.00  0.00    -0.070 NA
BRANCH  10  13
ATOM     13  N14 V15 d           2.291   5.328   9.612  0.00  0.00    -0.233 N 
ATOM     14  H8  V15 d           2.799   5.994   9.014  0.00  0.00     0.174 HD
ATOM     15  H9  V15 d           2.805   4.759  10.301  0.00  0.00     0.174 HD
ENDBRANCH  10  13
ENDBRANCH   1   4
BRANCH   1  16
ATOM     16  C16 V15 d          -3.102   3.121  11.454  0.00  0.00    -0.036 C 
ATOM     17  H12 V15 d          -3.581   3.871  10.808  0.00  0.00     0.040 H 
ATOM     18  H13 V15 d          -3.260   3.390  12.509  0.00  0.00     0.040 H 
BRANCH  16  19
ATOM     19  C7  V15 d          -3.729   1.776  11.191  0.00  0.00    -0.058 A 
ATOM     20  C8  V15 d          -5.108   1.618  11.063  0.00  0.00    -0.077 A 
ATOM     21  C9  V15 d          -5.653   0.364  10.833  0.00  0.00    -0.082 A 
ATOM     22  H3  V15 d          -5.759   2.481  11.143  0.00  0.00     0.084 H 
ATOM     23  C10 V15 d          -4.811  -0.738  10.708  0.00  0.00    -0.083 A 
ATOM     24  H4  V15 d          -6.726   0.242  10.751  0.00  0.00     0.083 H 
ATOM     25  C11 V15 d          -3.435  -0.587  10.821  0.00  0.00    -0.082 A 
ATOM     26  H5  V15 d          -5.232  -1.719  10.520  0.00  0.00     0.083 H 
ATOM     27  C12 V15 d          -2.892   0.671  11.057  0.00  0.00    -0.077 A 
ATOM     28  H6  V15 d          -2.785  -1.448  10.726  0.00  0.00     0.083 H 
ATOM     29  H7  V15 d          -1.818   0.791  11.136  0.00  0.00     0.084 H 
ENDBRANCH  16  19
ENDBRANCH   1  16
TORSDOF 4
ENDMDL
MODEL 2
REMARK VINA RESULT:      -6.9      3.569      6.246
REMARK  4 active torsions:
REMARK  status: ('A' for Active; 'I' for Inactive)
REMARK    1  A    between atoms: C2_2  and  N14_12 
REMARK    2  A    between atoms: C15_13  and  C5_5 
REMARK    3  A    between atoms: C16_15  and  C15_13 
REMARK    4  A    between atoms: C7_14  and  C16_15 
ROOT
ATOM      1  C15 V15 d          -1.941   2.378  11.824  0.00  0.00    -0.020 C 
ATOM      2  H10 V15 d          -1.579   1.695  12.607  0.00  0.00     0.042 H 
ATOM      3  H11 V15 d          -2.290   3.313  12.287  0.00  0.00     0.042 H 
ENDROOT
BRANCH   1   4
ATOM      4  C5  V15 d          -3.140   1.725  11.181  0.00  0.00     0.059 A 
ATOM      5  C4  V15 d          -3.064   0.668  10.304  0.00  0.00     0.007 A 
ATOM      6  C3  V15 d          -4.268   0.144   9.770  0.00  0.00     0.261 A 
ATOM      7  H2  V15 d          -2.100   0.244  10.027  0.00  0.00     0.095 H 
ATOM      8  N1  V15 d          -5.460   0.705  10.120  0.00  0.00    -0.155 N 
ATOM      9  O15 V15 d          -4.239  -0.804   8.995  0.00  0.00    -0.268 OA
ATOM     10  C2  V15 d          -5.471   1.745  11.012  0.00  0.00     0.701 A 
ATOM     11  H1  V15 d          -6.315   0.362   9.731  0.00  0.00     0.187 HD
ATOM     12  N6  V15 d          -4.348   2.207  11.515  0.00  0.00    -0.070 NA
BRANCH  10  13
ATOM     13  N14 V15 d          -6.661   2.295  11.434  0.00  0.00    -0.233 N 
ATOM     14  H8  V15 d          -7.547   1.796  11.268  0.00  0.00     0.174 HD
ATOM     15  H9  V15 d          -6.667   3.205  11.917  0.00  0.00     0.174 HD
ENDBRANCH  10  13
ENDBRANCH   1   4
BRANCH   1  16
ATOM     16  C16 V15 d          -0.737   2.732  10.935  0.00  0.00    -0.036 C 
ATOM     17  H12 V15 d          -0.695   2.026  10.093  0.00  0.00     0.040 H 
ATOM     18  H13 V15 d           0.184   2.648  11.531  0.00  0.00     0.040 H 
BRANCH  16  19
ATOM     19  C7  V15 d          -0.846   4.135  10.395  0.00  0.00    -0.058 A 
ATOM     20  C8  V15 d          -2.070   4.686  10.016  0.00  0.00    -0.077 A 
ATOM     21  C9  V15 d          -2.132   5.975   9.513  0.00  0.00    -0.082 A 
ATOM     22  H3  V15 d          -2.978   4.102  10.116  0.00  0.00     0.084 H 
ATOM     23  C10 V15 d          -0.967   6.730   9.407  0.00  0.00    -0.083 A 
ATOM     24  H4  V15 d          -3.083   6.394   9.203  0.00  0.00     0.083 H 
ATOM     25  C11 V15 d           0.254   6.192   9.795  0.00  0.00    -0.082 A 
ATOM     26  H5  V15 d          -1.013   7.741   9.021  0.00  0.00     0.083 H 
ATOM     27  C12 V15 d           0.315   4.897  10.295  0.00  0.00    -0.077 A 
ATOM     28  H6  V15 d           1.158   6.783   9.708  0.00  0.00     0.083 H 
ATOM     29  H7  V15 d           1.266   4.480  10.607  0.00  0.00     0.084 H 
ENDBRANCH  16  19
ENDBRANCH   1  16
TORSDOF 4
ENDMDL
MODEL 3
REMARK VINA RESULT:      -6.8      1.432      2.026
REMARK  4 active torsions:
REMARK  status: ('A' for Active; 'I' for Inactive)
REMARK    1  A    between atoms: C2_2  and  N14_12 
REMARK    2  A    between atoms: C15_13  and  C5_5 
REMARK    3  A    between atoms: C16_15  and  C15_13 
REMARK    4  A    between atoms: C7_14  and  C16_15 
ROOT
ATOM      1  C15 V15 d          -1.751   2.967  11.153  0.00  0.00    -0.020 C 
ATOM      2  H10 V15 d          -1.292   3.010  12.152  0.00  0.00     0.042 H 
ATOM      3  H11 V15 d          -1.524   1.997  10.688  0.00  0.00     0.042 H 
ENDROOT
BRANCH   1   4
ATOM      4  C5  V15 d          -1.089   4.031  10.312  0.00  0.00     0.059 A 
ATOM      5  C4  V15 d           0.251   4.331  10.364  0.00  0.00     0.007 A 
ATOM      6  C3  V15 d           0.749   5.354   9.517  0.00  0.00     0.261 A 
ATOM      7  H2  V15 d           0.916   3.795  11.039  0.00  0.00     0.095 H 
ATOM      8  N1  V15 d          -0.108   6.023   8.694  0.00  0.00    -0.155 N 
ATOM      9  O15 V15 d           1.939   5.641   9.529  0.00  0.00    -0.268 OA
ATOM     10  C2  V15 d          -1.431   5.665   8.676  0.00  0.00     0.701 A 
ATOM     11  H1  V15 d           0.225   6.764   8.111  0.00  0.00     0.187 HD
ATOM     12  N6  V15 d          -1.873   4.700   9.451  0.00  0.00    -0.070 NA
BRANCH  10  13
ATOM     13  N14 V15 d          -2.311   6.278   7.812  0.00  0.00    -0.233 N 
ATOM     14  H8  V15 d          -2.459   5.892   6.868  0.00  0.00     0.174 HD
ATOM     15  H9  V15 d          -2.822   7.122   8.109  0.00  0.00     0.174 HD
ENDBRANCH  10  13
ENDBRANCH   1   4
BRANCH   1  16
ATOM     16  C16 V15 d          -3.275   3.034  11.349  0.00  0.00    -0.036 C 
ATOM     17  H12 V15 d          -3.695   3.760  10.639  0.00  0.00     0.040 H 
ATOM     18  H13 V15 d          -3.490   3.359  12.377  0.00  0.00     0.040 H 
BRANCH  16  19
ATOM     19  C7  V15 d          -3.918   1.690  11.115  0.00  0.00    -0.058 A 
ATOM     20  C8  V15 d          -5.301   1.544  11.008  0.00  0.00    -0.077 A 
ATOM     21  C9  V15 d          -5.860   0.292  10.804  0.00  0.00    -0.082 A 
ATOM     22  H3  V15 d          -5.942   2.415  11.085  0.00  0.00     0.084 H 
ATOM     23  C10 V15 d          -5.030  -0.819  10.683  0.00  0.00    -0.083 A 
ATOM     24  H4  V15 d          -6.936   0.180  10.739  0.00  0.00     0.083 H 
ATOM     25  C11 V15 d          -3.651  -0.680  10.775  0.00  0.00    -0.082 A 
ATOM     26  H5  V15 d          -5.463  -1.799  10.516  0.00  0.00     0.083 H 
ATOM     27  C12 V15 d          -3.094   0.576  10.985  0.00  0.00    -0.077 A 
ATOM     28  H6  V15 d          -3.011  -1.549  10.684  0.00  0.00     0.083 H 
ATOM     29  H7  V15 d          -2.017   0.687  11.048  0.00  0.00     0.084 H 
ENDBRANCH  16  19
ENDBRANCH   1  16
TORSDOF 4
ENDMDL
MODEL 4
REMARK VINA RESULT:      -6.4      3.379      6.064
REMARK  4 active torsions:
REMARK  status: ('A' for Active; 'I' for Inactive)
REMARK    1  A    between atoms: C2_2  and  N14_12 
REMARK    2  A    between atoms: C15_13  and  C5_5 
REMARK    3  A    between atoms: C16_15  and  C15_13 
REMARK    4  A    between atoms: C7_14  and  C16_15 
ROOT
ATOM      1  C15 V15 d          -1.914   2.361  11.786  0.00  0.00    -0.020 C 
ATOM      2  H10 V15 d          -1.544   1.649  12.539  0.00  0.00     0.042 H 
ATOM      3  H11 V15 d          -2.229   3.290  12.283  0.00  0.00     0.042 H 
ENDROOT
BRANCH   1   4
ATOM      4  C5  V15 d          -3.143   1.750  11.160  0.00  0.00     0.059 A 
ATOM      5  C4  V15 d          -4.431   2.071  11.517  0.00  0.00     0.007 A 
ATOM      6  C3  V15 d          -5.501   1.424  10.848  0.00  0.00     0.261 A 
ATOM      7  H2  V15 d          -4.625   2.806  12.297  0.00  0.00     0.095 H 
ATOM      8  N1  V15 d          -5.230   0.494   9.889  0.00  0.00    -0.155 N 
ATOM      9  O15 V15 d          -6.660   1.693  11.134  0.00  0.00    -0.268 OA
ATOM     10  C2  V15 d          -3.925   0.230   9.565  0.00  0.00     0.701 A 
ATOM     11  H1  V15 d          -5.975   0.011   9.427  0.00  0.00     0.187 HD
ATOM     12  N6  V15 d          -2.944   0.854  10.179  0.00  0.00    -0.070 NA
BRANCH  10  13
ATOM     13  N14 V15 d          -3.618  -0.657   8.557  0.00  0.00    -0.233 N 
ATOM     14  H8  V15 d          -4.088  -1.573   8.516  0.00  0.00     0.174 HD
ATOM     15  H9  V15 d          -2.918  -0.406   7.845  0.00  0.00     0.174 HD
ENDBRANCH  10  13
ENDBRANCH   1   4
BRANCH   1  16
ATOM     16  C16 V15 d          -0.727   2.714  10.873  0.00  0.00    -0.036 C 
ATOM     17  H12 V15 d          -0.720   2.027  10.014  0.00  0.00     0.040 H 
ATOM     18  H13 V15 d           0.208   2.600  11.441  0.00  0.00     0.040 H 
BRANCH  16  19
ATOM     19  C7  V15 d          -0.825   4.131  10.367  0.00  0.00    -0.058 A 
ATOM     20  C8  V15 d          -2.024   4.662   9.891  0.00  0.00    -0.077 A 
ATOM     21  C9  V15 d          -2.076   5.965   9.423  0.00  0.00    -0.082 A 
ATOM     22  H3  V15 d          -2.920   4.052   9.888  0.00  0.00     0.084 H 
ATOM     23  C10 V15 d          -0.928   6.752   9.451  0.00  0.00    -0.083 A 
ATOM     24  H4  V15 d          -3.005   6.369   9.038  0.00  0.00     0.083 H 
ATOM     25  C11 V15 d           0.267   6.234   9.935  0.00  0.00    -0.082 A 
ATOM     26  H5  V15 d          -0.966   7.774   9.092  0.00  0.00     0.083 H 
ATOM     27  C12 V15 d           0.317   4.925  10.400  0.00  0.00    -0.077 A 
ATOM     28  H6  V15 d           1.158   6.850   9.951  0.00  0.00     0.083 H 
ATOM     29  H7  V15 d           1.247   4.523  10.787  0.00  0.00     0.084 H 
ENDBRANCH  16  19
ENDBRANCH   1  16
TORSDOF 4
ENDMDL
MODEL 5
REMARK VINA RESULT:      -5.6      3.646      6.436
REMARK  4 active torsions:
REMARK  status: ('A' for Active; 'I' for Inactive)
REMARK    1  A    between atoms: C2_2  and  N14_12 
REMARK    2  A    between atoms: C15_13  and  C5_5 
REMARK    3  A    between atoms: C16_15  and  C15_13 
REMARK    4  A    between atoms: C7_14  and  C16_15 
ROOT
ATOM      1  C15 V15 d          -3.224   3.236   9.109  0.00  0.00    -0.020 C 
ATOM      2  H10 V15 d          -4.023   3.918   8.783  0.00  0.00     0.042 H 
ATOM      3  H11 V15 d          -2.445   3.187   8.334  0.00  0.00     0.042 H 
ENDROOT
BRANCH   1   4
ATOM      4  C5  V15 d          -3.830   1.859   9.220  0.00  0.00     0.059 A 
ATOM      5  C4  V15 d          -4.917   1.435   8.492  0.00  0.00     0.007 A 
ATOM      6  C3  V15 d          -5.389   0.112   8.689  0.00  0.00     0.261 A 
ATOM      7  H2  V15 d          -5.404   2.099   7.780  0.00  0.00     0.095 H 
ATOM      8  N1  V15 d          -4.773  -0.694   9.600  0.00  0.00    -0.155 N 
ATOM      9  O15 V15 d          -6.348  -0.303   8.051  0.00  0.00    -0.268 OA
ATOM     10  C2  V15 d          -3.683  -0.218  10.281  0.00  0.00     0.701 A 
ATOM     11  H1  V15 d          -5.111  -1.620   9.768  0.00  0.00     0.187 HD
ATOM     12  N6  V15 d          -3.244   1.003  10.072  0.00  0.00    -0.070 NA
BRANCH  10  13
ATOM     13  N14 V15 d          -2.999  -1.026  11.162  0.00  0.00    -0.233 N 
ATOM     14  H8  V15 d          -3.511  -1.539  11.895  0.00  0.00     0.174 HD
ATOM     15  H9  V15 d          -1.976  -1.119  11.089  0.00  0.00     0.174 HD
ENDBRANCH  10  13
ENDBRANCH   1   4
BRANCH   1  16
ATOM     16  C16 V15 d          -2.582   3.854  10.362  0.00  0.00    -0.036 C 
ATOM     17  H12 V15 d          -2.157   3.050  10.980  0.00  0.00     0.040 H 
ATOM     18  H13 V15 d          -3.355   4.387  10.935  0.00  0.00     0.040 H 
BRANCH  16  19
ATOM     19  C7  V15 d          -1.486   4.823   9.997  0.00  0.00    -0.058 A 
ATOM     20  C8  V15 d          -1.742   5.985   9.269  0.00  0.00    -0.077 A 
ATOM     21  C9  V15 d          -0.709   6.848   8.941  0.00  0.00    -0.082 A 
ATOM     22  H3  V15 d          -2.755   6.214   8.958  0.00  0.00     0.084 H 
ATOM     23  C10 V15 d           0.587   6.562   9.361  0.00  0.00    -0.083 A 
ATOM     24  H4  V15 d          -0.909   7.742   8.360  0.00  0.00     0.083 H 
ATOM     25  C11 V15 d           0.847   5.413  10.098  0.00  0.00    -0.082 A 
ATOM     26  H5  V15 d           1.396   7.239   9.113  0.00  0.00     0.083 H 
ATOM     27  C12 V15 d          -0.190   4.546  10.422  0.00  0.00    -0.077 A 
ATOM     28  H6  V15 d           1.858   5.194  10.421  0.00  0.00     0.083 H 
ATOM     29  H7  V15 d           0.011   3.655  11.005  0.00  0.00     0.084 H 
ENDBRANCH  16  19
ENDBRANCH   1  16
TORSDOF 4
ENDMDL
MODEL 6
REMARK VINA RESULT:      -5.2      4.015      6.794
REMARK  4 active torsions:
REMARK  status: ('A' for Active; 'I' for Inactive)
REMARK    1  A    between atoms: C2_2  and  N14_12 
REMARK    2  A    between atoms: C15_13  and  C5_5 
REMARK    3  A    between atoms: C16_15  and  C15_13 
REMARK    4  A    between atoms: C7_14  and  C16_15 
ROOT
ATOM      1  C15 V15 d          -3.191   3.181   9.051  0.00  0.00    -0.020 C 
ATOM      2  H10 V15 d          -3.886   3.697   8.372  0.00  0.00     0.042 H 
ATOM      3  H11 V15 d          -2.234   3.012   8.535  0.00  0.00     0.042 H 
ENDROOT
BRANCH   1   4
ATOM      4  C5  V15 d          -3.782   1.825   9.349  0.00  0.00     0.059 A 
ATOM      5  C4  V15 d          -3.332   0.989  10.343  0.00  0.00     0.007 A 
ATOM      6  C3  V15 d          -3.977  -0.261  10.521  0.00  0.00     0.261 A 
ATOM      7  H2  V15 d          -2.498   1.281  10.980  0.00  0.00     0.095 H 
ATOM      8  N1  V15 d          -5.007  -0.610   9.698  0.00  0.00    -0.155 N 
ATOM      9  O15 V15 d          -3.609  -1.026  11.403  0.00  0.00    -0.268 OA
ATOM     10  C2  V15 d          -5.420   0.274   8.736  0.00  0.00     0.701 A 
ATOM     11  H1  V15 d          -5.454  -1.499   9.795  0.00  0.00     0.187 HD
ATOM     12  N6  V15 d          -4.826   1.439   8.598  0.00  0.00    -0.070 NA
BRANCH  10  13
ATOM     13  N14 V15 d          -6.497  -0.020   7.930  0.00  0.00    -0.233 N 
ATOM     14  H8  V15 d          -7.203   0.702   7.728  0.00  0.00     0.174 HD
ATOM     15  H9  V15 d          -6.598  -0.964   7.528  0.00  0.00     0.174 HD
ENDBRANCH  10  13
ENDBRANCH   1   4
BRANCH   1  16
ATOM     16  C16 V15 d          -2.913   4.131  10.227  0.00  0.00    -0.036 C 
ATOM     17  H12 V15 d          -2.876   3.547  11.158  0.00  0.00     0.040 H 
ATOM     18  H13 V15 d          -3.725   4.870  10.290  0.00  0.00     0.040 H 
BRANCH  16  19
ATOM     19  C7  V15 d          -1.603   4.856  10.051  0.00  0.00    -0.058 A 
ATOM     20  C8  V15 d          -0.386   4.279  10.416  0.00  0.00    -0.077 A 
ATOM     21  C9  V15 d           0.799   4.978  10.250  0.00  0.00    -0.082 A 
ATOM     22  H3  V15 d          -0.368   3.278  10.831  0.00  0.00     0.084 H 
ATOM     23  C10 V15 d           0.772   6.254   9.695  0.00  0.00    -0.083 A 
ATOM     24  H4  V15 d           1.740   4.533  10.551  0.00  0.00     0.083 H 
ATOM     25  C11 V15 d          -0.434   6.830   9.317  0.00  0.00    -0.082 A 
ATOM     26  H5  V15 d           1.698   6.801   9.557  0.00  0.00     0.083 H 
ATOM     27  C12 V15 d          -1.622   6.129   9.489  0.00  0.00    -0.077 A 
ATOM     28  H6  V15 d          -0.449   7.825   8.888  0.00  0.00     0.083 H 
ATOM     29  H7  V15 d          -2.562   6.574   9.185  0.00  0.00     0.084 H 
ENDBRANCH  16  19
ENDBRANCH   1  16
TORSDOF 4
ENDMDL
MODEL 7
REMARK VINA RESULT:      -5.1      1.981      2.908
REMARK  4 active torsions:
REMARK  status: ('A' for Active; 'I' for Inactive)
REMARK    1  A    between atoms: C2_2  and  N14_12 
REMARK    2  A    between atoms: C15_13  and  C5_5 
REMARK    3  A    between atoms: C16_15  and  C15_13 
REMARK    4  A    between atoms: C7_14  and  C16_15 
ROOT
ATOM      1  C15 V15 d          -3.933   2.829  11.308  0.00  0.00    -0.020 C 
ATOM      2  H10 V15 d          -4.642   3.268  10.590  0.00  0.00     0.042 H 
ATOM      3  H11 V15 d          -4.045   3.324  12.284  0.00  0.00     0.042 H 
ENDROOT
BRANCH   1   4
ATOM      4  C5  V15 d          -2.543   3.138  10.808  0.00  0.00     0.059 A 
ATOM      5  C4  V15 d          -2.049   4.410  10.644  0.00  0.00     0.007 A 
ATOM      6  C3  V15 d          -0.722   4.564  10.167  0.00  0.00     0.261 A 
ATOM      7  H2  V15 d          -2.662   5.280  10.874  0.00  0.00     0.095 H 
ATOM      8  N1  V15 d           0.019   3.460   9.868  0.00  0.00    -0.155 N 
ATOM      9  O15 V15 d          -0.246   5.683  10.018  0.00  0.00    -0.268 OA
ATOM     10  C2  V15 d          -0.525   2.218  10.070  0.00  0.00     0.701 A 
ATOM     11  H1  V15 d           0.946   3.554   9.507  0.00  0.00     0.187 HD
ATOM     12  N6  V15 d          -1.749   2.091  10.533  0.00  0.00    -0.070 NA
BRANCH  10  13
ATOM     13  N14 V15 d           0.217   1.081   9.838  0.00  0.00    -0.233 N 
ATOM     14  H8  V15 d           0.287   0.355  10.564  0.00  0.00     0.174 HD
ATOM     15  H9  V15 d           0.702   0.957   8.938  0.00  0.00     0.174 HD
ENDBRANCH  10  13
ENDBRANCH   1   4
BRANCH   1  16
ATOM     16  C16 V15 d          -4.331   1.355  11.496  0.00  0.00    -0.036 C 
ATOM     17  H12 V15 d          -5.142   1.296  12.236  0.00  0.00     0.040 H 
ATOM     18  H13 V15 d          -3.459   0.793  11.863  0.00  0.00     0.040 H 
BRANCH  16  19
ATOM     19  C7  V15 d          -4.800   0.743  10.201  0.00  0.00    -0.058 A 
ATOM     20  C8  V15 d          -4.139  -0.336   9.614  0.00  0.00    -0.077 A 
ATOM     21  C9  V15 d          -4.591  -0.867   8.417  0.00  0.00    -0.082 A 
ATOM     22  H3  V15 d          -3.266  -0.761  10.097  0.00  0.00     0.084 H 
ATOM     23  C10 V15 d          -5.726  -0.333   7.812  0.00  0.00    -0.083 A 
ATOM     24  H4  V15 d          -4.065  -1.694   7.954  0.00  0.00     0.083 H 
ATOM     25  C11 V15 d          -6.397   0.733   8.398  0.00  0.00    -0.082 A 
ATOM     26  H5  V15 d          -6.087  -0.751   6.879  0.00  0.00     0.083 H 
ATOM     27  C12 V15 d          -5.939   1.267   9.596  0.00  0.00    -0.077 A 
ATOM     28  H6  V15 d          -7.278   1.146   7.922  0.00  0.00     0.083 H 
ATOM     29  H7  V15 d          -6.468   2.093  10.059  0.00  0.00     0.084 H 
ENDBRANCH  16  19
ENDBRANCH   1  16
TORSDOF 4
ENDMDL
MODEL 8
REMARK VINA RESULT:      -4.9      2.335      3.239
REMARK  4 active torsions:
REMARK  status: ('A' for Active; 'I' for Inactive)
REMARK    1  A    between atoms: C2_2  and  N14_12 
REMARK    2  A    between atoms: C15_13  and  C5_5 
REMARK    3  A    between atoms: C16_15  and  C15_13 
REMARK    4  A    between atoms: C7_14  and  C16_15 
ROOT
ATOM      1  C15 V15 d          -4.041   2.533  11.427  0.00  0.00    -0.020 C 
ATOM      2  H10 V15 d          -4.677   3.135  10.761  0.00  0.00     0.042 H 
ATOM      3  H11 V15 d          -4.062   2.962  12.440  0.00  0.00     0.042 H 
ENDROOT
BRANCH   1   4
ATOM      4  C5  V15 d          -2.625   2.654  10.921  0.00  0.00     0.059 A 
ATOM      5  C4  V15 d          -1.846   1.585  10.548  0.00  0.00     0.007 A 
ATOM      6  C3  V15 d          -0.529   1.835  10.087  0.00  0.00     0.261 A 
ATOM      7  H2  V15 d          -2.232   0.568  10.605  0.00  0.00     0.095 H 
ATOM      8  N1  V15 d          -0.063   3.115  10.042  0.00  0.00    -0.155 N 
ATOM      9  O15 V15 d           0.190   0.907   9.736  0.00  0.00    -0.268 OA
ATOM     10  C2  V15 d          -0.894   4.140  10.411  0.00  0.00     0.701 A 
ATOM     11  H1  V15 d           0.873   3.304   9.744  0.00  0.00     0.187 HD
ATOM     12  N6  V15 d          -2.120   3.895  10.816  0.00  0.00    -0.070 NA
BRANCH  10  13
ATOM     13  N14 V15 d          -0.477   5.450  10.319  0.00  0.00    -0.233 N 
ATOM     14  H8  V15 d           0.093   5.863  11.071  0.00  0.00     0.174 HD
ATOM     15  H9  V15 d          -0.735   6.017   9.499  0.00  0.00     0.174 HD
ENDBRANCH  10  13
ENDBRANCH   1   4
BRANCH   1  16
ATOM     16  C16 V15 d          -4.670   1.132  11.513  0.00  0.00    -0.036 C 
ATOM     17  H12 V15 d          -5.441   1.134  12.296  0.00  0.00     0.040 H 
ATOM     18  H13 V15 d          -3.887   0.404  11.770  0.00  0.00     0.040 H 
BRANCH  16  19
ATOM     19  C7  V15 d          -5.301   0.733  10.203  0.00  0.00    -0.058 A 
ATOM     20  C8  V15 d          -5.823   1.675   9.319  0.00  0.00    -0.077 A 
ATOM     21  C9  V15 d          -6.407   1.272   8.128  0.00  0.00    -0.082 A 
ATOM     22  H3  V15 d          -5.772   2.730   9.564  0.00  0.00     0.084 H 
ATOM     23  C10 V15 d          -6.450  -0.082   7.808  0.00  0.00    -0.083 A 
ATOM     24  H4  V15 d          -6.828   2.007   7.451  0.00  0.00     0.083 H 
ATOM     25  C11 V15 d          -5.920  -1.026   8.678  0.00  0.00    -0.082 A 
ATOM     26  H5  V15 d          -6.899  -0.401   6.874  0.00  0.00     0.083 H 
ATOM     27  C12 V15 d          -5.340  -0.619   9.873  0.00  0.00    -0.077 A 
ATOM     28  H6  V15 d          -5.959  -2.079   8.424  0.00  0.00     0.083 H 
ATOM     29  H7  V15 d          -4.917  -1.355  10.548  0.00  0.00     0.084 H 
ENDBRANCH  16  19
ENDBRANCH   1  16
TORSDOF 4
ENDMDL
