MODEL 1
REMARK VINA RESULT:     -10.5      0.000      0.000
REMARK  3 active torsions:
REMARK  status: ('A' for Active; 'I' for Inactive)
REMARK    1  A    between atoms: CAU_21  and  OAA_1 
REMARK    2  A    between atoms: CAQ_17  and  CAP_16 
REMARK    3  A    between atoms: CAR_18  and  CAU_21 
ROOT
ATOM      1  CAK MOL d          58.099  11.862  51.825  0.00  0.00    -0.036 C 
ATOM      2  CAL MOL d          56.662  10.390  53.077  0.00  0.00    -0.036 C 
ATOM      3  CAM MOL d          57.401  11.283  50.598  0.00  0.00     0.084 C 
ATOM      4  CAN MOL d          55.777  10.048  51.880  0.00  0.00     0.084 C 
ATOM      5  CAO MOL d          55.338  12.369  51.314  0.00  0.00     0.116 C 
ATOM      6  CAS MOL d          57.085  11.851  52.964  0.00  0.00    -0.015 C 
ATOM      7  NAT MOL d          55.962  11.104  50.869  0.00  0.00    -0.068 N 
ATOM      8  CAU MOL d          55.897  12.767  52.679  0.00  0.00     0.113 C 
ATOM      9  H11 MOL d          58.426  12.893  51.622  0.00  0.00     0.036 H 
ATOM     10  H12 MOL d          58.970  11.246  52.090  0.00  0.00     0.036 H 
ATOM     11  H13 MOL d          57.554   9.745  53.076  0.00  0.00     0.036 H 
ATOM     12  H14 MOL d          56.100  10.238  54.010  0.00  0.00     0.036 H 
ATOM     13  H15 MOL d          57.849  10.309  50.352  0.00  0.00     0.076 H 
ATOM     14  H16 MOL d          57.529  11.971  49.750  0.00  0.00     0.076 H 
ATOM     15  H17 MOL d          54.723  10.011  52.193  0.00  0.00     0.076 H 
ATOM     16  H18 MOL d          56.070   9.074  51.463  0.00  0.00     0.076 H 
ATOM     17  H19 MOL d          54.249  12.233  51.391  0.00  0.00     0.081 H 
ATOM     18  H20 MOL d          55.558  13.162  50.584  0.00  0.00     0.081 H 
ATOM     19  H21 MOL d          57.564  12.179  53.898  0.00  0.00     0.045 H 
ATOM     20  H22 MOL d          55.511  10.813  50.016  0.00  0.00     0.280 HD
ENDROOT
BRANCH   8  21
ATOM     21  OAA MOL d          54.897  12.503  53.669  0.00  0.00    -0.383 OA
ATOM     22  H1  MOL d          55.203  11.819  54.253  0.00  0.00     0.211 HD
ENDBRANCH   8  21
BRANCH   8  23
ATOM     23  CAR MOL d          56.230  14.232  52.794  0.00  0.00    -0.022 A 
ATOM     24  CAI MOL d          56.929  14.755  53.879  0.00  0.00    -0.073 A 
ATOM     25  CAG MOL d          57.245  16.108  53.951  0.00  0.00    -0.072 A 
ATOM     26  H9  MOL d          57.233  14.095  54.684  0.00  0.00     0.084 H 
ATOM     27  CAQ MOL d          56.890  17.024  52.964  0.00  0.00    -0.026 A 
ATOM     28  H7  MOL d          57.793  16.466  54.815  0.00  0.00     0.084 H 
ATOM     29  CAH MOL d          56.205  16.492  51.873  0.00  0.00    -0.072 A 
ATOM     30  CAJ MOL d          55.897  15.132  51.779  0.00  0.00    -0.073 A 
ATOM     31  H8  MOL d          55.902  17.155  51.070  0.00  0.00     0.084 H 
ATOM     32  H10 MOL d          55.387  14.767  50.897  0.00  0.00     0.084 H 
BRANCH  27  33
ATOM     33  CAP MOL d          57.210  18.373  53.071  0.00  0.00    -0.026 A 
ATOM     34  CAE MOL d          57.742  18.919  54.238  0.00  0.00    -0.072 A 
ATOM     35  CAC MOL d          58.052  20.271  54.379  0.00  0.00    -0.082 A 
ATOM     36  H5  MOL d          57.925  18.259  55.079  0.00  0.00     0.084 H 
ATOM     37  CAB MOL d          57.854  21.152  53.313  0.00  0.00    -0.083 A 
ATOM     38  H3  MOL d          58.448  20.640  55.318  0.00  0.00     0.083 H 
ATOM     39  CAD MOL d          57.353  20.614  52.130  0.00  0.00    -0.082 A 
ATOM     40  H2  MOL d          58.080  22.208  53.404  0.00  0.00     0.083 H 
ATOM     41  CAF MOL d          57.026  19.262  52.017  0.00  0.00    -0.072 A 
ATOM     42  H4  MOL d          57.214  21.264  51.274  0.00  0.00     0.083 H 
ATOM     43  H6  MOL d          56.617  18.895  51.083  0.00  0.00     0.084 H 
ENDBRANCH  27  33
ENDBRANCH   8  23
TORSDOF 3
ENDMDL
MODEL 2
REMARK VINA RESULT:     -10.2      0.033      1.035
REMARK  3 active torsions:
REMARK  status: ('A' for Active; 'I' for Inactive)
REMARK    1  A    between atoms: CAU_21  and  OAA_1 
REMARK    2  A    between atoms: CAQ_17  and  CAP_16 
REMARK    3  A    between atoms: CAR_18  and  CAU_21 
ROOT
ATOM      1  CAK MOL d          58.117  11.873  51.825  0.00  0.00    -0.036 C 
ATOM      2  CAL MOL d          56.697  10.389  53.081  0.00  0.00    -0.036 C 
ATOM      3  CAM MOL d          57.412  11.297  50.601  0.00  0.00     0.084 C 
ATOM      4  CAN MOL d          55.803  10.049  51.890  0.00  0.00     0.084 C 
ATOM      5  CAO MOL d          55.350  12.371  51.339  0.00  0.00     0.116 C 
ATOM      6  CAS MOL d          57.112  11.852  52.972  0.00  0.00    -0.015 C 
ATOM      7  NAT MOL d          55.976  11.110  50.882  0.00  0.00    -0.068 N 
ATOM      8  CAU MOL d          55.918  12.765  52.702  0.00  0.00     0.113 C 
ATOM      9  H11 MOL d          58.438  12.906  51.624  0.00  0.00     0.036 H 
ATOM     10  H12 MOL d          58.993  11.259  52.080  0.00  0.00     0.036 H 
ATOM     11  H13 MOL d          57.590   9.748  53.069  0.00  0.00     0.036 H 
ATOM     12  H14 MOL d          56.143  10.230  54.018  0.00  0.00     0.036 H 
ATOM     13  H15 MOL d          57.861  10.326  50.346  0.00  0.00     0.076 H 
ATOM     14  H16 MOL d          57.529  11.990  49.755  0.00  0.00     0.076 H 
ATOM     15  H17 MOL d          54.752  10.006  52.211  0.00  0.00     0.076 H 
ATOM     16  H18 MOL d          56.097   9.078  51.465  0.00  0.00     0.076 H 
ATOM     17  H19 MOL d          54.263  12.230  51.424  0.00  0.00     0.081 H 
ATOM     18  H20 MOL d          55.560  13.169  50.611  0.00  0.00     0.081 H 
ATOM     19  H21 MOL d          57.598  12.178  53.903  0.00  0.00     0.045 H 
ATOM     20  H22 MOL d          55.519  10.822  50.031  0.00  0.00     0.280 HD
ENDROOT
BRANCH   8  21
ATOM     21  OAA MOL d          54.927  12.492  53.698  0.00  0.00    -0.383 OA
ATOM     22  H1  MOL d          54.180  12.067  53.292  0.00  0.00     0.211 HD
ENDBRANCH   8  21
BRANCH   8  23
ATOM     23  CAR MOL d          56.246  14.231  52.821  0.00  0.00    -0.022 A 
ATOM     24  CAI MOL d          56.968  14.748  53.894  0.00  0.00    -0.073 A 
ATOM     25  CAG MOL d          57.279  16.102  53.970  0.00  0.00    -0.072 A 
ATOM     26  H9  MOL d          57.294  14.083  54.686  0.00  0.00     0.084 H 
ATOM     27  CAQ MOL d          56.896  17.024  52.999  0.00  0.00    -0.026 A 
ATOM     28  H7  MOL d          57.844  16.456  54.824  0.00  0.00     0.084 H 
ATOM     29  CAH MOL d          56.188  16.498  51.919  0.00  0.00    -0.072 A 
ATOM     30  CAJ MOL d          55.885  15.137  51.822  0.00  0.00    -0.073 A 
ATOM     31  H8  MOL d          55.863  17.166  51.130  0.00  0.00     0.084 H 
ATOM     32  H10 MOL d          55.356  14.776  50.948  0.00  0.00     0.084 H 
BRANCH  27  33
ATOM     33  CAP MOL d          57.211  18.374  53.110  0.00  0.00    -0.026 A 
ATOM     34  CAE MOL d          57.019  19.269  52.058  0.00  0.00    -0.072 A 
ATOM     35  CAC MOL d          57.345  20.623  52.135  0.00  0.00    -0.082 A 
ATOM     36  H5  MOL d          56.595  18.894  51.133  0.00  0.00     0.084 H 
ATOM     37  CAB MOL d          57.872  21.152  53.315  0.00  0.00    -0.083 A 
ATOM     38  H3  MOL d          57.189  21.265  51.277  0.00  0.00     0.083 H 
ATOM     39  CAD MOL d          58.038  20.276  54.385  0.00  0.00    -0.082 A 
ATOM     40  H2  MOL d          58.140  22.200  53.394  0.00  0.00     0.083 H 
ATOM     41  CAF MOL d          57.729  18.919  54.280  0.00  0.00    -0.072 A 
ATOM     42  H4  MOL d          58.418  20.660  55.325  0.00  0.00     0.083 H 
ATOM     43  H6  MOL d          57.898  18.272  55.133  0.00  0.00     0.084 H 
ENDBRANCH  27  33
ENDBRANCH   8  23
TORSDOF 3
ENDMDL
MODEL 3
REMARK VINA RESULT:      -9.8      1.248      2.383
REMARK  3 active torsions:
REMARK  status: ('A' for Active; 'I' for Inactive)
REMARK    1  A    between atoms: CAU_21  and  OAA_1 
REMARK    2  A    between atoms: CAQ_17  and  CAP_16 
REMARK    3  A    between atoms: CAR_18  and  CAU_21 
ROOT
ATOM      1  CAK MOL d          54.401  12.164  53.351  0.00  0.00    -0.036 C 
ATOM      2  CAL MOL d          54.532  10.838  51.347  0.00  0.00    -0.036 C 
ATOM      3  CAM MOL d          55.223  11.047  53.986  0.00  0.00     0.084 C 
ATOM      4  CAN MOL d          55.594   9.892  51.904  0.00  0.00     0.084 C 
ATOM      5  CAO MOL d          57.099  11.681  52.562  0.00  0.00     0.116 C 
ATOM      6  CAS MOL d          54.803  12.239  51.883  0.00  0.00    -0.015 C 
ATOM      7  NAT MOL d          56.247  10.569  53.038  0.00  0.00    -0.068 N 
ATOM      8  CAU MOL d          56.267  12.641  51.713  0.00  0.00     0.113 C 
ATOM      9  H11 MOL d          54.615  13.121  53.851  0.00  0.00     0.036 H 
ATOM     10  H12 MOL d          53.328  11.938  53.437  0.00  0.00     0.036 H 
ATOM     11  H13 MOL d          53.534  10.505  51.667  0.00  0.00     0.036 H 
ATOM     12  H14 MOL d          54.582  10.845  50.248  0.00  0.00     0.036 H 
ATOM     13  H15 MOL d          54.558  10.213  54.253  0.00  0.00     0.076 H 
ATOM     14  H16 MOL d          55.716  11.429  54.892  0.00  0.00     0.076 H 
ATOM     15  H17 MOL d          56.337   9.664  51.126  0.00  0.00     0.076 H 
ATOM     16  H18 MOL d          55.123   8.959  52.245  0.00  0.00     0.076 H 
ATOM     17  H19 MOL d          57.923  11.278  51.955  0.00  0.00     0.081 H 
ATOM     18  H20 MOL d          57.512  12.222  53.427  0.00  0.00     0.081 H 
ATOM     19  H21 MOL d          54.176  12.973  51.358  0.00  0.00     0.045 H 
ATOM     20  H22 MOL d          56.836   9.903  53.513  0.00  0.00     0.280 HD
ENDROOT
BRANCH   8  21
ATOM     21  OAA MOL d          56.615  12.443  50.338  0.00  0.00    -0.383 OA
ATOM     22  H1  MOL d          56.877  11.539  50.206  0.00  0.00     0.211 HD
ENDBRANCH   8  21
BRANCH   8  23
ATOM     23  CAR MOL d          56.527  14.095  52.010  0.00  0.00    -0.022 A 
ATOM     24  CAI MOL d          56.088  15.117  51.173  0.00  0.00    -0.073 A 
ATOM     25  CAG MOL d          56.321  16.454  51.482  0.00  0.00    -0.072 A 
ATOM     26  H9  MOL d          55.556  14.867  50.262  0.00  0.00     0.084 H 
ATOM     27  CAQ MOL d          56.999  16.862  52.628  0.00  0.00    -0.026 A 
ATOM     28  H7  MOL d          55.957  17.213  50.799  0.00  0.00     0.084 H 
ATOM     29  CAH MOL d          57.421  15.835  53.471  0.00  0.00    -0.072 A 
ATOM     30  CAJ MOL d          57.178  14.489  53.181  0.00  0.00    -0.073 A 
ATOM     31  H8  MOL d          57.954  16.088  54.379  0.00  0.00     0.084 H 
ATOM     32  H10 MOL d          57.505  13.732  53.884  0.00  0.00     0.084 H 
BRANCH  27  33
ATOM     33  CAP MOL d          57.227  18.205  52.902  0.00  0.00    -0.026 A 
ATOM     34  CAE MOL d          57.097  19.194  51.927  0.00  0.00    -0.072 A 
ATOM     35  CAC MOL d          57.340  20.546  52.171  0.00  0.00    -0.082 A 
ATOM     36  H5  MOL d          56.793  18.897  50.930  0.00  0.00     0.084 H 
ATOM     37  CAB MOL d          57.711  20.974  53.447  0.00  0.00    -0.083 A 
ATOM     38  H3  MOL d          57.239  21.265  51.367  0.00  0.00     0.083 H 
ATOM     39  CAD MOL d          57.813  20.002  54.439  0.00  0.00    -0.082 A 
ATOM     40  H2  MOL d          57.912  22.019  53.656  0.00  0.00     0.083 H 
ATOM     41  CAF MOL d          57.590  18.650  54.169  0.00  0.00    -0.072 A 
ATOM     42  H4  MOL d          58.072  20.303  55.448  0.00  0.00     0.083 H 
ATOM     43  H6  MOL d          57.704  17.927  54.969  0.00  0.00     0.084 H 
ENDBRANCH  27  33
ENDBRANCH   8  23
TORSDOF 3
ENDMDL
MODEL 4
REMARK VINA RESULT:      -7.6      2.588      7.382
REMARK  3 active torsions:
REMARK  status: ('A' for Active; 'I' for Inactive)
REMARK    1  A    between atoms: CAU_21  and  OAA_1 
REMARK    2  A    between atoms: CAQ_17  and  CAP_16 
REMARK    3  A    between atoms: CAR_18  and  CAU_21 
ROOT
ATOM      1  CAK MOL d          58.898  18.189  52.481  0.00  0.00    -0.036 C 
ATOM      2  CAL MOL d          57.385  20.039  52.189  0.00  0.00    -0.036 C 
ATOM      3  CAM MOL d          59.183  18.811  53.845  0.00  0.00     0.084 C 
ATOM      4  CAN MOL d          57.450  20.473  53.651  0.00  0.00     0.084 C 
ATOM      5  CAO MOL d          56.901  18.271  54.517  0.00  0.00     0.116 C 
ATOM      6  CAS MOL d          57.451  18.516  52.134  0.00  0.00    -0.015 C 
ATOM      7  NAT MOL d          57.936  19.327  54.439  0.00  0.00    -0.068 N 
ATOM      8  CAU MOL d          56.469  17.868  53.108  0.00  0.00     0.113 C 
ATOM      9  H11 MOL d          59.038  17.099  52.527  0.00  0.00     0.036 H 
ATOM     10  H12 MOL d          59.573  18.615  51.724  0.00  0.00     0.036 H 
ATOM     11  H13 MOL d          58.234  20.467  51.635  0.00  0.00     0.036 H 
ATOM     12  H14 MOL d          56.442  20.386  51.740  0.00  0.00     0.036 H 
ATOM     13  H15 MOL d          59.898  19.638  53.725  0.00  0.00     0.076 H 
ATOM     14  H16 MOL d          59.614  18.047  54.509  0.00  0.00     0.076 H 
ATOM     15  H17 MOL d          56.450  20.770  53.999  0.00  0.00     0.076 H 
ATOM     16  H18 MOL d          58.142  21.322  53.760  0.00  0.00     0.076 H 
ATOM     17  H19 MOL d          56.031  18.652  55.071  0.00  0.00     0.081 H 
ATOM     18  H20 MOL d          57.313  17.394  55.039  0.00  0.00     0.081 H 
ATOM     19  H21 MOL d          57.218  18.164  51.118  0.00  0.00     0.045 H 
ATOM     20  H22 MOL d          58.135  19.642  55.375  0.00  0.00     0.280 HD
ENDROOT
BRANCH   8  21
ATOM     21  OAA MOL d          55.175  18.426  52.858  0.00  0.00    -0.383 OA
ATOM     22  H1  MOL d          54.904  18.944  53.608  0.00  0.00     0.211 HD
ENDBRANCH   8  21
BRANCH   8  23
ATOM     23  CAR MOL d          56.333  16.379  52.919  0.00  0.00    -0.022 A 
ATOM     24  CAI MOL d          56.606  15.471  53.938  0.00  0.00    -0.073 A 
ATOM     25  CAG MOL d          56.451  14.101  53.746  0.00  0.00    -0.072 A 
ATOM     26  H9  MOL d          56.947  15.836  54.900  0.00  0.00     0.084 H 
ATOM     27  CAQ MOL d          56.022  13.548  52.542  0.00  0.00    -0.026 A 
ATOM     28  H7  MOL d          56.673  13.434  54.571  0.00  0.00     0.084 H 
ATOM     29  CAH MOL d          55.735  14.463  51.531  0.00  0.00    -0.072 A 
ATOM     30  CAJ MOL d          55.869  15.842  51.717  0.00  0.00    -0.073 A 
ATOM     31  H8  MOL d          55.396  14.094  50.570  0.00  0.00     0.084 H 
ATOM     32  H10 MOL d          55.607  16.511  50.906  0.00  0.00     0.084 H 
BRANCH  27  33
ATOM     33  CAP MOL d          55.889  12.174  52.377  0.00  0.00    -0.026 A 
ATOM     34  CAE MOL d          54.864  11.614  51.614  0.00  0.00    -0.072 A 
ATOM     35  CAC MOL d          54.695  10.240  51.449  0.00  0.00    -0.082 A 
ATOM     36  H5  MOL d          54.163  12.281  51.126  0.00  0.00     0.084 H 
ATOM     37  CAB MOL d          55.589   9.346  52.042  0.00  0.00    -0.083 A 
ATOM     38  H3  MOL d          53.868   9.865  50.859  0.00  0.00     0.083 H 
ATOM     39  CAD MOL d          56.637   9.891  52.780  0.00  0.00    -0.082 A 
ATOM     40  H2  MOL d          55.472   8.274  51.933  0.00  0.00     0.083 H 
ATOM     41  CAF MOL d          56.774  11.270  52.954  0.00  0.00    -0.072 A 
ATOM     42  H4  MOL d          57.366   9.227  53.231  0.00  0.00     0.083 H 
ATOM     43  H6  MOL d          57.594  11.646  53.556  0.00  0.00     0.084 H 
ENDBRANCH  27  33
ENDBRANCH   8  23
TORSDOF 3
ENDMDL
