MODEL 1
REMARK VINA RESULT:      -7.1      0.000      0.000
REMARK  6 active torsions:
REMARK  status: ('A' for Active; 'I' for Inactive)
REMARK    1  A    between atoms: CAA_1  and  CAH_2 
REMARK    2  A    between atoms: CAH_2  and  CAB_3 
REMARK    3  A    between atoms: CAH_2  and  CAL_4 
REMARK    4  A    between atoms: CAI_7  and  OAC_8 
REMARK    5  A    between atoms: CAJ_9  and  OAD_10 
REMARK    6  A    between atoms: CAK_11  and  OAE_12 
ROOT
ATOM      1  CAL ZXD d          -0.018  28.360  25.539  0.00  0.00     0.131 C 
ATOM      2  NAG ZXD d          -0.182  27.213  26.449  0.00  0.00    -0.066 N 
ATOM      3  CAF ZXD d          -1.602  26.841  26.569  0.00  0.00     0.108 C 
ATOM      4  CAI ZXD d          -2.118  26.413  25.189  0.00  0.00     0.086 C 
ATOM      5  CAJ ZXD d          -1.994  27.591  24.219  0.00  0.00     0.088 C 
ATOM      6  CAK ZXD d          -0.523  28.002  24.137  0.00  0.00     0.090 C 
ATOM      7  H8  ZXD d          -0.637  29.187  25.917  0.00  0.00     0.089 H 
ATOM      8  H9  ZXD d           0.174  27.460  27.359  0.00  0.00     0.277 HD
ATOM      9  H10 ZXD d           0.336  26.427  26.088  0.00  0.00     0.277 HD
ATOM     10  H11 ZXD d          -2.181  27.704  26.929  0.00  0.00     0.079 H 
ATOM     11  H12 ZXD d          -1.707  26.007  27.278  0.00  0.00     0.079 H 
ATOM     12  H13 ZXD d          -1.507  25.576  24.822  0.00  0.00     0.089 H 
ATOM     13  H15 ZXD d          -2.590  28.437  24.591  0.00  0.00     0.091 H 
ATOM     14  H17 ZXD d          -0.416  28.871  23.472  0.00  0.00     0.090 H 
ENDROOT
BRANCH   1  15
ATOM     15  CAH ZXD d           1.439  28.837  25.532  0.00  0.00    -0.031 C 
ATOM     16  H4  ZXD d           1.581  29.526  24.687  0.00  0.00     0.042 H 
BRANCH  15  17
ATOM     17  CAA ZXD d           1.750  29.572  26.840  0.00  0.00    -0.071 C 
ATOM     18  H1  ZXD d           1.325  30.586  26.799  0.00  0.00     0.028 H 
ATOM     19  H2  ZXD d           2.840  29.636  26.974  0.00  0.00     0.028 H 
ATOM     20  H3  ZXD d           1.308  29.023  27.683  0.00  0.00     0.028 H 
ENDBRANCH  15  17
BRANCH  15  21
ATOM     21  CAB ZXD d           2.407  27.660  25.381  0.00  0.00    -0.071 C 
ATOM     22  H5  ZXD d           2.666  27.531  24.320  0.00  0.00     0.028 H 
ATOM     23  H6  ZXD d           1.929  26.742  25.756  0.00  0.00     0.028 H 
ATOM     24  H7  ZXD d           3.321  27.860  25.959  0.00  0.00     0.028 H 
ENDBRANCH  15  21
ENDBRANCH   1  15
BRANCH   6  25
ATOM     25  OAE ZXD d           0.238  26.906  23.626  0.00  0.00    -0.391 OA
ATOM     26  H18 ZXD d           0.537  26.365  24.348  0.00  0.00     0.210 HD
ENDBRANCH   6  25
BRANCH   5  27
ATOM     27  OAD ZXD d          -2.473  27.211  22.928  0.00  0.00    -0.390 OA
ATOM     28  H16 ZXD d          -2.845  27.969  22.493  0.00  0.00     0.210 HD
ENDBRANCH   5  27
BRANCH   4  29
ATOM     29  OAC ZXD d          -3.482  25.993  25.267  0.00  0.00    -0.391 OA
ATOM     30  H14 ZXD d          -3.577  25.149  24.842  0.00  0.00     0.210 HD
ENDBRANCH   4  29
TORSDOF 6
ENDMDL
MODEL 2
REMARK VINA RESULT:      -5.8      2.461      4.558
REMARK  6 active torsions:
REMARK  status: ('A' for Active; 'I' for Inactive)
REMARK    1  A    between atoms: CAA_1  and  CAH_2 
REMARK    2  A    between atoms: CAH_2  and  CAB_3 
REMARK    3  A    between atoms: CAH_2  and  CAL_4 
REMARK    4  A    between atoms: CAI_7  and  OAC_8 
REMARK    5  A    between atoms: CAJ_9  and  OAD_10 
REMARK    6  A    between atoms: CAK_11  and  OAE_12 
ROOT
ATOM      1  CAL ZXD d          -1.723  28.207  26.382  0.00  0.00     0.131 C 
ATOM      2  NAG ZXD d          -1.349  27.715  25.045  0.00  0.00    -0.066 N 
ATOM      3  CAF ZXD d          -0.234  28.502  24.492  0.00  0.00     0.108 C 
ATOM      4  CAI ZXD d           0.988  28.334  25.404  0.00  0.00     0.086 C 
ATOM      5  CAJ ZXD d           0.651  28.865  26.799  0.00  0.00     0.088 C 
ATOM      6  CAK ZXD d          -0.539  28.074  27.346  0.00  0.00     0.090 C 
ATOM      7  H8  ZXD d          -1.967  29.276  26.297  0.00  0.00     0.089 H 
ATOM      8  H9  ZXD d          -2.144  27.790  24.431  0.00  0.00     0.277 HD
ATOM      9  H10 ZXD d          -1.069  26.749  25.114  0.00  0.00     0.277 HD
ATOM     10  H11 ZXD d          -0.518  29.564  24.446  0.00  0.00     0.079 H 
ATOM     11  H12 ZXD d           0.007  28.143  23.480  0.00  0.00     0.079 H 
ATOM     12  H13 ZXD d           1.239  27.266  25.473  0.00  0.00     0.089 H 
ATOM     13  H15 ZXD d           0.383  29.929  26.732  0.00  0.00     0.091 H 
ATOM     14  H17 ZXD d          -0.821  28.464  28.335  0.00  0.00     0.090 H 
ENDROOT
BRANCH   1  15
ATOM     15  CAH ZXD d          -2.975  27.484  26.891  0.00  0.00    -0.031 C 
ATOM     16  H4  ZXD d          -2.664  26.620  27.497  0.00  0.00     0.042 H 
BRANCH  15  17
ATOM     17  CAA ZXD d          -3.805  28.435  27.759  0.00  0.00    -0.071 C 
ATOM     18  H1  ZXD d          -4.669  28.798  27.183  0.00  0.00     0.028 H 
ATOM     19  H2  ZXD d          -3.183  29.289  28.065  0.00  0.00     0.028 H 
ATOM     20  H3  ZXD d          -4.159  27.901  28.653  0.00  0.00     0.028 H 
ENDBRANCH  15  17
BRANCH  15  21
ATOM     21  CAB ZXD d          -3.840  26.989  25.728  0.00  0.00    -0.071 C 
ATOM     22  H5  ZXD d          -3.202  26.796  24.853  0.00  0.00     0.028 H 
ATOM     23  H6  ZXD d          -4.587  27.755  25.475  0.00  0.00     0.028 H 
ATOM     24  H7  ZXD d          -4.352  26.060  26.020  0.00  0.00     0.028 H 
ENDBRANCH  15  21
ENDBRANCH   1  15
BRANCH   6  25
ATOM     25  OAE ZXD d          -0.170  26.698  27.457  0.00  0.00    -0.391 OA
ATOM     26  H18 ZXD d          -0.301  26.407  28.352  0.00  0.00     0.210 HD
ENDBRANCH   6  25
BRANCH   5  27
ATOM     27  OAD ZXD d           1.779  28.719  27.662  0.00  0.00    -0.390 OA
ATOM     28  H16 ZXD d           1.738  29.373  28.350  0.00  0.00     0.210 HD
ENDBRANCH   5  27
BRANCH   4  29
ATOM     29  OAC ZXD d           2.113  29.042  24.877  0.00  0.00    -0.391 OA
ATOM     30  H14 ZXD d           2.885  28.490  24.927  0.00  0.00     0.210 HD
ENDBRANCH   4  29
TORSDOF 6
ENDMDL
MODEL 3
REMARK VINA RESULT:      -5.6      1.723      2.492
REMARK  6 active torsions:
REMARK  status: ('A' for Active; 'I' for Inactive)
REMARK    1  A    between atoms: CAA_1  and  CAH_2 
REMARK    2  A    between atoms: CAH_2  and  CAB_3 
REMARK    3  A    between atoms: CAH_2  and  CAL_4 
REMARK    4  A    between atoms: CAI_7  and  OAC_8 
REMARK    5  A    between atoms: CAJ_9  and  OAD_10 
REMARK    6  A    between atoms: CAK_11  and  OAE_12 
ROOT
ATOM      1  CAL ZXD d           0.192  28.030  25.912  0.00  0.00     0.131 C 
ATOM      2  NAG ZXD d          -0.486  28.265  24.625  0.00  0.00    -0.066 N 
ATOM      3  CAF ZXD d          -1.414  27.165  24.315  0.00  0.00     0.108 C 
ATOM      4  CAI ZXD d          -2.494  27.110  25.404  0.00  0.00     0.086 C 
ATOM      5  CAJ ZXD d          -1.832  26.834  26.756  0.00  0.00     0.088 C 
ATOM      6  CAK ZXD d          -0.835  27.957  27.047  0.00  0.00     0.090 C 
ATOM      7  H8  ZXD d           0.700  27.056  25.856  0.00  0.00     0.089 H 
ATOM      8  H9  ZXD d           0.205  28.331  23.895  0.00  0.00     0.277 HD
ATOM      9  H10 ZXD d          -1.003  29.129  24.677  0.00  0.00     0.277 HD
ATOM     10  H11 ZXD d          -0.864  26.212  24.292  0.00  0.00     0.079 H 
ATOM     11  H12 ZXD d          -1.884  27.341  23.336  0.00  0.00     0.079 H 
ATOM     12  H13 ZXD d          -3.011  28.080  25.444  0.00  0.00     0.089 H 
ATOM     13  H15 ZXD d          -1.300  25.873  26.714  0.00  0.00     0.091 H 
ATOM     14  H17 ZXD d          -0.320  27.759  27.999  0.00  0.00     0.090 H 
ENDROOT
BRANCH   1  15
ATOM     15  CAH ZXD d           1.263  29.099  26.159  0.00  0.00    -0.031 C 
ATOM     16  H4  ZXD d           0.779  30.087  26.172  0.00  0.00     0.042 H 
BRANCH  15  17
ATOM     17  CAA ZXD d           1.939  28.851  27.511  0.00  0.00    -0.071 C 
ATOM     18  H1  ZXD d           1.545  27.925  27.954  0.00  0.00     0.028 H 
ATOM     19  H2  ZXD d           1.733  29.697  28.184  0.00  0.00     0.028 H 
ATOM     20  H3  ZXD d           3.025  28.755  27.366  0.00  0.00     0.028 H 
ENDBRANCH  15  17
BRANCH  15  21
ATOM     21  CAB ZXD d           2.328  29.081  25.059  0.00  0.00    -0.071 C 
ATOM     22  H5  ZXD d           3.275  29.469  25.459  0.00  0.00     0.028 H 
ATOM     23  H6  ZXD d           1.998  29.712  24.220  0.00  0.00     0.028 H 
ATOM     24  H7  ZXD d           2.474  28.050  24.706  0.00  0.00     0.028 H 
ENDBRANCH  15  21
ENDBRANCH   1  15
BRANCH   6  25
ATOM     25  OAE ZXD d          -1.541  29.196  27.128  0.00  0.00    -0.391 OA
ATOM     26  H18 ZXD d          -1.640  29.560  26.255  0.00  0.00     0.210 HD
ENDBRANCH   6  25
BRANCH   5  27
ATOM     27  OAD ZXD d          -2.825  26.777  27.781  0.00  0.00    -0.390 OA
ATOM     28  H16 ZXD d          -2.602  27.393  28.470  0.00  0.00     0.210 HD
ENDBRANCH   5  27
BRANCH   4  29
ATOM     29  OAC ZXD d          -3.450  26.086  25.116  0.00  0.00    -0.391 OA
ATOM     30  H14 ZXD d          -3.074  25.237  25.320  0.00  0.00     0.210 HD
ENDBRANCH   4  29
TORSDOF 6
ENDMDL
MODEL 4
REMARK VINA RESULT:      -5.4      1.787      4.066
REMARK  6 active torsions:
REMARK  status: ('A' for Active; 'I' for Inactive)
REMARK    1  A    between atoms: CAA_1  and  CAH_2 
REMARK    2  A    between atoms: CAH_2  and  CAB_3 
REMARK    3  A    between atoms: CAH_2  and  CAL_4 
REMARK    4  A    between atoms: CAI_7  and  OAC_8 
REMARK    5  A    between atoms: CAJ_9  and  OAD_10 
REMARK    6  A    between atoms: CAK_11  and  OAE_12 
ROOT
ATOM      1  CAL ZXD d          -1.764  27.768  26.385  0.00  0.00     0.131 C 
ATOM      2  NAG ZXD d          -1.147  29.071  26.688  0.00  0.00    -0.066 N 
ATOM      3  CAF ZXD d           0.318  28.999  26.553  0.00  0.00     0.108 C 
ATOM      4  CAI ZXD d           0.662  28.651  25.098  0.00  0.00     0.086 C 
ATOM      5  CAJ ZXD d           0.065  27.285  24.753  0.00  0.00     0.088 C 
ATOM      6  CAK ZXD d          -1.452  27.355  24.943  0.00  0.00     0.090 C 
ATOM      7  H8  ZXD d          -1.318  27.016  27.053  0.00  0.00     0.089 H 
ATOM      8  H9  ZXD d          -1.379  29.336  27.632  0.00  0.00     0.277 HD
ATOM      9  H10 ZXD d          -1.504  29.763  26.048  0.00  0.00     0.277 HD
ATOM     10  H11 ZXD d           0.714  28.221  27.222  0.00  0.00     0.079 H 
ATOM     11  H12 ZXD d           0.762  29.970  26.816  0.00  0.00     0.079 H 
ATOM     12  H13 ZXD d           0.229  29.414  24.435  0.00  0.00     0.089 H 
ATOM     13  H15 ZXD d           0.483  26.521  25.425  0.00  0.00     0.091 H 
ATOM     14  H17 ZXD d          -1.898  26.372  24.735  0.00  0.00     0.090 H 
ENDROOT
BRANCH   1  15
ATOM     15  CAH ZXD d          -3.270  27.807  26.670  0.00  0.00    -0.031 C 
ATOM     16  H4  ZXD d          -3.781  28.262  25.809  0.00  0.00     0.042 H 
BRANCH  15  17
ATOM     17  CAA ZXD d          -3.795  26.382  26.873  0.00  0.00    -0.071 C 
ATOM     18  H1  ZXD d          -3.550  25.772  25.991  0.00  0.00     0.028 H 
ATOM     19  H2  ZXD d          -4.887  26.410  27.008  0.00  0.00     0.028 H 
ATOM     20  H3  ZXD d          -3.327  25.942  27.766  0.00  0.00     0.028 H 
ENDBRANCH  15  17
BRANCH  15  21
ATOM     21  CAB ZXD d          -3.575  28.633  27.923  0.00  0.00    -0.071 C 
ATOM     22  H5  ZXD d          -4.642  28.899  27.935  0.00  0.00     0.028 H 
ATOM     23  H6  ZXD d          -2.969  29.551  27.913  0.00  0.00     0.028 H 
ATOM     24  H7  ZXD d          -3.334  28.044  28.820  0.00  0.00     0.028 H 
ENDBRANCH  15  21
ENDBRANCH   1  15
BRANCH   6  25
ATOM     25  OAE ZXD d          -1.988  28.329  24.045  0.00  0.00    -0.391 OA
ATOM     26  H18 ZXD d          -2.341  27.891  23.279  0.00  0.00     0.210 HD
ENDBRANCH   6  25
BRANCH   5  27
ATOM     27  OAD ZXD d           0.378  26.944  23.402  0.00  0.00    -0.390 OA
ATOM     28  H16 ZXD d          -0.163  27.457  22.813  0.00  0.00     0.210 HD
ENDBRANCH   5  27
BRANCH   4  29
ATOM     29  OAC ZXD d           2.079  28.621  24.907  0.00  0.00    -0.391 OA
ATOM     30  H14 ZXD d           2.511  28.914  25.701  0.00  0.00     0.210 HD
ENDBRANCH   4  29
TORSDOF 6
ENDMDL
MODEL 5
REMARK VINA RESULT:      -5.1      1.858      2.200
REMARK  6 active torsions:
REMARK  status: ('A' for Active; 'I' for Inactive)
REMARK    1  A    between atoms: CAA_1  and  CAH_2 
REMARK    2  A    between atoms: CAH_2  and  CAB_3 
REMARK    3  A    between atoms: CAH_2  and  CAL_4 
REMARK    4  A    between atoms: CAI_7  and  OAC_8 
REMARK    5  A    between atoms: CAJ_9  and  OAD_10 
REMARK    6  A    between atoms: CAK_11  and  OAE_12 
ROOT
ATOM      1  CAL ZXD d           0.131  28.880  25.982  0.00  0.00     0.131 C 
ATOM      2  NAG ZXD d          -0.477  29.543  27.148  0.00  0.00    -0.066 N 
ATOM      3  CAF ZXD d          -1.946  29.464  27.086  0.00  0.00     0.108 C 
ATOM      4  CAI ZXD d          -2.363  27.988  27.124  0.00  0.00     0.086 C 
ATOM      5  CAJ ZXD d          -1.776  27.269  25.907  0.00  0.00     0.088 C 
ATOM      6  CAK ZXD d          -0.252  27.397  25.954  0.00  0.00     0.090 C 
ATOM      7  H8  ZXD d          -0.275  29.348  25.073  0.00  0.00     0.089 H 
ATOM      8  H9  ZXD d          -0.198  30.511  27.161  0.00  0.00     0.277 HD
ATOM      9  H10 ZXD d          -0.157  29.090  27.990  0.00  0.00     0.277 HD
ATOM     10  H11 ZXD d          -2.302  29.925  26.153  0.00  0.00     0.079 H 
ATOM     11  H12 ZXD d          -2.382  29.994  27.946  0.00  0.00     0.079 H 
ATOM     12  H13 ZXD d          -1.969  27.528  28.042  0.00  0.00     0.089 H 
ATOM     13  H15 ZXD d          -2.154  27.736  24.986  0.00  0.00     0.091 H 
ATOM     14  H17 ZXD d           0.189  26.917  25.068  0.00  0.00     0.090 H 
ENDROOT
BRANCH   1  15
ATOM     15  CAH ZXD d           1.650  29.092  25.974  0.00  0.00    -0.031 C 
ATOM     16  H4  ZXD d           1.871  30.043  25.467  0.00  0.00     0.042 H 
BRANCH  15  17
ATOM     17  CAA ZXD d           2.172  29.155  27.413  0.00  0.00    -0.071 C 
ATOM     18  H1  ZXD d           2.494  30.182  27.641  0.00  0.00     0.028 H 
ATOM     19  H2  ZXD d           3.025  28.470  27.523  0.00  0.00     0.028 H 
ATOM     20  H3  ZXD d           1.372  28.858  28.106  0.00  0.00     0.028 H 
ENDBRANCH  15  17
BRANCH  15  21
ATOM     21  CAB ZXD d           2.364  27.957  25.234  0.00  0.00    -0.071 C 
ATOM     22  H5  ZXD d           1.975  26.990  25.584  0.00  0.00     0.028 H 
ATOM     23  H6  ZXD d           3.444  28.012  25.434  0.00  0.00     0.028 H 
ATOM     24  H7  ZXD d           2.185  28.055  24.153  0.00  0.00     0.028 H 
ENDBRANCH  15  21
ENDBRANCH   1  15
BRANCH   6  25
ATOM     25  OAE ZXD d           0.231  26.761  27.139  0.00  0.00    -0.391 OA
ATOM     26  H18 ZXD d          -0.506  26.454  27.655  0.00  0.00     0.210 HD
ENDBRANCH   6  25
BRANCH   5  27
ATOM     27  OAD ZXD d          -2.156  25.892  25.925  0.00  0.00    -0.390 OA
ATOM     28  H16 ZXD d          -3.008  25.805  26.337  0.00  0.00     0.210 HD
ENDBRANCH   5  27
BRANCH   4  29
ATOM     29  OAC ZXD d          -3.788  27.864  27.117  0.00  0.00    -0.391 OA
ATOM     30  H14 ZXD d          -4.107  27.854  28.012  0.00  0.00     0.210 HD
ENDBRANCH   4  29
TORSDOF 6
ENDMDL
MODEL 6
REMARK VINA RESULT:      -5.0      2.452      4.625
REMARK  6 active torsions:
REMARK  status: ('A' for Active; 'I' for Inactive)
REMARK    1  A    between atoms: CAA_1  and  CAH_2 
REMARK    2  A    between atoms: CAH_2  and  CAB_3 
REMARK    3  A    between atoms: CAH_2  and  CAL_4 
REMARK    4  A    between atoms: CAI_7  and  OAC_8 
REMARK    5  A    between atoms: CAJ_9  and  OAD_10 
REMARK    6  A    between atoms: CAK_11  and  OAE_12 
ROOT
ATOM      1  CAL ZXD d          -1.466  28.621  26.111  0.00  0.00     0.131 C 
ATOM      2  NAG ZXD d          -0.951  28.147  24.815  0.00  0.00    -0.066 N 
ATOM      3  CAF ZXD d           0.298  28.843  24.463  0.00  0.00     0.108 C 
ATOM      4  CAI ZXD d           1.357  28.522  25.525  0.00  0.00     0.086 C 
ATOM      5  CAJ ZXD d           0.874  29.029  26.886  0.00  0.00     0.088 C 
ATOM      6  CAK ZXD d          -0.449  28.337  27.222  0.00  0.00     0.090 C 
ATOM      7  H8  ZXD d          -1.597  29.711  26.048  0.00  0.00     0.089 H 
ATOM      8  H9  ZXD d          -1.641  28.323  24.102  0.00  0.00     0.277 HD
ATOM      9  H10 ZXD d          -0.773  27.156  24.872  0.00  0.00     0.277 HD
ATOM     10  H11 ZXD d           0.121  29.928  24.433  0.00  0.00     0.079 H 
ATOM     11  H12 ZXD d           0.647  28.500  23.477  0.00  0.00     0.079 H 
ATOM     12  H13 ZXD d           1.497  27.432  25.574  0.00  0.00     0.089 H 
ATOM     13  H15 ZXD d           0.716  30.116  26.837  0.00  0.00     0.091 H 
ATOM     14  H17 ZXD d          -0.833  28.714  28.181  0.00  0.00     0.090 H 
ENDROOT
BRANCH   1  15
ATOM     15  CAH ZXD d          -2.839  28.005  26.404  0.00  0.00    -0.031 C 
ATOM     16  H4  ZXD d          -3.617  28.664  25.991  0.00  0.00     0.042 H 
BRANCH  15  17
ATOM     17  CAA ZXD d          -2.940  26.628  25.739  0.00  0.00    -0.071 C 
ATOM     18  H1  ZXD d          -2.670  25.849  26.467  0.00  0.00     0.028 H 
ATOM     19  H2  ZXD d          -2.252  26.583  24.882  0.00  0.00     0.028 H 
ATOM     20  H3  ZXD d          -3.970  26.464  25.391  0.00  0.00     0.028 H 
ENDBRANCH  15  17
BRANCH  15  21
ATOM     21  CAB ZXD d          -3.067  27.849  27.910  0.00  0.00    -0.071 C 
ATOM     22  H5  ZXD d          -2.538  28.650  28.446  0.00  0.00     0.028 H 
ATOM     23  H6  ZXD d          -2.682  26.872  28.239  0.00  0.00     0.028 H 
ATOM     24  H7  ZXD d          -4.144  27.911  28.126  0.00  0.00     0.028 H 
ENDBRANCH  15  21
ENDBRANCH   1  15
BRANCH   6  25
ATOM     25  OAE ZXD d          -0.226  26.929  27.311  0.00  0.00    -0.391 OA
ATOM     26  H18 ZXD d          -0.893  26.471  26.812  0.00  0.00     0.210 HD
ENDBRANCH   6  25
BRANCH   5  27
ATOM     27  OAD ZXD d           1.850  28.741  27.888  0.00  0.00    -0.390 OA
ATOM     28  H16 ZXD d           1.526  29.024  28.735  0.00  0.00     0.210 HD
ENDBRANCH   5  27
BRANCH   4  29
ATOM     29  OAC ZXD d           2.606  29.136  25.197  0.00  0.00    -0.391 OA
ATOM     30  H14 ZXD d           2.798  29.818  25.830  0.00  0.00     0.210 HD
ENDBRANCH   4  29
TORSDOF 6
ENDMDL
MODEL 7
REMARK VINA RESULT:      -4.7      1.802      3.904
REMARK  6 active torsions:
REMARK  status: ('A' for Active; 'I' for Inactive)
REMARK    1  A    between atoms: CAA_1  and  CAH_2 
REMARK    2  A    between atoms: CAH_2  and  CAB_3 
REMARK    3  A    between atoms: CAH_2  and  CAL_4 
REMARK    4  A    between atoms: CAI_7  and  OAC_8 
REMARK    5  A    between atoms: CAJ_9  and  OAD_10 
REMARK    6  A    between atoms: CAK_11  and  OAE_12 
ROOT
ATOM      1  CAL ZXD d          -1.341  27.342  26.859  0.00  0.00     0.131 C 
ATOM      2  NAG ZXD d          -0.584  28.459  27.450  0.00  0.00    -0.066 N 
ATOM      3  CAF ZXD d           0.781  28.513  26.900  0.00  0.00     0.108 C 
ATOM      4  CAI ZXD d           0.694  28.762  25.388  0.00  0.00     0.086 C 
ATOM      5  CAJ ZXD d          -0.060  27.603  24.731  0.00  0.00     0.088 C 
ATOM      6  CAK ZXD d          -1.460  27.524  25.342  0.00  0.00     0.090 C 
ATOM      7  H8  ZXD d          -0.779  26.415  27.042  0.00  0.00     0.089 H 
ATOM      8  H9  ZXD d          -0.534  28.333  28.448  0.00  0.00     0.277 HD
ATOM      9  H10 ZXD d          -1.057  29.325  27.244  0.00  0.00     0.277 HD
ATOM     10  H11 ZXD d           1.294  27.558  27.089  0.00  0.00     0.079 H 
ATOM     11  H12 ZXD d           1.341  29.331  27.378  0.00  0.00     0.079 H 
ATOM     12  H13 ZXD d           0.146  29.698  25.210  0.00  0.00     0.089 H 
ATOM     13  H15 ZXD d           0.476  26.662  24.921  0.00  0.00     0.091 H 
ATOM     14  H17 ZXD d          -2.007  26.675  24.909  0.00  0.00     0.090 H 
ENDROOT
BRANCH   1  15
ATOM     15  CAH ZXD d          -2.707  27.199  27.540  0.00  0.00    -0.031 C 
ATOM     16  H4  ZXD d          -2.586  26.594  28.451  0.00  0.00     0.042 H 
BRANCH  15  17
ATOM     17  CAA ZXD d          -3.243  28.582  27.922  0.00  0.00    -0.071 C 
ATOM     18  H1  ZXD d          -3.396  28.628  29.010  0.00  0.00     0.028 H 
ATOM     19  H2  ZXD d          -4.201  28.758  27.410  0.00  0.00     0.028 H 
ATOM     20  H3  ZXD d          -2.519  29.353  27.620  0.00  0.00     0.028 H 
ENDBRANCH  15  17
BRANCH  15  21
ATOM     21  CAB ZXD d          -3.717  26.511  26.617  0.00  0.00    -0.071 C 
ATOM     22  H5  ZXD d          -3.532  26.818  25.578  0.00  0.00     0.028 H 
ATOM     23  H6  ZXD d          -4.737  26.800  26.910  0.00  0.00     0.028 H 
ATOM     24  H7  ZXD d          -3.607  25.419  26.701  0.00  0.00     0.028 H 
ENDBRANCH  15  21
ENDBRANCH   1  15
BRANCH   6  25
ATOM     25  OAE ZXD d          -2.157  28.740  25.065  0.00  0.00    -0.391 OA
ATOM     26  H18 ZXD d          -1.555  29.472  25.135  0.00  0.00     0.210 HD
ENDBRANCH   6  25
BRANCH   5  27
ATOM     27  OAD ZXD d          -0.148  27.817  23.322  0.00  0.00    -0.390 OA
ATOM     28  H16 ZXD d          -0.379  28.723  23.154  0.00  0.00     0.210 HD
ENDBRANCH   5  27
BRANCH   4  29
ATOM     29  OAC ZXD d           2.001  28.873  24.818  0.00  0.00    -0.391 OA
ATOM     30  H14 ZXD d           1.931  29.212  23.933  0.00  0.00     0.210 HD
ENDBRANCH   4  29
TORSDOF 6
ENDMDL
