MODEL 1
REMARK VINA RESULT:      -4.3      0.000      0.000
REMARK  13 active torsions:
REMARK  status: ('A' for Active; 'I' for Inactive)
REMARK    1  A    between atoms: C_1  and  CH3_3 
REMARK       I    between atoms: N_4  and  C_1 
REMARK    2  A    between atoms: CA_5  and  N_4 
REMARK    3  A    between atoms: C_6  and  CA_5 
REMARK    4  A    between atoms: CA_5  and  CB_8 
REMARK       I    between atoms: N_25  and  C_6 
REMARK    5  A    between atoms: CB_8  and  CG_9 
REMARK    6  A    between atoms: CZ_14  and  OH_15 
REMARK    7  A    between atoms: OH_15  and  P_16 
REMARK    8  A    between atoms: CA_22  and  C_23 
REMARK    9  A    between atoms: CA_22  and  N_25 
REMARK       I    between atoms: C_23  and  N_26 
REMARK   10  A    between atoms: N_26  and  CA_27 
REMARK   11  A    between atoms: CA_27  and  C_28 
REMARK   12  A    between atoms: CA_27  and  CB_30 
REMARK       I    between atoms: C_28  and  N_34 
REMARK   13  A    between atoms: CB_30  and  CG_31 
REMARK       I    between atoms: CG_31  and  ND2_33 
ROOT
ATOM      1  C   ACT d         -13.506  14.559  -2.136  0.00  0.00     0.241 C 
ATOM      2  O   ACT d         -12.719  15.495  -1.950  0.00  0.00    -0.271 OA
ATOM      3  N   ACT d         -14.070  14.289  -3.344  0.00  0.00    -0.341 N 
ATOM      4  H16 ACT d         -14.753  13.568  -3.461  0.00  0.00     0.163 HD
ENDROOT
BRANCH   1   5
ATOM      5  CA  ACT d         -13.942  13.631  -0.983  0.00  0.00     0.093 C 
ATOM      6  H5  ACT d         -14.818  13.037  -1.282  0.00  0.00     0.088 H 
BRANCH   5   7
ATOM      7  N   ACT d         -12.818  12.698  -0.615  0.00  0.00    -0.348 N 
ATOM      8  C   ACT d         -12.387  11.857  -1.514  0.00  0.00     0.214 C 
ATOM      9  O   ACT d         -12.783  11.805  -2.687  0.00  0.00    -0.274 OA
ATOM     10  H4  ACT d         -12.412  12.722   0.298  0.00  0.00     0.163 HD
BRANCH   8  11
ATOM     11  CH3 ACT d         -11.319  10.916  -1.036  0.00  0.00    -0.003 C 
ATOM     12  H1  ACT d         -10.537  10.827  -1.805  0.00  0.00     0.040 H 
ATOM     13  H2  ACT d         -11.759   9.927  -0.845  0.00  0.00     0.040 H 
ATOM     14  H3  ACT d         -10.876  11.305  -0.107  0.00  0.00     0.040 H 
ENDBRANCH   8  11
ENDBRANCH   5   7
BRANCH   5  15
ATOM     15  CB  ACT d         -14.312  14.562   0.175  0.00  0.00    -0.014 C 
ATOM     16  H6  ACT d         -15.366  14.416   0.455  0.00  0.00     0.043 H 
ATOM     17  H7  ACT d         -14.152  15.610  -0.118  0.00  0.00     0.043 H 
BRANCH  15  18
ATOM     18  CG  ACT d         -13.386  14.194   1.370  0.00  0.00    -0.056 A 
ATOM     19  CD1 ACT d         -13.904  13.414   2.385  0.00  0.00    -0.074 A 
ATOM     20  CE1 ACT d         -13.162  13.088   3.494  0.00  0.00    -0.050 A 
ATOM     21  H8  ACT d         -14.922  13.050   2.305  0.00  0.00     0.084 H 
ATOM     22  CZ  ACT d         -11.879  13.604   3.669  0.00  0.00     0.082 A 
ATOM     23  H10 ACT d         -13.579  12.422   4.241  0.00  0.00     0.087 H 
ATOM     24  CE2 ACT d         -11.368  14.398   2.640  0.00  0.00    -0.050 A 
ATOM     25  CD2 ACT d         -12.088  14.702   1.469  0.00  0.00    -0.074 A 
ATOM     26  H11 ACT d         -10.367  14.801   2.749  0.00  0.00     0.087 H 
ATOM     27  H9  ACT d         -11.654  15.304   0.678  0.00  0.00     0.084 H 
BRANCH  22  28
ATOM     28  OH  ACT d         -11.207  13.285   4.855  0.00  0.00    -0.240 OA
BRANCH  28  29
ATOM     29  P   ACT d          -9.830  12.408   4.929  0.00  0.00     0.427 P 
ATOM     30  O1P ACT d         -10.178  11.487   6.136  0.00  0.00    -0.617 OA
ATOM     31  O2P ACT d          -9.755  11.627   3.661  0.00  0.00    -0.617 OA
ATOM     32  O3P ACT d          -8.776  13.315   5.312  0.00  0.00    -0.617 OA
ENDBRANCH  28  29
ENDBRANCH  22  28
ENDBRANCH  15  18
ENDBRANCH   5  15
ENDBRANCH   1   5
BRANCH   3  33
ATOM     33  CA  ACT d         -13.626  15.098  -4.435  0.00  0.00     0.114 A 
ATOM     34  CB  ACT d         -14.647  15.571  -5.413  0.00  0.00    -0.030 A 
ATOM     35  CG  ACT d         -14.052  16.557  -4.439  0.00  0.00    -0.030 A 
ATOM     36  H12 ACT d         -14.393  15.636  -6.481  0.00  0.00     0.037 H 
ATOM     37  H13 ACT d         -15.696  15.258  -5.303  0.00  0.00     0.037 H 
ATOM     38  H14 ACT d         -14.662  16.956  -3.616  0.00  0.00     0.037 H 
ATOM     39  H15 ACT d         -13.359  17.334  -4.793  0.00  0.00     0.037 H 
BRANCH  33  40
ATOM     40  C   ACT d         -12.176  14.924  -4.840  0.00  0.00     0.246 C 
ATOM     41  O   ACT d         -11.659  15.701  -5.672  0.00  0.00    -0.271 OA
ATOM     42  N   ACT d         -11.490  13.910  -4.289  0.00  0.00    -0.345 N 
ATOM     43  H17 ACT d         -11.937  13.348  -3.593  0.00  0.00     0.163 HD
BRANCH  42  44
ATOM     44  CA  ACT d         -10.132  13.600  -4.665  0.00  0.00     0.097 C 
ATOM     45  H18 ACT d          -9.744  14.420  -5.287  0.00  0.00     0.088 H 
BRANCH  44  46
ATOM     46  C   ACT d         -10.113  12.301  -5.513  0.00  0.00     0.238 C 
ATOM     47  O   ACT d         -11.112  11.555  -5.516  0.00  0.00    -0.271 OA
ATOM     48  N   ACT d          -8.995  11.985  -6.184  0.00  0.00    -0.368 N 
ATOM     49  H23 ACT d          -8.962  11.152  -6.736  0.00  0.00     0.159 HD
ATOM     50  H24 ACT d          -8.195  12.582  -6.132  0.00  0.00     0.159 HD
ENDBRANCH  44  46
BRANCH  44  51
ATOM     51  CB  ACT d          -9.247  13.496  -3.407  0.00  0.00     0.036 C 
ATOM     52  H19 ACT d          -8.193  13.456  -3.722  0.00  0.00     0.051 H 
ATOM     53  H20 ACT d          -9.505  12.571  -2.872  0.00  0.00     0.051 H 
BRANCH  51  54
ATOM     54  CG  ACT d          -9.427  14.679  -2.452  0.00  0.00     0.217 C 
ATOM     55  OD1 ACT d          -9.258  15.817  -2.872  0.00  0.00    -0.274 OA
ATOM     56  ND2 ACT d          -9.786  14.373  -1.187  0.00  0.00    -0.370 N 
ATOM     57  H21 ACT d          -9.918  15.101  -0.515  0.00  0.00     0.159 HD
ATOM     58  H22 ACT d          -9.918  13.417  -0.921  0.00  0.00     0.159 HD
ENDBRANCH  51  54
ENDBRANCH  44  51
ENDBRANCH  42  44
ENDBRANCH  33  40
ENDBRANCH   3  33
TORSDOF 13
ENDMDL
MODEL 2
REMARK VINA RESULT:      -3.6      2.634      3.876
REMARK  13 active torsions:
REMARK  status: ('A' for Active; 'I' for Inactive)
REMARK    1  A    between atoms: C_1  and  CH3_3 
REMARK       I    between atoms: N_4  and  C_1 
REMARK    2  A    between atoms: CA_5  and  N_4 
REMARK    3  A    between atoms: C_6  and  CA_5 
REMARK    4  A    between atoms: CA_5  and  CB_8 
REMARK       I    between atoms: N_25  and  C_6 
REMARK    5  A    between atoms: CB_8  and  CG_9 
REMARK    6  A    between atoms: CZ_14  and  OH_15 
REMARK    7  A    between atoms: OH_15  and  P_16 
REMARK    8  A    between atoms: CA_22  and  C_23 
REMARK    9  A    between atoms: CA_22  and  N_25 
REMARK       I    between atoms: C_23  and  N_26 
REMARK   10  A    between atoms: N_26  and  CA_27 
REMARK   11  A    between atoms: CA_27  and  C_28 
REMARK   12  A    between atoms: CA_27  and  CB_30 
REMARK       I    between atoms: C_28  and  N_34 
REMARK   13  A    between atoms: CB_30  and  CG_31 
REMARK       I    between atoms: CG_31  and  ND2_33 
ROOT
ATOM      1  C   ACT d         -12.468  13.317  -0.262  0.00  0.00     0.241 C 
ATOM      2  O   ACT d         -13.665  13.117  -0.021  0.00  0.00    -0.271 OA
ATOM      3  N   ACT d         -12.011  14.436  -0.884  0.00  0.00    -0.341 N 
ATOM      4  H16 ACT d         -11.048  14.552  -1.127  0.00  0.00     0.163 HD
ENDROOT
BRANCH   1   5
ATOM      5  CA  ACT d         -11.388  12.278   0.103  0.00  0.00     0.093 C 
ATOM      6  H5  ACT d         -11.854  11.371   0.516  0.00  0.00     0.088 H 
BRANCH   5   7
ATOM      7  N   ACT d         -10.591  11.905  -1.120  0.00  0.00    -0.348 N 
ATOM      8  C   ACT d         -11.088  11.022  -1.942  0.00  0.00     0.214 C 
ATOM      9  O   ACT d         -12.208  10.505  -1.838  0.00  0.00    -0.274 OA
ATOM     10  H4  ACT d          -9.701  12.324  -1.298  0.00  0.00     0.163 HD
BRANCH   8  11
ATOM     11  CH3 ACT d         -10.192  10.657  -3.091  0.00  0.00    -0.003 C 
ATOM     12  H1  ACT d         -10.297   9.584  -3.311  0.00  0.00     0.040 H 
ATOM     13  H2  ACT d          -9.148  10.878  -2.827  0.00  0.00     0.040 H 
ATOM     14  H3  ACT d         -10.477  11.243  -3.978  0.00  0.00     0.040 H 
ENDBRANCH   8  11
ENDBRANCH   5   7
BRANCH   5  15
ATOM     15  CB  ACT d         -10.517  12.949   1.168  0.00  0.00    -0.014 C 
ATOM     16  H6  ACT d          -9.934  13.767   0.720  0.00  0.00     0.043 H 
ATOM     17  H7  ACT d          -9.832  12.213   1.615  0.00  0.00     0.043 H 
BRANCH  15  18
ATOM     18  CG  ACT d         -11.478  13.513   2.255  0.00  0.00    -0.056 A 
ATOM     19  CD1 ACT d         -11.515  14.879   2.453  0.00  0.00    -0.074 A 
ATOM     20  CE1 ACT d         -12.303  15.445   3.425  0.00  0.00    -0.050 A 
ATOM     21  H8  ACT d         -10.906  15.520   1.826  0.00  0.00     0.084 H 
ATOM     22  CZ  ACT d         -13.036  14.647   4.301  0.00  0.00     0.082 A 
ATOM     23  H10 ACT d         -12.355  16.524   3.511  0.00  0.00     0.087 H 
ATOM     24  CE2 ACT d         -12.985  13.266   4.097  0.00  0.00    -0.050 A 
ATOM     25  CD2 ACT d         -12.228  12.664   3.074  0.00  0.00    -0.074 A 
ATOM     26  H11 ACT d         -13.557  12.626   4.759  0.00  0.00     0.087 H 
ATOM     27  H9  ACT d         -12.227  11.590   2.928  0.00  0.00     0.084 H 
BRANCH  22  28
ATOM     28  OH  ACT d         -13.764  15.289   5.311  0.00  0.00    -0.240 OA
BRANCH  28  29
ATOM     29  P   ACT d         -15.395  15.346   5.380  0.00  0.00     0.427 P 
ATOM     30  O1P ACT d         -15.681  13.896   5.872  0.00  0.00    -0.617 OA
ATOM     31  O2P ACT d         -15.740  16.348   6.430  0.00  0.00    -0.617 OA
ATOM     32  O3P ACT d         -15.867  15.490   4.025  0.00  0.00    -0.617 OA
ENDBRANCH  28  29
ENDBRANCH  22  28
ENDBRANCH  15  18
ENDBRANCH   5  15
ENDBRANCH   1   5
BRANCH   3  33
ATOM     33  CA  ACT d         -12.990  15.437  -1.168  0.00  0.00     0.114 A 
ATOM     34  CB  ACT d         -13.904  15.851  -0.065  0.00  0.00    -0.030 A 
ATOM     35  CG  ACT d         -12.812  16.794  -0.506  0.00  0.00    -0.030 A 
ATOM     36  H12 ACT d         -14.955  16.090  -0.286  0.00  0.00     0.037 H 
ATOM     37  H13 ACT d         -13.838  15.357   0.915  0.00  0.00     0.037 H 
ATOM     38  H14 ACT d         -11.947  16.980   0.147  0.00  0.00     0.037 H 
ATOM     39  H15 ACT d         -13.064  17.714  -1.054  0.00  0.00     0.037 H 
BRANCH  33  40
ATOM     40  C   ACT d         -13.409  15.559  -2.619  0.00  0.00     0.246 C 
ATOM     41  O   ACT d         -14.614  15.714  -2.914  0.00  0.00    -0.271 OA
ATOM     42  N   ACT d         -12.451  15.478  -3.556  0.00  0.00    -0.345 N 
ATOM     43  H17 ACT d         -11.497  15.403  -3.264  0.00  0.00     0.163 HD
BRANCH  42  44
ATOM     44  CA  ACT d         -12.745  15.496  -4.968  0.00  0.00     0.097 C 
ATOM     45  H18 ACT d         -13.416  16.342  -5.176  0.00  0.00     0.088 H 
BRANCH  44  46
ATOM     46  C   ACT d         -13.482  14.188  -5.360  0.00  0.00     0.238 C 
ATOM     47  O   ACT d         -12.909  13.091  -5.205  0.00  0.00    -0.271 OA
ATOM     48  N   ACT d         -14.704  14.275  -5.907  0.00  0.00    -0.368 N 
ATOM     49  H23 ACT d         -15.195  13.444  -6.167  0.00  0.00     0.159 HD
ATOM     50  H24 ACT d         -15.122  15.171  -6.055  0.00  0.00     0.159 HD
ENDBRANCH  44  46
BRANCH  44  51
ATOM     51  CB  ACT d         -11.448  15.707  -5.775  0.00  0.00     0.036 C 
ATOM     52  H19 ACT d         -11.322  16.784  -5.960  0.00  0.00     0.051 H 
ATOM     53  H20 ACT d         -11.543  15.178  -6.735  0.00  0.00     0.051 H 
BRANCH  51  54
ATOM     54  CG  ACT d         -10.204  15.187  -5.051  0.00  0.00     0.217 C 
ATOM     55  OD1 ACT d          -9.600  15.931  -4.289  0.00  0.00    -0.274 OA
ATOM     56  ND2 ACT d          -9.865  13.904  -5.300  0.00  0.00    -0.370 N 
ATOM     57  H21 ACT d          -9.061  13.505  -4.858  0.00  0.00     0.159 HD
ATOM     58  H22 ACT d         -10.416  13.352  -5.926  0.00  0.00     0.159 HD
ENDBRANCH  51  54
ENDBRANCH  44  51
ENDBRANCH  42  44
ENDBRANCH  33  40
ENDBRANCH   3  33
TORSDOF 13
ENDMDL
MODEL 3
REMARK VINA RESULT:      -2.8      1.677      2.500
REMARK  13 active torsions:
REMARK  status: ('A' for Active; 'I' for Inactive)
REMARK    1  A    between atoms: C_1  and  CH3_3 
REMARK       I    between atoms: N_4  and  C_1 
REMARK    2  A    between atoms: CA_5  and  N_4 
REMARK    3  A    between atoms: C_6  and  CA_5 
REMARK    4  A    between atoms: CA_5  and  CB_8 
REMARK       I    between atoms: N_25  and  C_6 
REMARK    5  A    between atoms: CB_8  and  CG_9 
REMARK    6  A    between atoms: CZ_14  and  OH_15 
REMARK    7  A    between atoms: OH_15  and  P_16 
REMARK    8  A    between atoms: CA_22  and  C_23 
REMARK    9  A    between atoms: CA_22  and  N_25 
REMARK       I    between atoms: C_23  and  N_26 
REMARK   10  A    between atoms: N_26  and  CA_27 
REMARK   11  A    between atoms: CA_27  and  C_28 
REMARK   12  A    between atoms: CA_27  and  CB_30 
REMARK       I    between atoms: C_28  and  N_34 
REMARK   13  A    between atoms: CB_30  and  CG_31 
REMARK       I    between atoms: CG_31  and  ND2_33 
ROOT
ATOM      1  C   ACT d         -12.515  15.215  -2.797  0.00  0.00     0.241 C 
ATOM      2  O   ACT d         -11.538  15.793  -3.289  0.00  0.00    -0.271 OA
ATOM      3  N   ACT d         -13.445  14.560  -3.543  0.00  0.00    -0.341 N 
ATOM      4  H16 ACT d         -14.262  14.152  -3.134  0.00  0.00     0.163 HD
ENDROOT
BRANCH   1   5
ATOM      5  CA  ACT d         -12.775  15.221  -1.277  0.00  0.00     0.093 C 
ATOM      6  H5  ACT d         -12.084  15.914  -0.775  0.00  0.00     0.088 H 
BRANCH   5   7
ATOM      7  N   ACT d         -14.191  15.650  -0.993  0.00  0.00    -0.348 N 
ATOM      8  C   ACT d         -14.424  16.362   0.074  0.00  0.00     0.214 C 
ATOM      9  O   ACT d         -13.557  16.782   0.852  0.00  0.00    -0.274 OA
ATOM     10  H4  ACT d         -14.936  15.394  -1.609  0.00  0.00     0.163 HD
BRANCH   8  11
ATOM     11  CH3 ACT d         -15.872  16.680   0.316  0.00  0.00    -0.003 C 
ATOM     12  H1  ACT d         -16.009  16.991   1.362  0.00  0.00     0.040 H 
ATOM     13  H2  ACT d         -16.482  15.786   0.117  0.00  0.00     0.040 H 
ATOM     14  H3  ACT d         -16.186  17.493  -0.354  0.00  0.00     0.040 H 
ENDBRANCH   8  11
ENDBRANCH   5   7
BRANCH   5  15
ATOM     15  CB  ACT d         -12.508  13.788  -0.810  0.00  0.00    -0.014 C 
ATOM     16  H6  ACT d         -11.882  13.261  -1.544  0.00  0.00     0.043 H 
ATOM     17  H7  ACT d         -13.459  13.249  -0.684  0.00  0.00     0.043 H 
BRANCH  15  18
ATOM     18  CG  ACT d         -11.765  13.883   0.554  0.00  0.00    -0.056 A 
ATOM     19  CD1 ACT d         -12.273  13.181   1.629  0.00  0.00    -0.074 A 
ATOM     20  CE1 ACT d         -11.698  13.253   2.874  0.00  0.00    -0.050 A 
ATOM     21  H8  ACT d         -13.147  12.556   1.486  0.00  0.00     0.084 H 
ATOM     22  CZ  ACT d         -10.623  14.107   3.113  0.00  0.00     0.082 A 
ATOM     23  H10 ACT d         -12.085  12.639   3.679  0.00  0.00     0.087 H 
ATOM     24  CE2 ACT d         -10.122  14.819   2.021  0.00  0.00    -0.050 A 
ATOM     25  CD2 ACT d         -10.659  14.721   0.724  0.00  0.00    -0.074 A 
ATOM     26  H11 ACT d          -9.278  15.481   2.181  0.00  0.00     0.087 H 
ATOM     27  H9  ACT d         -10.233  15.271  -0.108  0.00  0.00     0.084 H 
BRANCH  22  28
ATOM     28  OH  ACT d         -10.131  14.182   4.422  0.00  0.00    -0.240 OA
BRANCH  28  29
ATOM     29  P   ACT d          -9.077  13.117   5.076  0.00  0.00     0.427 P 
ATOM     30  O1P ACT d         -10.083  12.165   5.787  0.00  0.00    -0.617 OA
ATOM     31  O2P ACT d          -8.403  12.433   3.934  0.00  0.00    -0.617 OA
ATOM     32  O3P ACT d          -8.319  13.836   6.070  0.00  0.00    -0.617 OA
ENDBRANCH  28  29
ENDBRANCH  22  28
ENDBRANCH  15  18
ENDBRANCH   5  15
ENDBRANCH   1   5
BRANCH   3  33
ATOM     33  CA  ACT d         -13.183  14.488  -4.946  0.00  0.00     0.114 A 
ATOM     34  CB  ACT d         -14.339  14.271  -5.861  0.00  0.00    -0.030 A 
ATOM     35  CG  ACT d         -13.691  15.631  -5.809  0.00  0.00    -0.030 A 
ATOM     36  H12 ACT d         -14.219  13.641  -6.755  0.00  0.00     0.037 H 
ATOM     37  H13 ACT d         -15.347  14.129  -5.444  0.00  0.00     0.037 H 
ATOM     38  H14 ACT d         -14.221  16.478  -5.348  0.00  0.00     0.037 H 
ATOM     39  H15 ACT d         -13.092  15.992  -6.658  0.00  0.00     0.037 H 
BRANCH  33  40
ATOM     40  C   ACT d         -11.784  14.055  -5.336  0.00  0.00     0.246 C 
ATOM     41  O   ACT d         -11.099  14.764  -6.106  0.00  0.00    -0.271 OA
ATOM     42  N   ACT d         -11.328  12.893  -4.842  0.00  0.00    -0.345 N 
ATOM     43  H17 ACT d         -11.897  12.390  -4.192  0.00  0.00     0.163 HD
BRANCH  42  44
ATOM     44  CA  ACT d         -10.047  12.344  -5.213  0.00  0.00     0.097 C 
ATOM     45  H18 ACT d         -10.017  12.231  -6.307  0.00  0.00     0.088 H 
BRANCH  44  46
ATOM     46  C   ACT d          -9.884  10.937  -4.580  0.00  0.00     0.238 C 
ATOM     47  O   ACT d         -10.744  10.521  -3.779  0.00  0.00    -0.271 OA
ATOM     48  N   ACT d          -8.787  10.221  -4.872  0.00  0.00    -0.368 N 
ATOM     49  H23 ACT d          -8.663   9.312  -4.474  0.00  0.00     0.159 HD
ATOM     50  H24 ACT d          -8.095  10.596  -5.488  0.00  0.00     0.159 HD
ENDBRANCH  44  46
BRANCH  44  51
ATOM     51  CB  ACT d          -8.918  13.310  -4.802  0.00  0.00     0.036 C 
ATOM     52  H19 ACT d          -9.108  14.289  -5.268  0.00  0.00     0.051 H 
ATOM     53  H20 ACT d          -7.962  12.908  -5.169  0.00  0.00     0.051 H 
BRANCH  51  54
ATOM     54  CG  ACT d          -8.819  13.501  -3.287  0.00  0.00     0.217 C 
ATOM     55  OD1 ACT d          -9.622  12.931  -2.559  0.00  0.00    -0.274 OA
ATOM     56  ND2 ACT d          -7.814  14.291  -2.852  0.00  0.00    -0.370 N 
ATOM     57  H21 ACT d          -7.696  14.455  -1.873  0.00  0.00     0.159 HD
ATOM     58  H22 ACT d          -7.188  14.713  -3.509  0.00  0.00     0.159 HD
ENDBRANCH  51  54
ENDBRANCH  44  51
ENDBRANCH  42  44
ENDBRANCH  33  40
ENDBRANCH   3  33
TORSDOF 13
ENDMDL
MODEL 4
REMARK VINA RESULT:      -2.5      3.072      6.258
REMARK  13 active torsions:
REMARK  status: ('A' for Active; 'I' for Inactive)
REMARK    1  A    between atoms: C_1  and  CH3_3 
REMARK       I    between atoms: N_4  and  C_1 
REMARK    2  A    between atoms: CA_5  and  N_4 
REMARK    3  A    between atoms: C_6  and  CA_5 
REMARK    4  A    between atoms: CA_5  and  CB_8 
REMARK       I    between atoms: N_25  and  C_6 
REMARK    5  A    between atoms: CB_8  and  CG_9 
REMARK    6  A    between atoms: CZ_14  and  OH_15 
REMARK    7  A    between atoms: OH_15  and  P_16 
REMARK    8  A    between atoms: CA_22  and  C_23 
REMARK    9  A    between atoms: CA_22  and  N_25 
REMARK       I    between atoms: C_23  and  N_26 
REMARK   10  A    between atoms: N_26  and  CA_27 
REMARK   11  A    between atoms: CA_27  and  C_28 
REMARK   12  A    between atoms: CA_27  and  CB_30 
REMARK       I    between atoms: C_28  and  N_34 
REMARK   13  A    between atoms: CB_30  and  CG_31 
REMARK       I    between atoms: CG_31  and  ND2_33 
ROOT
ATOM      1  C   ACT d         -10.861  13.180   0.944  0.00  0.00     0.241 C 
ATOM      2  O   ACT d         -11.122  11.996   1.190  0.00  0.00    -0.271 OA
ATOM      3  N   ACT d         -10.514  13.624  -0.294  0.00  0.00    -0.341 N 
ATOM      4  H16 ACT d         -10.244  14.573  -0.461  0.00  0.00     0.163 HD
ENDROOT
BRANCH   1   5
ATOM      5  CA  ACT d         -10.880  14.256   2.049  0.00  0.00     0.093 C 
ATOM      6  H5  ACT d         -11.877  14.311   2.511  0.00  0.00     0.088 H 
BRANCH   5   7
ATOM      7  N   ACT d          -9.864  13.928   3.112  0.00  0.00    -0.348 N 
ATOM      8  C   ACT d         -10.290  13.535   4.280  0.00  0.00     0.214 C 
ATOM      9  O   ACT d         -11.477  13.341   4.576  0.00  0.00    -0.274 OA
ATOM     10  H4  ACT d          -8.885  14.009   2.925  0.00  0.00     0.163 HD
BRANCH   8  11
ATOM     11  CH3 ACT d          -9.211  13.303   5.298  0.00  0.00    -0.003 C 
ATOM     12  H1  ACT d          -9.643  12.815   6.185  0.00  0.00     0.040 H 
ATOM     13  H2  ACT d          -8.768  14.266   5.590  0.00  0.00     0.040 H 
ATOM     14  H3  ACT d          -8.432  12.658   4.867  0.00  0.00     0.040 H 
ENDBRANCH   8  11
ENDBRANCH   5   7
BRANCH   5  15
ATOM     15  CB  ACT d         -10.559  15.576   1.341  0.00  0.00    -0.014 C 
ATOM     16  H6  ACT d          -9.576  15.514   0.854  0.00  0.00     0.043 H 
ATOM     17  H7  ACT d         -10.558  16.402   2.067  0.00  0.00     0.043 H 
BRANCH  15  18
ATOM     18  CG  ACT d         -11.670  15.804   0.275  0.00  0.00    -0.056 A 
ATOM     19  CD1 ACT d         -11.308  16.341  -0.944  0.00  0.00    -0.074 A 
ATOM     20  CE1 ACT d         -12.239  16.614  -1.916  0.00  0.00    -0.050 A 
ATOM     21  H8  ACT d         -10.263  16.553  -1.138  0.00  0.00     0.084 H 
ATOM     22  CZ  ACT d         -13.599  16.429  -1.672  0.00  0.00     0.082 A 
ATOM     23  H10 ACT d         -11.913  16.977  -2.884  0.00  0.00     0.087 H 
ATOM     24  CE2 ACT d         -13.954  15.892  -0.432  0.00  0.00    -0.050 A 
ATOM     25  CD2 ACT d         -13.016  15.554   0.560  0.00  0.00    -0.074 A 
ATOM     26  H11 ACT d         -15.006  15.729  -0.224  0.00  0.00     0.087 H 
ATOM     27  H9  ACT d         -13.322  15.118   1.505  0.00  0.00     0.084 H 
BRANCH  22  28
ATOM     28  OH  ACT d         -14.496  16.793  -2.684  0.00  0.00    -0.240 OA
BRANCH  28  29
ATOM     29  P   ACT d         -14.475  16.185  -4.200  0.00  0.00     0.427 P 
ATOM     30  O1P ACT d         -14.244  14.681  -3.870  0.00  0.00    -0.617 OA
ATOM     31  O2P ACT d         -15.836  16.409  -4.767  0.00  0.00    -0.617 OA
ATOM     32  O3P ACT d         -13.299  16.715  -4.846  0.00  0.00    -0.617 OA
ENDBRANCH  28  29
ENDBRANCH  22  28
ENDBRANCH  15  18
ENDBRANCH   5  15
ENDBRANCH   1   5
BRANCH   3  33
ATOM     33  CA  ACT d         -10.556  12.652  -1.341  0.00  0.00     0.114 A 
ATOM     34  CB  ACT d         -11.349  11.412  -1.109  0.00  0.00    -0.030 A 
ATOM     35  CG  ACT d         -11.883  12.457  -2.056  0.00  0.00    -0.030 A 
ATOM     36  H12 ACT d         -10.989  10.450  -1.502  0.00  0.00     0.037 H 
ATOM     37  H13 ACT d         -11.842  11.250  -0.138  0.00  0.00     0.037 H 
ATOM     38  H14 ACT d         -12.757  13.063  -1.774  0.00  0.00     0.037 H 
ATOM     39  H15 ACT d         -11.904  12.263  -3.138  0.00  0.00     0.037 H 
BRANCH  33  40
ATOM     40  C   ACT d          -9.385  12.664  -2.301  0.00  0.00     0.246 C 
ATOM     41  O   ACT d          -8.639  13.666  -2.371  0.00  0.00    -0.271 OA
ATOM     42  N   ACT d          -9.196  11.581  -3.071  0.00  0.00    -0.345 N 
ATOM     43  H17 ACT d          -9.791  10.788  -2.942  0.00  0.00     0.163 HD
BRANCH  42  44
ATOM     44  CA  ACT d          -8.166  11.517  -4.079  0.00  0.00     0.097 C 
ATOM     45  H18 ACT d          -7.251  11.977  -3.676  0.00  0.00     0.088 H 
BRANCH  44  46
ATOM     46  C   ACT d          -8.607  12.332  -5.323  0.00  0.00     0.238 C 
ATOM     47  O   ACT d          -7.752  12.693  -6.156  0.00  0.00    -0.271 OA
ATOM     48  N   ACT d          -9.899  12.674  -5.446  0.00  0.00    -0.368 N 
ATOM     49  H23 ACT d         -10.204  13.199  -6.240  0.00  0.00     0.159 HD
ATOM     50  H24 ACT d         -10.556  12.404  -4.743  0.00  0.00     0.159 HD
ENDBRANCH  44  46
BRANCH  44  51
ATOM     51  CB  ACT d          -7.849  10.047  -4.419  0.00  0.00     0.036 C 
ATOM     52  H19 ACT d          -7.197   9.638  -3.632  0.00  0.00     0.051 H 
ATOM     53  H20 ACT d          -7.323  10.016  -5.384  0.00  0.00     0.051 H 
BRANCH  51  54
ATOM     54  CG  ACT d          -9.102   9.175  -4.517  0.00  0.00     0.217 C 
ATOM     55  OD1 ACT d          -9.685   8.846  -3.491  0.00  0.00    -0.274 OA
ATOM     56  ND2 ACT d          -9.495   8.836  -5.764  0.00  0.00    -0.370 N 
ATOM     57  H21 ACT d         -10.306   8.266  -5.895  0.00  0.00     0.159 HD
ATOM     58  H22 ACT d          -8.973   9.153  -6.556  0.00  0.00     0.159 HD
ENDBRANCH  51  54
ENDBRANCH  44  51
ENDBRANCH  42  44
ENDBRANCH  33  40
ENDBRANCH   3  33
TORSDOF 13
ENDMDL
MODEL 5
REMARK VINA RESULT:      -2.4      3.147      7.531
REMARK  13 active torsions:
REMARK  status: ('A' for Active; 'I' for Inactive)
REMARK    1  A    between atoms: C_1  and  CH3_3 
REMARK       I    between atoms: N_4  and  C_1 
REMARK    2  A    between atoms: CA_5  and  N_4 
REMARK    3  A    between atoms: C_6  and  CA_5 
REMARK    4  A    between atoms: CA_5  and  CB_8 
REMARK       I    between atoms: N_25  and  C_6 
REMARK    5  A    between atoms: CB_8  and  CG_9 
REMARK    6  A    between atoms: CZ_14  and  OH_15 
REMARK    7  A    between atoms: OH_15  and  P_16 
REMARK    8  A    between atoms: CA_22  and  C_23 
REMARK    9  A    between atoms: CA_22  and  N_25 
REMARK       I    between atoms: C_23  and  N_26 
REMARK   10  A    between atoms: N_26  and  CA_27 
REMARK   11  A    between atoms: CA_27  and  C_28 
REMARK   12  A    between atoms: CA_27  and  CB_30 
REMARK       I    between atoms: C_28  and  N_34 
REMARK   13  A    between atoms: CB_30  and  CG_31 
REMARK       I    between atoms: CG_31  and  ND2_33 
ROOT
ATOM      1  C   ACT d         -13.541  13.562   0.579  0.00  0.00     0.241 C 
ATOM      2  O   ACT d         -13.764  14.751   0.315  0.00  0.00    -0.271 OA
ATOM      3  N   ACT d         -13.498  13.077   1.848  0.00  0.00    -0.341 N 
ATOM      4  H16 ACT d         -13.254  12.128   2.045  0.00  0.00     0.163 HD
ENDROOT
BRANCH   1   5
ATOM      5  CA  ACT d         -13.260  12.529  -0.532  0.00  0.00     0.093 C 
ATOM      6  H5  ACT d         -13.935  11.667  -0.430  0.00  0.00     0.088 H 
BRANCH   5   7
ATOM      7  N   ACT d         -13.463  13.154  -1.887  0.00  0.00    -0.348 N 
ATOM      8  C   ACT d         -14.680  13.411  -2.278  0.00  0.00     0.214 C 
ATOM      9  O   ACT d         -15.698  13.245  -1.592  0.00  0.00    -0.274 OA
ATOM     10  H4  ACT d         -12.682  13.368  -2.474  0.00  0.00     0.163 HD
BRANCH   8  11
ATOM     11  CH3 ACT d         -14.791  13.963  -3.671  0.00  0.00    -0.003 C 
ATOM     12  H1  ACT d         -13.800  14.293  -4.014  0.00  0.00     0.040 H 
ATOM     13  H2  ACT d         -15.483  14.818  -3.672  0.00  0.00     0.040 H 
ATOM     14  H3  ACT d         -15.172  13.183  -4.345  0.00  0.00     0.040 H 
ENDBRANCH   8  11
ENDBRANCH   5   7
BRANCH   5  15
ATOM     15  CB  ACT d         -11.810  12.085  -0.320  0.00  0.00    -0.014 C 
ATOM     16  H6  ACT d         -11.726  10.996  -0.450  0.00  0.00     0.043 H 
ATOM     17  H7  ACT d         -11.474  12.361   0.691  0.00  0.00     0.043 H 
BRANCH  15  18
ATOM     18  CG  ACT d         -10.947  12.818  -1.388  0.00  0.00    -0.056 A 
ATOM     19  CD1 ACT d         -10.624  12.141  -2.547  0.00  0.00    -0.074 A 
ATOM     20  CE1 ACT d          -9.828  12.705  -3.514  0.00  0.00    -0.050 A 
ATOM     21  H8  ACT d         -11.008  11.138  -2.698  0.00  0.00     0.084 H 
ATOM     22  CZ  ACT d          -9.252  13.959  -3.318  0.00  0.00     0.082 A 
ATOM     23  H10 ACT d          -9.646  12.170  -4.438  0.00  0.00     0.087 H 
ATOM     24  CE2 ACT d          -9.579  14.632  -2.139  0.00  0.00    -0.050 A 
ATOM     25  CD2 ACT d         -10.436  14.098  -1.158  0.00  0.00    -0.074 A 
ATOM     26  H11 ACT d          -9.152  15.614  -1.970  0.00  0.00     0.087 H 
ATOM     27  H9  ACT d         -10.688  14.656  -0.262  0.00  0.00     0.084 H 
BRANCH  22  28
ATOM     28  OH  ACT d          -8.396  14.444  -4.315  0.00  0.00    -0.240 OA
BRANCH  28  29
ATOM     29  P   ACT d          -8.311  16.009  -4.779  0.00  0.00     0.427 P 
ATOM     30  O1P ACT d          -9.831  16.315  -4.926  0.00  0.00    -0.617 OA
ATOM     31  O2P ACT d          -7.719  16.759  -3.634  0.00  0.00    -0.617 OA
ATOM     32  O3P ACT d          -7.695  16.026  -6.083  0.00  0.00    -0.617 OA
ENDBRANCH  28  29
ENDBRANCH  22  28
ENDBRANCH  15  18
ENDBRANCH   5  15
ENDBRANCH   1   5
BRANCH   3  33
ATOM     33  CA  ACT d         -13.822  14.007   2.884  0.00  0.00     0.114 A 
ATOM     34  CB  ACT d         -14.826  15.066   2.580  0.00  0.00    -0.030 A 
ATOM     35  CG  ACT d         -15.216  13.924   3.484  0.00  0.00    -0.030 A 
ATOM     36  H12 ACT d         -14.701  16.076   2.998  0.00  0.00     0.037 H 
ATOM     37  H13 ACT d         -15.259  15.138   1.571  0.00  0.00     0.037 H 
ATOM     38  H14 ACT d         -15.923  13.158   3.132  0.00  0.00     0.037 H 
ATOM     39  H15 ACT d         -15.366  14.096   4.560  0.00  0.00     0.037 H 
BRANCH  33  40
ATOM     40  C   ACT d         -12.756  14.219   3.940  0.00  0.00     0.246 C 
ATOM     41  O   ACT d         -13.083  14.418   5.130  0.00  0.00    -0.271 OA
ATOM     42  N   ACT d         -11.473  14.200   3.546  0.00  0.00    -0.345 N 
ATOM     43  H17 ACT d         -11.265  13.987   2.591  0.00  0.00     0.163 HD
BRANCH  42  44
ATOM     44  CA  ACT d         -10.382  14.473   4.449  0.00  0.00     0.097 C 
ATOM     45  H18 ACT d         -10.757  15.097   5.274  0.00  0.00     0.088 H 
BRANCH  44  46
ATOM     46  C   ACT d          -9.280  15.271   3.703  0.00  0.00     0.238 C 
ATOM     47  O   ACT d          -9.379  15.452   2.474  0.00  0.00    -0.271 OA
ATOM     48  N   ACT d          -8.216  15.703   4.397  0.00  0.00    -0.368 N 
ATOM     49  H23 ACT d          -7.494  16.219   3.935  0.00  0.00     0.159 HD
ATOM     50  H24 ACT d          -8.144  15.510   5.375  0.00  0.00     0.159 HD
ENDBRANCH  44  46
BRANCH  44  51
ATOM     51  CB  ACT d          -9.852  13.157   5.052  0.00  0.00     0.036 C 
ATOM     52  H19 ACT d         -10.638  12.720   5.686  0.00  0.00     0.051 H 
ATOM     53  H20 ACT d          -8.968  13.384   5.666  0.00  0.00     0.051 H 
BRANCH  51  54
ATOM     54  CG  ACT d          -9.457  12.131   3.988  0.00  0.00     0.217 C 
ATOM     55  OD1 ACT d          -9.570  12.423   2.803  0.00  0.00    -0.274 OA
ATOM     56  ND2 ACT d          -8.983  10.952   4.444  0.00  0.00    -0.370 N 
ATOM     57  H21 ACT d          -8.708  10.239   3.799  0.00  0.00     0.159 HD
ATOM     58  H22 ACT d          -8.907  10.791   5.429  0.00  0.00     0.159 HD
ENDBRANCH  51  54
ENDBRANCH  44  51
ENDBRANCH  42  44
ENDBRANCH  33  40
ENDBRANCH   3  33
TORSDOF 13
ENDMDL
MODEL 6
REMARK VINA RESULT:      -2.0      1.630      1.981
REMARK  13 active torsions:
REMARK  status: ('A' for Active; 'I' for Inactive)
REMARK    1  A    between atoms: C_1  and  CH3_3 
REMARK       I    between atoms: N_4  and  C_1 
REMARK    2  A    between atoms: CA_5  and  N_4 
REMARK    3  A    between atoms: C_6  and  CA_5 
REMARK    4  A    between atoms: CA_5  and  CB_8 
REMARK       I    between atoms: N_25  and  C_6 
REMARK    5  A    between atoms: CB_8  and  CG_9 
REMARK    6  A    between atoms: CZ_14  and  OH_15 
REMARK    7  A    between atoms: OH_15  and  P_16 
REMARK    8  A    between atoms: CA_22  and  C_23 
REMARK    9  A    between atoms: CA_22  and  N_25 
REMARK       I    between atoms: C_23  and  N_26 
REMARK   10  A    between atoms: N_26  and  CA_27 
REMARK   11  A    between atoms: CA_27  and  C_28 
REMARK   12  A    between atoms: CA_27  and  CB_30 
REMARK       I    between atoms: C_28  and  N_34 
REMARK   13  A    between atoms: CB_30  and  CG_31 
REMARK       I    between atoms: CG_31  and  ND2_33 
ROOT
ATOM      1  C   ACT d         -13.370  14.132  -2.210  0.00  0.00     0.241 C 
ATOM      2  O   ACT d         -12.312  14.753  -2.373  0.00  0.00    -0.271 OA
ATOM      3  N   ACT d         -14.348  14.069  -3.152  0.00  0.00    -0.341 N 
ATOM      4  H16 ACT d         -15.223  13.616  -2.979  0.00  0.00     0.163 HD
ENDROOT
BRANCH   1   5
ATOM      5  CA  ACT d         -13.677  13.396  -0.890  0.00  0.00     0.093 C 
ATOM      6  H5  ACT d         -14.632  12.855  -0.969  0.00  0.00     0.088 H 
BRANCH   5   7
ATOM      7  N   ACT d         -12.581  12.412  -0.575  0.00  0.00    -0.348 N 
ATOM      8  C   ACT d         -12.161  11.623  -1.525  0.00  0.00     0.214 C 
ATOM      9  O   ACT d         -12.545  11.659  -2.702  0.00  0.00    -0.274 OA
ATOM     10  H4  ACT d         -12.184  12.365   0.341  0.00  0.00     0.163 HD
BRANCH   8  11
ATOM     11  CH3 ACT d         -11.120  10.626  -1.102  0.00  0.00    -0.003 C 
ATOM     12  H1  ACT d         -11.556   9.930  -0.369  0.00  0.00     0.040 H 
ATOM     13  H2  ACT d         -10.270  11.154  -0.645  0.00  0.00     0.040 H 
ATOM     14  H3  ACT d         -10.773  10.064  -1.980  0.00  0.00     0.040 H 
ENDBRANCH   8  11
ENDBRANCH   5   7
BRANCH   5  15
ATOM     15  CB  ACT d         -13.784  14.491   0.175  0.00  0.00    -0.014 C 
ATOM     16  H6  ACT d         -14.678  14.330   0.795  0.00  0.00     0.043 H 
ATOM     17  H7  ACT d         -13.843  15.479  -0.305  0.00  0.00     0.043 H 
BRANCH  15  18
ATOM     18  CG  ACT d         -12.502  14.400   1.053  0.00  0.00    -0.056 A 
ATOM     19  CD1 ACT d         -12.426  13.399   2.001  0.00  0.00    -0.074 A 
ATOM     20  CE1 ACT d         -11.347  13.284   2.844  0.00  0.00    -0.050 A 
ATOM     21  H8  ACT d         -13.238  12.686   2.082  0.00  0.00     0.084 H 
ATOM     22  CZ  ACT d         -10.323  14.229   2.821  0.00  0.00     0.082 A 
ATOM     23  H10 ACT d         -11.292  12.450   3.533  0.00  0.00     0.087 H 
ATOM     24  CE2 ACT d         -10.414  15.243   1.864  0.00  0.00    -0.050 A 
ATOM     25  CD2 ACT d         -11.482  15.350   0.953  0.00  0.00    -0.074 A 
ATOM     26  H11 ACT d          -9.623  15.982   1.820  0.00  0.00     0.087 H 
ATOM     27  H9  ACT d         -11.512  16.136   0.206  0.00  0.00     0.084 H 
BRANCH  22  28
ATOM     28  OH  ACT d          -9.289  14.089   3.755  0.00  0.00    -0.240 OA
BRANCH  28  29
ATOM     29  P   ACT d          -8.571  15.334   4.532  0.00  0.00     0.427 P 
ATOM     30  O1P ACT d          -7.808  14.542   5.634  0.00  0.00    -0.617 OA
ATOM     31  O2P ACT d          -7.624  15.952   3.560  0.00  0.00    -0.617 OA
ATOM     32  O3P ACT d          -9.623  16.108   5.145  0.00  0.00    -0.617 OA
ENDBRANCH  28  29
ENDBRANCH  22  28
ENDBRANCH  15  18
ENDBRANCH   5  15
ENDBRANCH   1   5
BRANCH   3  33
ATOM     33  CA  ACT d         -14.050  14.690  -4.405  0.00  0.00     0.114 A 
ATOM     34  CB  ACT d         -15.158  15.384  -5.120  0.00  0.00    -0.030 A 
ATOM     35  CG  ACT d         -14.085  16.208  -4.455  0.00  0.00    -0.030 A 
ATOM     36  H12 ACT d         -15.214  15.340  -6.218  0.00  0.00     0.037 H 
ATOM     37  H13 ACT d         -16.175  15.368  -4.700  0.00  0.00     0.037 H 
ATOM     38  H14 ACT d         -14.314  16.786  -3.548  0.00  0.00     0.037 H 
ATOM     39  H15 ACT d         -13.353  16.758  -5.065  0.00  0.00     0.037 H 
BRANCH  33  40
ATOM     40  C   ACT d         -12.867  14.119  -5.160  0.00  0.00     0.246 C 
ATOM     41  O   ACT d         -13.019  13.130  -5.911  0.00  0.00    -0.271 OA
ATOM     42  N   ACT d         -11.670  14.699  -4.979  0.00  0.00    -0.345 N 
ATOM     43  H17 ACT d         -11.612  15.516  -4.406  0.00  0.00     0.163 HD
BRANCH  42  44
ATOM     44  CA  ACT d         -10.463  14.187  -5.580  0.00  0.00     0.097 C 
ATOM     45  H18 ACT d         -10.658  13.985  -6.644  0.00  0.00     0.088 H 
BRANCH  44  46
ATOM     46  C   ACT d         -10.073  12.847  -4.900  0.00  0.00     0.238 C 
ATOM     47  O   ACT d         -10.090  11.793  -5.566  0.00  0.00    -0.271 OA
ATOM     48  N   ACT d          -9.776  12.851  -3.591  0.00  0.00    -0.368 N 
ATOM     49  H23 ACT d          -9.522  11.999  -3.134  0.00  0.00     0.159 HD
ATOM     50  H24 ACT d          -9.808  13.706  -3.074  0.00  0.00     0.159 HD
ENDBRANCH  44  46
BRANCH  44  51
ATOM     51  CB  ACT d          -9.341  15.241  -5.494  0.00  0.00     0.036 C 
ATOM     52  H19 ACT d          -9.286  15.774  -6.454  0.00  0.00     0.051 H 
ATOM     53  H20 ACT d          -8.389  14.724  -5.305  0.00  0.00     0.051 H 
BRANCH  51  54
ATOM     54  CG  ACT d          -9.570  16.264  -4.379  0.00  0.00     0.217 C 
ATOM     55  OD1 ACT d          -8.636  16.574  -3.650  0.00  0.00    -0.274 OA
ATOM     56  ND2 ACT d         -10.815  16.779  -4.290  0.00  0.00    -0.370 N 
ATOM     57  H21 ACT d         -11.029  17.452  -3.583  0.00  0.00     0.159 HD
ATOM     58  H22 ACT d         -11.525  16.486  -4.932  0.00  0.00     0.159 HD
ENDBRANCH  51  54
ENDBRANCH  44  51
ENDBRANCH  42  44
ENDBRANCH  33  40
ENDBRANCH   3  33
TORSDOF 13
ENDMDL
MODEL 7
REMARK VINA RESULT:      -1.5      2.832      4.507
REMARK  13 active torsions:
REMARK  status: ('A' for Active; 'I' for Inactive)
REMARK    1  A    between atoms: C_1  and  CH3_3 
REMARK       I    between atoms: N_4  and  C_1 
REMARK    2  A    between atoms: CA_5  and  N_4 
REMARK    3  A    between atoms: C_6  and  CA_5 
REMARK    4  A    between atoms: CA_5  and  CB_8 
REMARK       I    between atoms: N_25  and  C_6 
REMARK    5  A    between atoms: CB_8  and  CG_9 
REMARK    6  A    between atoms: CZ_14  and  OH_15 
REMARK    7  A    between atoms: OH_15  and  P_16 
REMARK    8  A    between atoms: CA_22  and  C_23 
REMARK    9  A    between atoms: CA_22  and  N_25 
REMARK       I    between atoms: C_23  and  N_26 
REMARK   10  A    between atoms: N_26  and  CA_27 
REMARK   11  A    between atoms: CA_27  and  C_28 
REMARK   12  A    between atoms: CA_27  and  CB_30 
REMARK       I    between atoms: C_28  and  N_34 
REMARK   13  A    between atoms: CB_30  and  CG_31 
REMARK       I    between atoms: CG_31  and  ND2_33 
ROOT
ATOM      1  C   ACT d         -10.308  13.107  -1.319  0.00  0.00     0.241 C 
ATOM      2  O   ACT d          -9.123  13.251  -1.646  0.00  0.00    -0.271 OA
ATOM      3  N   ACT d         -11.077  12.070  -1.746  0.00  0.00    -0.341 N 
ATOM      4  H16 ACT d         -12.050  12.004  -1.523  0.00  0.00     0.163 HD
ENDROOT
BRANCH   1   5
ATOM      5  CA  ACT d         -11.023  14.128  -0.410  0.00  0.00     0.093 C 
ATOM      6  H5  ACT d         -10.714  15.151  -0.669  0.00  0.00     0.088 H 
BRANCH   5   7
ATOM      7  N   ACT d         -12.516  14.010  -0.572  0.00  0.00    -0.348 N 
ATOM      8  C   ACT d         -13.096  14.696  -1.517  0.00  0.00     0.214 C 
ATOM      9  O   ACT d         -12.507  15.396  -2.352  0.00  0.00    -0.274 OA
ATOM     10  H4  ACT d         -13.051  13.420   0.033  0.00  0.00     0.163 HD
BRANCH   8  11
ATOM     11  CH3 ACT d         -14.593  14.576  -1.555  0.00  0.00    -0.003 C 
ATOM     12  H1  ACT d         -14.880  13.807  -2.287  0.00  0.00     0.040 H 
ATOM     13  H2  ACT d         -15.031  15.541  -1.847  0.00  0.00     0.040 H 
ATOM     14  H3  ACT d         -14.963  14.291  -0.559  0.00  0.00     0.040 H 
ENDBRANCH   8  11
ENDBRANCH   5   7
BRANCH   5  15
ATOM     15  CB  ACT d         -10.575  13.792   1.015  0.00  0.00    -0.014 C 
ATOM     16  H6  ACT d          -9.586  14.230   1.213  0.00  0.00     0.043 H 
ATOM     17  H7  ACT d         -10.528  12.701   1.149  0.00  0.00     0.043 H 
BRANCH  15  18
ATOM     18  CG  ACT d         -11.632  14.402   1.981  0.00  0.00    -0.056 A 
ATOM     19  CD1 ACT d         -12.428  15.431   1.517  0.00  0.00    -0.074 A 
ATOM     20  CE1 ACT d         -13.350  16.050   2.326  0.00  0.00    -0.050 A 
ATOM     21  H8  ACT d         -12.322  15.758   0.489  0.00  0.00     0.084 H 
ATOM     22  CZ  ACT d         -13.457  15.711   3.673  0.00  0.00     0.082 A 
ATOM     23  H10 ACT d         -14.001  16.811   1.911  0.00  0.00     0.087 H 
ATOM     24  CE2 ACT d         -12.641  14.674   4.134  0.00  0.00    -0.050 A 
ATOM     25  CD2 ACT d         -11.728  13.987   3.312  0.00  0.00    -0.074 A 
ATOM     26  H11 ACT d         -12.716  14.385   5.176  0.00  0.00     0.087 H 
ATOM     27  H9  ACT d         -11.124  13.172   3.695  0.00  0.00     0.084 H 
BRANCH  22  28
ATOM     28  OH  ACT d         -14.369  16.430   4.454  0.00  0.00    -0.240 OA
BRANCH  28  29
ATOM     29  P   ACT d         -14.603  16.195   6.054  0.00  0.00     0.427 P 
ATOM     30  O1P ACT d         -14.748  14.644   6.066  0.00  0.00    -0.617 OA
ATOM     31  O2P ACT d         -13.346  16.623   6.734  0.00  0.00    -0.617 OA
ATOM     32  O3P ACT d         -15.873  16.794   6.384  0.00  0.00    -0.617 OA
ENDBRANCH  28  29
ENDBRANCH  22  28
ENDBRANCH  15  18
ENDBRANCH   5  15
ENDBRANCH   1   5
BRANCH   3  33
ATOM     33  CA  ACT d         -10.411  11.081  -2.534  0.00  0.00     0.114 A 
ATOM     34  CB  ACT d          -9.765   9.942  -1.822  0.00  0.00    -0.030 A 
ATOM     35  CG  ACT d         -11.038   9.698  -2.592  0.00  0.00    -0.030 A 
ATOM     36  H12 ACT d          -8.814   9.533  -2.194  0.00  0.00     0.037 H 
ATOM     37  H13 ACT d          -9.775   9.907  -0.723  0.00  0.00     0.037 H 
ATOM     38  H14 ACT d         -11.977   9.495  -2.057  0.00  0.00     0.037 H 
ATOM     39  H15 ACT d         -11.017   9.120  -3.528  0.00  0.00     0.037 H 
BRANCH  33  40
ATOM     40  C   ACT d          -9.913  11.541  -3.889  0.00  0.00     0.246 C 
ATOM     41  O   ACT d          -9.216  10.778  -4.594  0.00  0.00    -0.271 OA
ATOM     42  N   ACT d         -10.232  12.784  -4.284  0.00  0.00    -0.345 N 
ATOM     43  H17 ACT d         -10.831  13.335  -3.704  0.00  0.00     0.163 HD
BRANCH  42  44
ATOM     44  CA  ACT d          -9.741  13.355  -5.515  0.00  0.00     0.097 C 
ATOM     45  H18 ACT d          -9.573  12.542  -6.237  0.00  0.00     0.088 H 
BRANCH  44  46
ATOM     46  C   ACT d          -8.382  14.057  -5.255  0.00  0.00     0.238 C 
ATOM     47  O   ACT d          -7.852  14.724  -6.166  0.00  0.00    -0.271 OA
ATOM     48  N   ACT d          -7.784  13.885  -4.067  0.00  0.00    -0.368 N 
ATOM     49  H23 ACT d          -6.907  14.329  -3.879  0.00  0.00     0.159 HD
ATOM     50  H24 ACT d          -8.214  13.313  -3.369  0.00  0.00     0.159 HD
ENDBRANCH  44  46
BRANCH  44  51
ATOM     51  CB  ACT d         -10.795  14.310  -6.111  0.00  0.00     0.036 C 
ATOM     52  H19 ACT d         -10.671  14.330  -7.204  0.00  0.00     0.051 H 
ATOM     53  H20 ACT d         -10.624  15.317  -5.703  0.00  0.00     0.051 H 
BRANCH  51  54
ATOM     54  CG  ACT d         -12.230  13.889  -5.789  0.00  0.00     0.217 C 
ATOM     55  OD1 ACT d         -12.576  12.733  -5.999  0.00  0.00    -0.274 OA
ATOM     56  ND2 ACT d         -13.028  14.846  -5.267  0.00  0.00    -0.370 N 
ATOM     57  H21 ACT d         -13.977  14.634  -5.036  0.00  0.00     0.159 HD
ATOM     58  H22 ACT d         -12.669  15.767  -5.112  0.00  0.00     0.159 HD
ENDBRANCH  51  54
ENDBRANCH  44  51
ENDBRANCH  42  44
ENDBRANCH  33  40
ENDBRANCH   3  33
TORSDOF 13
ENDMDL
