MODEL 1
REMARK VINA RESULT:      -6.6      0.000      0.000
REMARK  17 active torsions:
REMARK  status: ('A' for Active; 'I' for Inactive)
REMARK    1  A    between atoms: C1_1  and  C2_4 
REMARK    2  A    between atoms: C2_4  and  C3_5 
REMARK    3  A    between atoms: C3_5  and  C4_6 
REMARK    4  A    between atoms: C4_6  and  C5_7 
REMARK    5  A    between atoms: C5_7  and  C6_8 
REMARK    6  A    between atoms: C6_8  and  C7_9 
REMARK    7  A    between atoms: C7_9  and  C8_10 
REMARK    8  A    between atoms: C8_10  and  C9_11 
REMARK    9  A    between atoms: C9_11  and  C10_12 
REMARK   10  A    between atoms: C10_12  and  C11_13 
REMARK   11  A    between atoms: C11_13  and  C12_14 
REMARK   12  A    between atoms: C12_14  and  C13_15 
REMARK   13  A    between atoms: C13_15  and  C14_16 
REMARK   14  A    between atoms: C14_16  and  C15_17 
REMARK   15  A    between atoms: C15_17  and  C16_18 
REMARK   16  A    between atoms: C16_18  and  C17_19 
REMARK   17  A    between atoms: C17_19  and  C18_20 
ROOT
ATOM      1  C10 STE d          -2.587  15.168  18.577  0.00  0.00    -0.065 C 
ATOM      2  H17 STE d          -1.714  15.457  17.973  0.00  0.00     0.033 H 
ATOM      3  H18 STE d          -2.689  15.858  19.429  0.00  0.00     0.033 H 
ENDROOT
BRANCH   1   4
ATOM      4  C9  STE d          -2.434  13.737  19.073  0.00  0.00    -0.065 C 
ATOM      5  H15 STE d          -1.595  13.254  18.551  0.00  0.00     0.033 H 
ATOM      6  H16 STE d          -2.238  13.741  20.156  0.00  0.00     0.033 H 
BRANCH   4   7
ATOM      7  C8  STE d          -3.718  12.973  18.792  0.00  0.00    -0.065 C 
ATOM      8  H13 STE d          -4.329  12.925  19.704  0.00  0.00     0.033 H 
ATOM      9  H14 STE d          -4.284  13.479  17.995  0.00  0.00     0.033 H 
BRANCH   7  10
ATOM     10  C7  STE d          -3.351  11.578  18.349  0.00  0.00    -0.065 C 
ATOM     11  H11 STE d          -3.971  10.853  18.897  0.00  0.00     0.033 H 
ATOM     12  H12 STE d          -3.543  11.483  17.270  0.00  0.00     0.033 H 
BRANCH  10  13
ATOM     13  C6  STE d          -1.882  11.278  18.619  0.00  0.00    -0.065 C 
ATOM     14  H9  STE d          -1.261  11.817  17.889  0.00  0.00     0.033 H 
ATOM     15  H10 STE d          -1.625  11.610  19.636  0.00  0.00     0.033 H 
BRANCH  13  16
ATOM     16  C5  STE d          -1.617   9.782  18.497  0.00  0.00    -0.065 C 
ATOM     17  H7  STE d          -2.442   9.321  17.934  0.00  0.00     0.033 H 
ATOM     18  H8  STE d          -0.673   9.633  17.952  0.00  0.00     0.033 H 
BRANCH  16  19
ATOM     19  C4  STE d          -1.513   9.103  19.853  0.00  0.00    -0.065 C 
ATOM     20  H5  STE d          -0.852   8.229  19.763  0.00  0.00     0.033 H 
ATOM     21  H6  STE d          -1.085   9.815  20.575  0.00  0.00     0.033 H 
BRANCH  19  22
ATOM     22  C3  STE d          -2.876   8.642  20.362  0.00  0.00    -0.056 C 
ATOM     23  H3  STE d          -2.824   8.510  21.453  0.00  0.00     0.033 H 
ATOM     24  H4  STE d          -3.626   9.411  20.121  0.00  0.00     0.033 H 
BRANCH  22  25
ATOM     25  C2  STE d          -3.297   7.322  19.722  0.00  0.00     0.016 C 
ATOM     26  H1  STE d          -2.802   7.211  18.747  0.00  0.00     0.049 H 
ATOM     27  H2  STE d          -3.008   6.486  20.377  0.00  0.00     0.049 H 
BRANCH  25  28
ATOM     28  C1  STE d          -4.791   7.322  19.533  0.00  0.00     0.172 C 
ATOM     29  O1  STE d          -5.418   6.266  19.794  0.00  0.00    -0.648 OA
ATOM     30  O2  STE d          -5.341   8.359  19.100  0.00  0.00    -0.648 OA
ENDBRANCH  25  28
ENDBRANCH  22  25
ENDBRANCH  19  22
ENDBRANCH  16  19
ENDBRANCH  13  16
ENDBRANCH  10  13
ENDBRANCH   7  10
ENDBRANCH   4   7
ENDBRANCH   1   4
BRANCH   1  31
ATOM     31  C11 STE d          -3.843  15.192  17.729  0.00  0.00    -0.065 C 
ATOM     32  H19 STE d          -4.545  15.940  18.124  0.00  0.00     0.033 H 
ATOM     33  H20 STE d          -4.319  14.200  17.741  0.00  0.00     0.033 H 
BRANCH  31  34
ATOM     34  C12 STE d          -3.452  15.553  16.315  0.00  0.00    -0.065 C 
ATOM     35  H21 STE d          -2.448  15.163  16.095  0.00  0.00     0.033 H 
ATOM     36  H22 STE d          -3.455  16.647  16.196  0.00  0.00     0.033 H 
BRANCH  34  37
ATOM     37  C13 STE d          -4.452  14.938  15.379  0.00  0.00    -0.065 C 
ATOM     38  H23 STE d          -5.351  14.660  15.948  0.00  0.00     0.033 H 
ATOM     39  H24 STE d          -4.010  14.038  14.926  0.00  0.00     0.033 H 
BRANCH  37  40
ATOM     40  C14 STE d          -4.844  15.905  14.276  0.00  0.00    -0.065 C 
ATOM     41  H25 STE d          -5.545  15.403  13.593  0.00  0.00     0.033 H 
ATOM     42  H26 STE d          -3.941  16.202  13.722  0.00  0.00     0.033 H 
BRANCH  40  43
ATOM     43  C15 STE d          -5.513  17.157  14.842  0.00  0.00    -0.065 C 
ATOM     44  H27 STE d          -5.440  17.158  15.939  0.00  0.00     0.033 H 
ATOM     45  H28 STE d          -6.572  17.184  14.545  0.00  0.00     0.033 H 
BRANCH  43  46
ATOM     46  C16 STE d          -4.786  18.358  14.274  0.00  0.00    -0.065 C 
ATOM     47  H29 STE d          -5.480  18.917  13.627  0.00  0.00     0.033 H 
ATOM     48  H30 STE d          -3.934  18.002  13.675  0.00  0.00     0.033 H 
BRANCH  46  49
ATOM     49  C17 STE d          -4.271  19.287  15.343  0.00  0.00    -0.069 C 
ATOM     50  H31 STE d          -4.755  20.267  15.221  0.00  0.00     0.032 H 
ATOM     51  H32 STE d          -3.183  19.397  15.220  0.00  0.00     0.032 H 
BRANCH  49  52
ATOM     52  C18 STE d          -4.551  18.777  16.740  0.00  0.00    -0.077 C 
ATOM     53  H33 STE d          -3.660  18.920  17.368  0.00  0.00     0.027 H 
ATOM     54  H34 STE d          -4.801  17.706  16.697  0.00  0.00     0.027 H 
ATOM     55  H35 STE d          -5.396  19.334  17.171  0.00  0.00     0.027 H 
ENDBRANCH  49  52
ENDBRANCH  46  49
ENDBRANCH  43  46
ENDBRANCH  40  43
ENDBRANCH  37  40
ENDBRANCH  34  37
ENDBRANCH  31  34
ENDBRANCH   1  31
TORSDOF 17
ENDMDL
MODEL 2
REMARK VINA RESULT:      -6.5      1.457      2.639
REMARK  17 active torsions:
REMARK  status: ('A' for Active; 'I' for Inactive)
REMARK    1  A    between atoms: C1_1  and  C2_4 
REMARK    2  A    between atoms: C2_4  and  C3_5 
REMARK    3  A    between atoms: C3_5  and  C4_6 
REMARK    4  A    between atoms: C4_6  and  C5_7 
REMARK    5  A    between atoms: C5_7  and  C6_8 
REMARK    6  A    between atoms: C6_8  and  C7_9 
REMARK    7  A    between atoms: C7_9  and  C8_10 
REMARK    8  A    between atoms: C8_10  and  C9_11 
REMARK    9  A    between atoms: C9_11  and  C10_12 
REMARK   10  A    between atoms: C10_12  and  C11_13 
REMARK   11  A    between atoms: C11_13  and  C12_14 
REMARK   12  A    between atoms: C12_14  and  C13_15 
REMARK   13  A    between atoms: C13_15  and  C14_16 
REMARK   14  A    between atoms: C14_16  and  C15_17 
REMARK   15  A    between atoms: C15_17  and  C16_18 
REMARK   16  A    between atoms: C16_18  and  C17_19 
REMARK   17  A    between atoms: C17_19  and  C18_20 
ROOT
ATOM      1  C10 STE d          -2.462  13.671  19.351  0.00  0.00    -0.065 C 
ATOM      2  H17 STE d          -1.756  14.434  18.990  0.00  0.00     0.033 H 
ATOM      3  H18 STE d          -2.891  13.994  20.311  0.00  0.00     0.033 H 
ENDROOT
BRANCH   1   4
ATOM      4  C9  STE d          -1.754  12.333  19.514  0.00  0.00    -0.065 C 
ATOM      5  H15 STE d          -0.671  12.469  19.373  0.00  0.00     0.033 H 
ATOM      6  H16 STE d          -1.945  11.934  20.521  0.00  0.00     0.033 H 
BRANCH   4   7
ATOM      7  C8  STE d          -2.283  11.360  18.473  0.00  0.00    -0.065 C 
ATOM      8  H13 STE d          -3.313  11.068  18.726  0.00  0.00     0.033 H 
ATOM      9  H14 STE d          -2.270  11.834  17.480  0.00  0.00     0.033 H 
BRANCH   7  10
ATOM     10  C7  STE d          -1.394  10.141  18.468  0.00  0.00    -0.065 C 
ATOM     11  H11 STE d          -1.689   9.485  17.635  0.00  0.00     0.033 H 
ATOM     12  H12 STE d          -0.350  10.460  18.330  0.00  0.00     0.033 H 
BRANCH  10  13
ATOM     13  C6  STE d          -1.508   9.366  19.774  0.00  0.00    -0.065 C 
ATOM     14  H9  STE d          -0.833   8.498  19.741  0.00  0.00     0.033 H 
ATOM     15  H10 STE d          -1.224  10.021  20.611  0.00  0.00     0.033 H 
BRANCH  13  16
ATOM     16  C5  STE d          -2.939   8.881  19.978  0.00  0.00    -0.065 C 
ATOM     17  H7  STE d          -3.463   9.591  20.635  0.00  0.00     0.033 H 
ATOM     18  H8  STE d          -3.444   8.846  19.000  0.00  0.00     0.033 H 
BRANCH  16  19
ATOM     19  C4  STE d          -2.994   7.499  20.607  0.00  0.00    -0.065 C 
ATOM     20  H5  STE d          -2.103   6.933  20.300  0.00  0.00     0.033 H 
ATOM     21  H6  STE d          -3.002   7.607  21.702  0.00  0.00     0.033 H 
BRANCH  19  22
ATOM     22  C3  STE d          -4.241   6.731  20.178  0.00  0.00    -0.056 C 
ATOM     23  H3  STE d          -4.237   5.744  20.664  0.00  0.00     0.033 H 
ATOM     24  H4  STE d          -5.133   7.291  20.494  0.00  0.00     0.033 H 
BRANCH  22  25
ATOM     25  C2  STE d          -4.288   6.537  18.664  0.00  0.00     0.016 C 
ATOM     26  H1  STE d          -5.295   6.777  18.294  0.00  0.00     0.049 H 
ATOM     27  H2  STE d          -3.554   7.201  18.185  0.00  0.00     0.049 H 
BRANCH  25  28
ATOM     28  C1  STE d          -3.959   5.103  18.342  0.00  0.00     0.172 C 
ATOM     29  O1  STE d          -3.824   4.787  17.134  0.00  0.00    -0.648 OA
ATOM     30  O2  STE d          -3.859   4.284  19.282  0.00  0.00    -0.648 OA
ENDBRANCH  25  28
ENDBRANCH  22  25
ENDBRANCH  19  22
ENDBRANCH  16  19
ENDBRANCH  13  16
ENDBRANCH  10  13
ENDBRANCH   7  10
ENDBRANCH   4   7
ENDBRANCH   1   4
BRANCH   1  31
ATOM     31  C11 STE d          -3.561  13.448  18.332  0.00  0.00    -0.065 C 
ATOM     32  H19 STE d          -4.345  12.809  18.763  0.00  0.00     0.033 H 
ATOM     33  H20 STE d          -3.146  12.965  17.435  0.00  0.00     0.033 H 
BRANCH  31  34
ATOM     34  C12 STE d          -4.144  14.793  17.964  0.00  0.00    -0.065 C 
ATOM     35  H21 STE d          -4.992  15.025  18.625  0.00  0.00     0.033 H 
ATOM     36  H22 STE d          -4.488  14.776  16.919  0.00  0.00     0.033 H 
BRANCH  34  37
ATOM     37  C13 STE d          -3.073  15.832  18.129  0.00  0.00    -0.065 C 
ATOM     38  H23 STE d          -2.277  15.646  17.393  0.00  0.00     0.033 H 
ATOM     39  H24 STE d          -2.658  15.759  19.145  0.00  0.00     0.033 H 
BRANCH  37  40
ATOM     40  C14 STE d          -3.623  17.231  17.919  0.00  0.00    -0.065 C 
ATOM     41  H25 STE d          -2.838  17.861  17.475  0.00  0.00     0.033 H 
ATOM     42  H26 STE d          -3.921  17.649  18.892  0.00  0.00     0.033 H 
BRANCH  40  43
ATOM     43  C15 STE d          -4.836  17.222  16.990  0.00  0.00    -0.065 C 
ATOM     44  H27 STE d          -5.655  17.804  17.436  0.00  0.00     0.033 H 
ATOM     45  H28 STE d          -5.171  16.188  16.820  0.00  0.00     0.033 H 
BRANCH  43  46
ATOM     46  C16 STE d          -4.410  17.850  15.679  0.00  0.00    -0.065 C 
ATOM     47  H29 STE d          -3.330  17.687  15.545  0.00  0.00     0.033 H 
ATOM     48  H30 STE d          -4.615  18.930  15.723  0.00  0.00     0.033 H 
BRANCH  46  49
ATOM     49  C17 STE d          -5.135  17.269  14.492  0.00  0.00    -0.069 C 
ATOM     50  H31 STE d          -4.844  17.832  13.592  0.00  0.00     0.032 H 
ATOM     51  H32 STE d          -6.218  17.373  14.656  0.00  0.00     0.032 H 
BRANCH  49  52
ATOM     52  C18 STE d          -4.816  15.806  14.274  0.00  0.00    -0.077 C 
ATOM     53  H33 STE d          -4.770  15.292  15.245  0.00  0.00     0.027 H 
ATOM     54  H34 STE d          -3.845  15.715  13.765  0.00  0.00     0.027 H 
ATOM     55  H35 STE d          -5.600  15.348  13.654  0.00  0.00     0.027 H 
ENDBRANCH  49  52
ENDBRANCH  46  49
ENDBRANCH  43  46
ENDBRANCH  40  43
ENDBRANCH  37  40
ENDBRANCH  34  37
ENDBRANCH  31  34
ENDBRANCH   1  31
TORSDOF 17
ENDMDL
MODEL 3
REMARK VINA RESULT:      -6.4      3.932      9.813
REMARK  17 active torsions:
REMARK  status: ('A' for Active; 'I' for Inactive)
REMARK    1  A    between atoms: C1_1  and  C2_4 
REMARK    2  A    between atoms: C2_4  and  C3_5 
REMARK    3  A    between atoms: C3_5  and  C4_6 
REMARK    4  A    between atoms: C4_6  and  C5_7 
REMARK    5  A    between atoms: C5_7  and  C6_8 
REMARK    6  A    between atoms: C6_8  and  C7_9 
REMARK    7  A    between atoms: C7_9  and  C8_10 
REMARK    8  A    between atoms: C8_10  and  C9_11 
REMARK    9  A    between atoms: C9_11  and  C10_12 
REMARK   10  A    between atoms: C10_12  and  C11_13 
REMARK   11  A    between atoms: C11_13  and  C12_14 
REMARK   12  A    between atoms: C12_14  and  C13_15 
REMARK   13  A    between atoms: C13_15  and  C14_16 
REMARK   14  A    between atoms: C14_16  and  C15_17 
REMARK   15  A    between atoms: C15_17  and  C16_18 
REMARK   16  A    between atoms: C16_18  and  C17_19 
REMARK   17  A    between atoms: C17_19  and  C18_20 
ROOT
ATOM      1  C10 STE d          -1.734  10.678  18.477  0.00  0.00    -0.065 C 
ATOM      2  H17 STE d          -0.792  11.042  18.041  0.00  0.00     0.033 H 
ATOM      3  H18 STE d          -2.111   9.832  17.883  0.00  0.00     0.033 H 
ENDROOT
BRANCH   1   4
ATOM      4  C9  STE d          -2.766  11.797  18.512  0.00  0.00    -0.065 C 
ATOM      5  H15 STE d          -2.838  12.263  17.517  0.00  0.00     0.033 H 
ATOM      6  H16 STE d          -3.746  11.386  18.796  0.00  0.00     0.033 H 
BRANCH   4   7
ATOM      7  C8  STE d          -2.336  12.838  19.532  0.00  0.00    -0.065 C 
ATOM      8  H13 STE d          -2.954  12.750  20.437  0.00  0.00     0.033 H 
ATOM      9  H14 STE d          -1.278  12.688  19.794  0.00  0.00     0.033 H 
BRANCH   7  10
ATOM     10  C7  STE d          -2.520  14.205  18.920  0.00  0.00    -0.065 C 
ATOM     11  H11 STE d          -2.466  14.964  19.715  0.00  0.00     0.033 H 
ATOM     12  H12 STE d          -1.717  14.382  18.189  0.00  0.00     0.033 H 
BRANCH  10  13
ATOM     13  C6  STE d          -3.866  14.321  18.216  0.00  0.00    -0.065 C 
ATOM     14  H9  STE d          -4.139  13.344  17.791  0.00  0.00     0.033 H 
ATOM     15  H10 STE d          -4.631  14.632  18.943  0.00  0.00     0.033 H 
BRANCH  13  16
ATOM     16  C5  STE d          -3.789  15.352  17.095  0.00  0.00    -0.065 C 
ATOM     17  H7  STE d          -3.227  14.920  16.254  0.00  0.00     0.033 H 
ATOM     18  H8  STE d          -4.810  15.595  16.767  0.00  0.00     0.033 H 
BRANCH  16  19
ATOM     19  C4  STE d          -3.099  16.631  17.537  0.00  0.00    -0.065 C 
ATOM     20  H5  STE d          -2.499  16.420  18.435  0.00  0.00     0.033 H 
ATOM     21  H6  STE d          -2.439  16.979  16.728  0.00  0.00     0.033 H 
BRANCH  19  22
ATOM     22  C3  STE d          -4.103  17.734  17.863  0.00  0.00    -0.056 C 
ATOM     23  H3  STE d          -4.610  17.488  18.808  0.00  0.00     0.033 H 
ATOM     24  H4  STE d          -3.565  18.686  17.973  0.00  0.00     0.033 H 
BRANCH  22  25
ATOM     25  C2  STE d          -5.151  17.881  16.763  0.00  0.00     0.016 C 
ATOM     26  H1  STE d          -5.508  16.886  16.458  0.00  0.00     0.049 H 
ATOM     27  H2  STE d          -5.998  18.475  17.137  0.00  0.00     0.049 H 
BRANCH  25  28
ATOM     28  C1  STE d          -4.528  18.577  15.581  0.00  0.00     0.172 C 
ATOM     29  O1  STE d          -4.283  17.894  14.557  0.00  0.00    -0.648 OA
ATOM     30  O2  STE d          -4.258  19.794  15.676  0.00  0.00    -0.648 OA
ENDBRANCH  25  28
ENDBRANCH  22  25
ENDBRANCH  19  22
ENDBRANCH  16  19
ENDBRANCH  13  16
ENDBRANCH  10  13
ENDBRANCH   7  10
ENDBRANCH   4   7
ENDBRANCH   1   4
BRANCH   1  31
ATOM     31  C11 STE d          -1.518  10.255  19.916  0.00  0.00    -0.065 C 
ATOM     32  H19 STE d          -2.413  10.486  20.511  0.00  0.00     0.033 H 
ATOM     33  H20 STE d          -0.652  10.789  20.335  0.00  0.00     0.033 H 
BRANCH  31  34
ATOM     34  C12 STE d          -1.260   8.766  19.938  0.00  0.00    -0.065 C 
ATOM     35  H21 STE d          -0.842   8.475  20.914  0.00  0.00     0.033 H 
ATOM     36  H22 STE d          -0.550   8.500  19.142  0.00  0.00     0.033 H 
BRANCH  34  37
ATOM     37  C13 STE d          -2.565   8.059  19.713  0.00  0.00    -0.065 C 
ATOM     38  H23 STE d          -2.363   7.041  19.351  0.00  0.00     0.033 H 
ATOM     39  H24 STE d          -3.144   8.610  18.958  0.00  0.00     0.033 H 
BRANCH  37  40
ATOM     40  C14 STE d          -3.376   7.976  20.994  0.00  0.00    -0.065 C 
ATOM     41  H25 STE d          -4.407   8.297  20.786  0.00  0.00     0.033 H 
ATOM     42  H26 STE d          -2.929   8.644  21.746  0.00  0.00     0.033 H 
BRANCH  40  43
ATOM     43  C15 STE d          -3.401   6.552  21.549  0.00  0.00    -0.065 C 
ATOM     44  H27 STE d          -4.438   6.188  21.601  0.00  0.00     0.033 H 
ATOM     45  H28 STE d          -2.955   6.533  22.553  0.00  0.00     0.033 H 
BRANCH  43  46
ATOM     46  C16 STE d          -2.594   5.683  20.607  0.00  0.00    -0.065 C 
ATOM     47  H29 STE d          -2.161   6.322  19.822  0.00  0.00     0.033 H 
ATOM     48  H30 STE d          -3.266   4.943  20.148  0.00  0.00     0.033 H 
BRANCH  46  49
ATOM     49  C17 STE d          -1.475   4.952  21.303  0.00  0.00    -0.069 C 
ATOM     50  H31 STE d          -1.605   3.872  21.140  0.00  0.00     0.032 H 
ATOM     51  H32 STE d          -1.529   5.169  22.380  0.00  0.00     0.032 H 
BRANCH  49  52
ATOM     52  C18 STE d          -0.109   5.359  20.795  0.00  0.00    -0.077 C 
ATOM     53  H33 STE d           0.307   6.140  21.448  0.00  0.00     0.027 H 
ATOM     54  H34 STE d          -0.200   5.748  19.770  0.00  0.00     0.027 H 
ATOM     55  H35 STE d           0.559   4.485  20.798  0.00  0.00     0.027 H 
ENDBRANCH  49  52
ENDBRANCH  46  49
ENDBRANCH  43  46
ENDBRANCH  40  43
ENDBRANCH  37  40
ENDBRANCH  34  37
ENDBRANCH  31  34
ENDBRANCH   1  31
TORSDOF 17
ENDMDL
MODEL 4
REMARK VINA RESULT:      -6.3      2.465      3.530
REMARK  17 active torsions:
REMARK  status: ('A' for Active; 'I' for Inactive)
REMARK    1  A    between atoms: C1_1  and  C2_4 
REMARK    2  A    between atoms: C2_4  and  C3_5 
REMARK    3  A    between atoms: C3_5  and  C4_6 
REMARK    4  A    between atoms: C4_6  and  C5_7 
REMARK    5  A    between atoms: C5_7  and  C6_8 
REMARK    6  A    between atoms: C6_8  and  C7_9 
REMARK    7  A    between atoms: C7_9  and  C8_10 
REMARK    8  A    between atoms: C8_10  and  C9_11 
REMARK    9  A    between atoms: C9_11  and  C10_12 
REMARK   10  A    between atoms: C10_12  and  C11_13 
REMARK   11  A    between atoms: C11_13  and  C12_14 
REMARK   12  A    between atoms: C12_14  and  C13_15 
REMARK   13  A    between atoms: C13_15  and  C14_16 
REMARK   14  A    between atoms: C14_16  and  C15_17 
REMARK   15  A    between atoms: C15_17  and  C16_18 
REMARK   16  A    between atoms: C16_18  and  C17_19 
REMARK   17  A    between atoms: C17_19  and  C18_20 
ROOT
ATOM      1  C10 STE d          -2.213  13.077  19.593  0.00  0.00    -0.065 C 
ATOM      2  H17 STE d          -1.626  13.763  18.965  0.00  0.00     0.033 H 
ATOM      3  H18 STE d          -2.456  13.569  20.547  0.00  0.00     0.033 H 
ENDROOT
BRANCH   1   4
ATOM      4  C9  STE d          -1.433  11.794  19.845  0.00  0.00    -0.065 C 
ATOM      5  H15 STE d          -0.361  12.027  19.936  0.00  0.00     0.033 H 
ATOM      6  H16 STE d          -1.786  11.324  20.775  0.00  0.00     0.033 H 
BRANCH   4   7
ATOM      7  C8  STE d          -1.651  10.843  18.680  0.00  0.00    -0.065 C 
ATOM      8  H13 STE d          -2.690  10.919  18.327  0.00  0.00     0.033 H 
ATOM      9  H14 STE d          -0.964  11.097  17.859  0.00  0.00     0.033 H 
BRANCH   7  10
ATOM     10  C7  STE d          -1.376   9.438  19.158  0.00  0.00    -0.065 C 
ATOM     11  H11 STE d          -1.153   8.801  18.289  0.00  0.00     0.033 H 
ATOM     12  H12 STE d          -0.508   9.454  19.833  0.00  0.00     0.033 H 
BRANCH  10  13
ATOM     13  C6  STE d          -2.573   8.861  19.901  0.00  0.00    -0.065 C 
ATOM     14  H9  STE d          -2.830   9.520  20.744  0.00  0.00     0.033 H 
ATOM     15  H10 STE d          -3.429   8.793  19.214  0.00  0.00     0.033 H 
BRANCH  13  16
ATOM     16  C5  STE d          -2.244   7.470  20.434  0.00  0.00    -0.065 C 
ATOM     17  H7  STE d          -2.446   7.448  21.514  0.00  0.00     0.033 H 
ATOM     18  H8  STE d          -2.886   6.736  19.925  0.00  0.00     0.033 H 
BRANCH  16  19
ATOM     19  C4  STE d          -0.790   7.095  20.200  0.00  0.00    -0.065 C 
ATOM     20  H5  STE d          -0.550   7.247  19.138  0.00  0.00     0.033 H 
ATOM     21  H6  STE d          -0.151   7.743  20.818  0.00  0.00     0.033 H 
BRANCH  19  22
ATOM     22  C3  STE d          -0.516   5.638  20.566  0.00  0.00    -0.056 C 
ATOM     23  H3  STE d          -0.357   5.062  19.642  0.00  0.00     0.033 H 
ATOM     24  H4  STE d           0.390   5.591  21.188  0.00  0.00     0.033 H 
BRANCH  22  25
ATOM     25  C2  STE d          -1.680   5.024  21.338  0.00  0.00     0.016 C 
ATOM     26  H1  STE d          -1.658   5.378  22.379  0.00  0.00     0.049 H 
ATOM     27  H2  STE d          -2.630   5.321  20.870  0.00  0.00     0.049 H 
BRANCH  25  28
ATOM     28  C1  STE d          -1.551   3.524  21.311  0.00  0.00     0.172 C 
ATOM     29  O1  STE d          -0.649   3.024  20.595  0.00  0.00    -0.648 OA
ATOM     30  O2  STE d          -2.358   2.840  21.977  0.00  0.00    -0.648 OA
ENDBRANCH  25  28
ENDBRANCH  22  25
ENDBRANCH  19  22
ENDBRANCH  16  19
ENDBRANCH  13  16
ENDBRANCH  10  13
ENDBRANCH   7  10
ENDBRANCH   4   7
ENDBRANCH   1   4
BRANCH   1  31
ATOM     31  C11 STE d          -3.484  12.667  18.876  0.00  0.00    -0.065 C 
ATOM     32  H19 STE d          -4.247  12.372  19.610  0.00  0.00     0.033 H 
ATOM     33  H20 STE d          -3.276  11.822  18.203  0.00  0.00     0.033 H 
BRANCH  31  34
ATOM     34  C12 STE d          -3.977  13.850  18.073  0.00  0.00    -0.065 C 
ATOM     35  H21 STE d          -4.993  14.120  18.395  0.00  0.00     0.033 H 
ATOM     36  H22 STE d          -3.986  13.595  17.003  0.00  0.00     0.033 H 
BRANCH  34  37
ATOM     37  C13 STE d          -3.045  15.002  18.313  0.00  0.00    -0.065 C 
ATOM     38  H23 STE d          -2.008  14.652  18.209  0.00  0.00     0.033 H 
ATOM     39  H24 STE d          -3.204  15.384  19.333  0.00  0.00     0.033 H 
BRANCH  37  40
ATOM     40  C14 STE d          -3.289  16.125  17.321  0.00  0.00    -0.065 C 
ATOM     41  H25 STE d          -4.119  15.843  16.658  0.00  0.00     0.033 H 
ATOM     42  H26 STE d          -2.378  16.279  16.723  0.00  0.00     0.033 H 
BRANCH  40  43
ATOM     43  C15 STE d          -3.642  17.432  18.031  0.00  0.00    -0.065 C 
ATOM     44  H27 STE d          -2.782  18.117  18.005  0.00  0.00     0.033 H 
ATOM     45  H28 STE d          -3.917  17.228  19.076  0.00  0.00     0.033 H 
BRANCH  43  46
ATOM     46  C16 STE d          -4.816  18.045  17.297  0.00  0.00    -0.065 C 
ATOM     47  H29 STE d          -5.016  19.041  17.722  0.00  0.00     0.033 H 
ATOM     48  H30 STE d          -5.697  17.401  17.441  0.00  0.00     0.033 H 
BRANCH  46  49
ATOM     49  C17 STE d          -4.565  18.195  15.819  0.00  0.00    -0.069 C 
ATOM     50  H31 STE d          -5.443  17.819  15.272  0.00  0.00     0.032 H 
ATOM     51  H32 STE d          -3.681  17.598  15.549  0.00  0.00     0.032 H 
BRANCH  49  52
ATOM     52  C18 STE d          -4.321  19.633  15.413  0.00  0.00    -0.077 C 
ATOM     53  H33 STE d          -5.285  20.147  15.287  0.00  0.00     0.027 H 
ATOM     54  H34 STE d          -3.767  19.657  14.463  0.00  0.00     0.027 H 
ATOM     55  H35 STE d          -3.734  20.140  16.193  0.00  0.00     0.027 H 
ENDBRANCH  49  52
ENDBRANCH  46  49
ENDBRANCH  43  46
ENDBRANCH  40  43
ENDBRANCH  37  40
ENDBRANCH  34  37
ENDBRANCH  31  34
ENDBRANCH   1  31
TORSDOF 17
ENDMDL
MODEL 5
REMARK VINA RESULT:      -6.3      1.276      2.860
REMARK  17 active torsions:
REMARK  status: ('A' for Active; 'I' for Inactive)
REMARK    1  A    between atoms: C1_1  and  C2_4 
REMARK    2  A    between atoms: C2_4  and  C3_5 
REMARK    3  A    between atoms: C3_5  and  C4_6 
REMARK    4  A    between atoms: C4_6  and  C5_7 
REMARK    5  A    between atoms: C5_7  and  C6_8 
REMARK    6  A    between atoms: C6_8  and  C7_9 
REMARK    7  A    between atoms: C7_9  and  C8_10 
REMARK    8  A    between atoms: C8_10  and  C9_11 
REMARK    9  A    between atoms: C9_11  and  C10_12 
REMARK   10  A    between atoms: C10_12  and  C11_13 
REMARK   11  A    between atoms: C11_13  and  C12_14 
REMARK   12  A    between atoms: C12_14  and  C13_15 
REMARK   13  A    between atoms: C13_15  and  C14_16 
REMARK   14  A    between atoms: C14_16  and  C15_17 
REMARK   15  A    between atoms: C15_17  and  C16_18 
REMARK   16  A    between atoms: C16_18  and  C17_19 
REMARK   17  A    between atoms: C17_19  and  C18_20 
ROOT
ATOM      1  C10 STE d          -2.096  12.792  19.356  0.00  0.00    -0.065 C 
ATOM      2  H17 STE d          -1.718  13.252  18.431  0.00  0.00     0.033 H 
ATOM      3  H18 STE d          -1.923  13.474  20.203  0.00  0.00     0.033 H 
ENDROOT
BRANCH   1   4
ATOM      4  C9  STE d          -1.405  11.459  19.604  0.00  0.00    -0.065 C 
ATOM      5  H15 STE d          -0.333  11.628  19.788  0.00  0.00     0.033 H 
ATOM      6  H16 STE d          -1.853  10.967  20.480  0.00  0.00     0.033 H 
BRANCH   4   7
ATOM      7  C8  STE d          -1.577  10.574  18.380  0.00  0.00    -0.065 C 
ATOM      8  H13 STE d          -2.461  10.897  17.810  0.00  0.00     0.033 H 
ATOM      9  H14 STE d          -0.684  10.643  17.742  0.00  0.00     0.033 H 
BRANCH   7  10
ATOM     10  C7  STE d          -1.763   9.151  18.846  0.00  0.00    -0.065 C 
ATOM     11  H11 STE d          -2.521   8.663  18.216  0.00  0.00     0.033 H 
ATOM     12  H12 STE d          -0.807   8.616  18.750  0.00  0.00     0.033 H 
BRANCH  10  13
ATOM     13  C6  STE d          -2.217   9.098  20.299  0.00  0.00    -0.065 C 
ATOM     14  H9  STE d          -1.378   8.771  20.930  0.00  0.00     0.033 H 
ATOM     15  H10 STE d          -2.544  10.100  20.614  0.00  0.00     0.033 H 
BRANCH  13  16
ATOM     16  C5  STE d          -3.376   8.119  20.455  0.00  0.00    -0.065 C 
ATOM     17  H7  STE d          -3.017   7.229  20.992  0.00  0.00     0.033 H 
ATOM     18  H8  STE d          -4.173   8.604  21.039  0.00  0.00     0.033 H 
BRANCH  16  19
ATOM     19  C4  STE d          -3.946   7.685  19.115  0.00  0.00    -0.065 C 
ATOM     20  H5  STE d          -3.322   8.103  18.311  0.00  0.00     0.033 H 
ATOM     21  H6  STE d          -3.928   6.586  19.059  0.00  0.00     0.033 H 
BRANCH  19  22
ATOM     22  C3  STE d          -5.382   8.166  18.927  0.00  0.00    -0.056 C 
ATOM     23  H3  STE d          -5.472   9.187  19.329  0.00  0.00     0.033 H 
ATOM     24  H4  STE d          -5.619   8.173  17.853  0.00  0.00     0.033 H 
BRANCH  22  25
ATOM     25  C2  STE d          -6.376   7.260  19.649  0.00  0.00     0.016 C 
ATOM     26  H1  STE d          -6.189   7.297  20.732  0.00  0.00     0.049 H 
ATOM     27  H2  STE d          -7.402   7.601  19.443  0.00  0.00     0.049 H 
BRANCH  25  28
ATOM     28  C1  STE d          -6.203   5.849  19.154  0.00  0.00     0.172 C 
ATOM     29  O1  STE d          -5.860   4.972  19.984  0.00  0.00    -0.648 OA
ATOM     30  O2  STE d          -6.381   5.613  17.939  0.00  0.00    -0.648 OA
ENDBRANCH  25  28
ENDBRANCH  22  25
ENDBRANCH  19  22
ENDBRANCH  16  19
ENDBRANCH  13  16
ENDBRANCH  10  13
ENDBRANCH   7  10
ENDBRANCH   4   7
ENDBRANCH   1   4
BRANCH   1  31
ATOM     31  C11 STE d          -3.574  12.486  19.223  0.00  0.00    -0.065 C 
ATOM     32  H19 STE d          -4.076  12.644  20.188  0.00  0.00     0.033 H 
ATOM     33  H20 STE d          -3.711  11.441  18.905  0.00  0.00     0.033 H 
BRANCH  31  34
ATOM     34  C12 STE d          -4.159  13.416  18.184  0.00  0.00    -0.065 C 
ATOM     35  H21 STE d          -5.227  13.579  18.390  0.00  0.00     0.033 H 
ATOM     36  H22 STE d          -4.042  12.976  17.183  0.00  0.00     0.033 H 
BRANCH  34  37
ATOM     37  C13 STE d          -3.422  14.722  18.255  0.00  0.00    -0.065 C 
ATOM     38  H23 STE d          -2.425  14.595  17.809  0.00  0.00     0.033 H 
ATOM     39  H24 STE d          -3.319  15.017  19.309  0.00  0.00     0.033 H 
BRANCH  37  40
ATOM     40  C14 STE d          -4.163  15.815  17.505  0.00  0.00    -0.065 C 
ATOM     41  H25 STE d          -4.199  16.717  18.132  0.00  0.00     0.033 H 
ATOM     42  H26 STE d          -5.188  15.474  17.294  0.00  0.00     0.033 H 
BRANCH  40  43
ATOM     43  C15 STE d          -3.472  16.154  16.185  0.00  0.00    -0.065 C 
ATOM     44  H27 STE d          -2.427  15.810  16.209  0.00  0.00     0.033 H 
ATOM     45  H28 STE d          -3.496  17.241  16.018  0.00  0.00     0.033 H 
BRANCH  43  46
ATOM     46  C16 STE d          -4.226  15.443  15.081  0.00  0.00    -0.065 C 
ATOM     47  H29 STE d          -4.858  14.663  15.532  0.00  0.00     0.033 H 
ATOM     48  H30 STE d          -3.497  14.977  14.401  0.00  0.00     0.033 H 
BRANCH  46  49
ATOM     49  C17 STE d          -5.103  16.373  14.283  0.00  0.00    -0.069 C 
ATOM     50  H31 STE d          -6.147  16.226  14.595  0.00  0.00     0.032 H 
ATOM     51  H32 STE d          -5.001  16.126  13.216  0.00  0.00     0.032 H 
BRANCH  49  52
ATOM     52  C18 STE d          -4.738  17.829  14.479  0.00  0.00    -0.077 C 
ATOM     53  H33 STE d          -4.530  18.014  15.543  0.00  0.00     0.027 H 
ATOM     54  H34 STE d          -5.575  18.464  14.154  0.00  0.00     0.027 H 
ATOM     55  H35 STE d          -3.844  18.066  13.884  0.00  0.00     0.027 H 
ENDBRANCH  49  52
ENDBRANCH  46  49
ENDBRANCH  43  46
ENDBRANCH  40  43
ENDBRANCH  37  40
ENDBRANCH  34  37
ENDBRANCH  31  34
ENDBRANCH   1  31
TORSDOF 17
ENDMDL
MODEL 6
REMARK VINA RESULT:      -6.3      2.149      3.352
REMARK  17 active torsions:
REMARK  status: ('A' for Active; 'I' for Inactive)
REMARK    1  A    between atoms: C1_1  and  C2_4 
REMARK    2  A    between atoms: C2_4  and  C3_5 
REMARK    3  A    between atoms: C3_5  and  C4_6 
REMARK    4  A    between atoms: C4_6  and  C5_7 
REMARK    5  A    between atoms: C5_7  and  C6_8 
REMARK    6  A    between atoms: C6_8  and  C7_9 
REMARK    7  A    between atoms: C7_9  and  C8_10 
REMARK    8  A    between atoms: C8_10  and  C9_11 
REMARK    9  A    between atoms: C9_11  and  C10_12 
REMARK   10  A    between atoms: C10_12  and  C11_13 
REMARK   11  A    between atoms: C11_13  and  C12_14 
REMARK   12  A    between atoms: C12_14  and  C13_15 
REMARK   13  A    between atoms: C13_15  and  C14_16 
REMARK   14  A    between atoms: C14_16  and  C15_17 
REMARK   15  A    between atoms: C15_17  and  C16_18 
REMARK   16  A    between atoms: C16_18  and  C17_19 
REMARK   17  A    between atoms: C17_19  and  C18_20 
ROOT
ATOM      1  C10 STE d          -2.075  13.077  19.422  0.00  0.00    -0.065 C 
ATOM      2  H17 STE d          -1.312  13.353  18.679  0.00  0.00     0.033 H 
ATOM      3  H18 STE d          -2.128  13.854  20.199  0.00  0.00     0.033 H 
ENDROOT
BRANCH   1   4
ATOM      4  C9  STE d          -1.740  11.729  20.047  0.00  0.00    -0.065 C 
ATOM      5  H15 STE d          -0.917  11.852  20.767  0.00  0.00     0.033 H 
ATOM      6  H16 STE d          -2.625  11.333  20.565  0.00  0.00     0.033 H 
BRANCH   4   7
ATOM      7  C8  STE d          -1.318  10.765  18.951  0.00  0.00    -0.065 C 
ATOM      8  H13 STE d          -1.780  11.060  17.997  0.00  0.00     0.033 H 
ATOM      9  H14 STE d          -0.223  10.776  18.847  0.00  0.00     0.033 H 
BRANCH   7  10
ATOM     10  C7  STE d          -1.780   9.380  19.334  0.00  0.00    -0.065 C 
ATOM     11  H11 STE d          -1.078   8.641  18.922  0.00  0.00     0.033 H 
ATOM     12  H12 STE d          -1.795   9.300  20.431  0.00  0.00     0.033 H 
BRANCH  10  13
ATOM     13  C6  STE d          -3.176   9.092  18.796  0.00  0.00    -0.065 C 
ATOM     14  H9  STE d          -3.770  10.018  18.814  0.00  0.00     0.033 H 
ATOM     15  H10 STE d          -3.097   8.726  17.761  0.00  0.00     0.033 H 
BRANCH  13  16
ATOM     16  C5  STE d          -3.864   8.036  19.653  0.00  0.00    -0.065 C 
ATOM     17  H7  STE d          -4.878   8.384  19.898  0.00  0.00     0.033 H 
ATOM     18  H8  STE d          -3.928   7.100  19.077  0.00  0.00     0.033 H 
BRANCH  16  19
ATOM     19  C4  STE d          -3.114   7.766  20.946  0.00  0.00    -0.065 C 
ATOM     20  H5  STE d          -2.138   8.271  20.904  0.00  0.00     0.033 H 
ATOM     21  H6  STE d          -3.699   8.167  21.788  0.00  0.00     0.033 H 
BRANCH  19  22
ATOM     22  C3  STE d          -2.888   6.273  21.169  0.00  0.00    -0.056 C 
ATOM     23  H3  STE d          -2.142   6.139  21.966  0.00  0.00     0.033 H 
ATOM     24  H4  STE d          -3.838   5.810  21.476  0.00  0.00     0.033 H 
BRANCH  22  25
ATOM     25  C2  STE d          -2.389   5.585  19.901  0.00  0.00     0.016 C 
ATOM     26  H1  STE d          -3.028   4.720  19.676  0.00  0.00     0.049 H 
ATOM     27  H2  STE d          -2.421   6.294  19.061  0.00  0.00     0.049 H 
BRANCH  25  28
ATOM     28  C1  STE d          -0.972   5.123  20.119  0.00  0.00     0.172 C 
ATOM     29  O1  STE d          -0.179   5.907  20.697  0.00  0.00    -0.648 OA
ATOM     30  O2  STE d          -0.636   3.996  19.696  0.00  0.00    -0.648 OA
ENDBRANCH  25  28
ENDBRANCH  22  25
ENDBRANCH  19  22
ENDBRANCH  16  19
ENDBRANCH  13  16
ENDBRANCH  10  13
ENDBRANCH   7  10
ENDBRANCH   4   7
ENDBRANCH   1   4
BRANCH   1  31
ATOM     31  C11 STE d          -3.424  12.911  18.752  0.00  0.00    -0.065 C 
ATOM     32  H19 STE d          -4.191  12.690  19.509  0.00  0.00     0.033 H 
ATOM     33  H20 STE d          -3.380  12.087  18.024  0.00  0.00     0.033 H 
BRANCH  31  34
ATOM     34  C12 STE d          -3.763  14.202  18.043  0.00  0.00    -0.065 C 
ATOM     35  H21 STE d          -4.786  14.512  18.303  0.00  0.00     0.033 H 
ATOM     36  H22 STE d          -3.688  14.059  16.955  0.00  0.00     0.033 H 
BRANCH  34  37
ATOM     37  C13 STE d          -2.786  15.252  18.486  0.00  0.00    -0.065 C 
ATOM     38  H23 STE d          -1.783  14.983  18.123  0.00  0.00     0.033 H 
ATOM     39  H24 STE d          -2.781  15.294  19.585  0.00  0.00     0.033 H 
BRANCH  37  40
ATOM     40  C14 STE d          -3.159  16.619  17.940  0.00  0.00    -0.065 C 
ATOM     41  H25 STE d          -2.367  16.960  17.257  0.00  0.00     0.033 H 
ATOM     42  H26 STE d          -3.250  17.326  18.778  0.00  0.00     0.033 H 
BRANCH  40  43
ATOM     43  C15 STE d          -4.484  16.575  17.181  0.00  0.00    -0.065 C 
ATOM     44  H27 STE d          -5.303  16.910  17.835  0.00  0.00     0.033 H 
ATOM     45  H28 STE d          -4.686  15.551  16.837  0.00  0.00     0.033 H 
BRANCH  43  46
ATOM     46  C16 STE d          -4.359  17.506  15.992  0.00  0.00    -0.065 C 
ATOM     47  H29 STE d          -3.297  17.761  15.856  0.00  0.00     0.033 H 
ATOM     48  H30 STE d          -4.932  18.421  16.200  0.00  0.00     0.033 H 
BRANCH  46  49
ATOM     49  C17 STE d          -4.874  16.892  14.716  0.00  0.00    -0.069 C 
ATOM     50  H31 STE d          -4.422  17.421  13.864  0.00  0.00     0.032 H 
ATOM     51  H32 STE d          -5.967  17.011  14.684  0.00  0.00     0.032 H 
BRANCH  49  52
ATOM     52  C18 STE d          -4.543  15.419  14.603  0.00  0.00    -0.077 C 
ATOM     53  H33 STE d          -3.861  15.134  15.417  0.00  0.00     0.027 H 
ATOM     54  H34 STE d          -4.058  15.226  13.635  0.00  0.00     0.027 H 
ATOM     55  H35 STE d          -5.468  14.829  14.675  0.00  0.00     0.027 H 
ENDBRANCH  49  52
ENDBRANCH  46  49
ENDBRANCH  43  46
ENDBRANCH  40  43
ENDBRANCH  37  40
ENDBRANCH  34  37
ENDBRANCH  31  34
ENDBRANCH   1  31
TORSDOF 17
ENDMDL
MODEL 7
REMARK VINA RESULT:      -6.0      3.572      9.203
REMARK  17 active torsions:
REMARK  status: ('A' for Active; 'I' for Inactive)
REMARK    1  A    between atoms: C1_1  and  C2_4 
REMARK    2  A    between atoms: C2_4  and  C3_5 
REMARK    3  A    between atoms: C3_5  and  C4_6 
REMARK    4  A    between atoms: C4_6  and  C5_7 
REMARK    5  A    between atoms: C5_7  and  C6_8 
REMARK    6  A    between atoms: C6_8  and  C7_9 
REMARK    7  A    between atoms: C7_9  and  C8_10 
REMARK    8  A    between atoms: C8_10  and  C9_11 
REMARK    9  A    between atoms: C9_11  and  C10_12 
REMARK   10  A    between atoms: C10_12  and  C11_13 
REMARK   11  A    between atoms: C11_13  and  C12_14 
REMARK   12  A    between atoms: C12_14  and  C13_15 
REMARK   13  A    between atoms: C13_15  and  C14_16 
REMARK   14  A    between atoms: C14_16  and  C15_17 
REMARK   15  A    between atoms: C15_17  and  C16_18 
REMARK   16  A    between atoms: C16_18  and  C17_19 
REMARK   17  A    between atoms: C17_19  and  C18_20 
ROOT
ATOM      1  C10 STE d          -2.647  13.310  19.046  0.00  0.00    -0.065 C 
ATOM      2  H17 STE d          -2.662  13.938  19.950  0.00  0.00     0.033 H 
ATOM      3  H18 STE d          -1.735  13.522  18.467  0.00  0.00     0.033 H 
ENDROOT
BRANCH   1   4
ATOM      4  C9  STE d          -3.883  13.575  18.199  0.00  0.00    -0.065 C 
ATOM      5  H15 STE d          -3.801  13.030  17.247  0.00  0.00     0.033 H 
ATOM      6  H16 STE d          -4.780  13.237  18.739  0.00  0.00     0.033 H 
BRANCH   4   7
ATOM      7  C8  STE d          -3.987  15.066  17.924  0.00  0.00    -0.065 C 
ATOM      8  H13 STE d          -5.027  15.397  18.059  0.00  0.00     0.033 H 
ATOM      9  H14 STE d          -3.333  15.619  18.615  0.00  0.00     0.033 H 
BRANCH   7  10
ATOM     10  C7  STE d          -3.553  15.317  16.501  0.00  0.00    -0.065 C 
ATOM     11  H11 STE d          -3.346  16.390  16.373  0.00  0.00     0.033 H 
ATOM     12  H12 STE d          -2.638  14.741  16.299  0.00  0.00     0.033 H 
BRANCH  10  13
ATOM     13  C6  STE d          -4.631  14.900  15.510  0.00  0.00    -0.065 C 
ATOM     14  H9  STE d          -4.461  13.856  15.206  0.00  0.00     0.033 H 
ATOM     15  H10 STE d          -5.618  14.986  15.989  0.00  0.00     0.033 H 
BRANCH  13  16
ATOM     16  C5  STE d          -4.591  15.795  14.276  0.00  0.00    -0.065 C 
ATOM     17  H7  STE d          -3.543  15.932  13.972  0.00  0.00     0.033 H 
ATOM     18  H8  STE d          -5.148  15.303  13.464  0.00  0.00     0.033 H 
BRANCH  16  19
ATOM     19  C4  STE d          -5.207  17.159  14.536  0.00  0.00    -0.065 C 
ATOM     20  H5  STE d          -5.868  17.417  13.696  0.00  0.00     0.033 H 
ATOM     21  H6  STE d          -5.795  17.114  15.465  0.00  0.00     0.033 H 
BRANCH  19  22
ATOM     22  C3  STE d          -4.142  18.244  14.678  0.00  0.00    -0.056 C 
ATOM     23  H3  STE d          -3.190  17.774  14.966  0.00  0.00     0.033 H 
ATOM     24  H4  STE d          -4.020  18.754  13.711  0.00  0.00     0.033 H 
BRANCH  22  25
ATOM     25  C2  STE d          -4.526  19.273  15.737  0.00  0.00     0.016 C 
ATOM     26  H1  STE d          -3.770  20.072  15.766  0.00  0.00     0.049 H 
ATOM     27  H2  STE d          -5.507  19.706  15.491  0.00  0.00     0.049 H 
BRANCH  25  28
ATOM     28  C1  STE d          -4.596  18.595  17.080  0.00  0.00     0.172 C 
ATOM     29  O1  STE d          -3.551  18.553  17.774  0.00  0.00    -0.648 OA
ATOM     30  O2  STE d          -5.678  18.079  17.436  0.00  0.00    -0.648 OA
ENDBRANCH  25  28
ENDBRANCH  22  25
ENDBRANCH  19  22
ENDBRANCH  16  19
ENDBRANCH  13  16
ENDBRANCH  10  13
ENDBRANCH   7  10
ENDBRANCH   4   7
ENDBRANCH   1   4
BRANCH   1  31
ATOM     31  C11 STE d          -2.698  11.844  19.426  0.00  0.00    -0.065 C 
ATOM     32  H19 STE d          -3.704  11.589  19.791  0.00  0.00     0.033 H 
ATOM     33  H20 STE d          -1.959  11.637  20.213  0.00  0.00     0.033 H 
BRANCH  31  34
ATOM     34  C12 STE d          -2.378  11.025  18.196  0.00  0.00    -0.065 C 
ATOM     35  H21 STE d          -2.023  11.685  17.392  0.00  0.00     0.033 H 
ATOM     36  H22 STE d          -3.279  10.490  17.861  0.00  0.00     0.033 H 
BRANCH  34  37
ATOM     37  C13 STE d          -1.306  10.038  18.555  0.00  0.00    -0.065 C 
ATOM     38  H23 STE d          -0.346  10.568  18.641  0.00  0.00     0.033 H 
ATOM     39  H24 STE d          -1.237   9.281  17.760  0.00  0.00     0.033 H 
BRANCH  37  40
ATOM     40  C14 STE d          -1.609   9.347  19.872  0.00  0.00    -0.065 C 
ATOM     41  H25 STE d          -2.698   9.329  20.025  0.00  0.00     0.033 H 
ATOM     42  H26 STE d          -1.134   9.909  20.690  0.00  0.00     0.033 H 
BRANCH  40  43
ATOM     43  C15 STE d          -1.082   7.912  19.885  0.00  0.00    -0.065 C 
ATOM     44  H27 STE d          -0.243   7.827  20.591  0.00  0.00     0.033 H 
ATOM     45  H28 STE d          -0.744   7.627  18.878  0.00  0.00     0.033 H 
BRANCH  43  46
ATOM     46  C16 STE d          -2.220   7.014  20.322  0.00  0.00    -0.065 C 
ATOM     47  H29 STE d          -1.888   6.420  21.188  0.00  0.00     0.033 H 
ATOM     48  H30 STE d          -2.475   6.339  19.491  0.00  0.00     0.033 H 
BRANCH  46  49
ATOM     49  C17 STE d          -3.454   7.785  20.713  0.00  0.00    -0.069 C 
ATOM     50  H31 STE d          -4.285   7.473  20.062  0.00  0.00     0.032 H 
ATOM     51  H32 STE d          -3.259   8.858  20.570  0.00  0.00     0.032 H 
BRANCH  49  52
ATOM     52  C18 STE d          -3.854   7.553  22.154  0.00  0.00    -0.077 C 
ATOM     53  H33 STE d          -4.677   6.824  22.193  0.00  0.00     0.027 H 
ATOM     54  H34 STE d          -4.185   8.502  22.601  0.00  0.00     0.027 H 
ATOM     55  H35 STE d          -2.992   7.163  22.716  0.00  0.00     0.027 H 
ENDBRANCH  49  52
ENDBRANCH  46  49
ENDBRANCH  43  46
ENDBRANCH  40  43
ENDBRANCH  37  40
ENDBRANCH  34  37
ENDBRANCH  31  34
ENDBRANCH   1  31
TORSDOF 17
ENDMDL
MODEL 8
REMARK VINA RESULT:      -5.9      3.662      9.259
REMARK  17 active torsions:
REMARK  status: ('A' for Active; 'I' for Inactive)
REMARK    1  A    between atoms: C1_1  and  C2_4 
REMARK    2  A    between atoms: C2_4  and  C3_5 
REMARK    3  A    between atoms: C3_5  and  C4_6 
REMARK    4  A    between atoms: C4_6  and  C5_7 
REMARK    5  A    between atoms: C5_7  and  C6_8 
REMARK    6  A    between atoms: C6_8  and  C7_9 
REMARK    7  A    between atoms: C7_9  and  C8_10 
REMARK    8  A    between atoms: C8_10  and  C9_11 
REMARK    9  A    between atoms: C9_11  and  C10_12 
REMARK   10  A    between atoms: C10_12  and  C11_13 
REMARK   11  A    between atoms: C11_13  and  C12_14 
REMARK   12  A    between atoms: C12_14  and  C13_15 
REMARK   13  A    between atoms: C13_15  and  C14_16 
REMARK   14  A    between atoms: C14_16  and  C15_17 
REMARK   15  A    between atoms: C15_17  and  C16_18 
REMARK   16  A    between atoms: C16_18  and  C17_19 
REMARK   17  A    between atoms: C17_19  and  C18_20 
ROOT
ATOM      1  C10 STE d          -2.486   9.163  20.047  0.00  0.00    -0.065 C 
ATOM      2  H17 STE d          -3.494   9.205  19.607  0.00  0.00     0.033 H 
ATOM      3  H18 STE d          -2.429   9.856  20.899  0.00  0.00     0.033 H 
ENDROOT
BRANCH   1   4
ATOM      4  C9  STE d          -1.439   9.523  19.003  0.00  0.00    -0.065 C 
ATOM      5  H15 STE d          -0.434   9.447  19.447  0.00  0.00     0.033 H 
ATOM      6  H16 STE d          -1.515   8.831  18.150  0.00  0.00     0.033 H 
BRANCH   4   7
ATOM      7  C8  STE d          -1.679  10.946  18.527  0.00  0.00    -0.065 C 
ATOM      8  H13 STE d          -0.975  11.192  17.719  0.00  0.00     0.033 H 
ATOM      9  H14 STE d          -2.711  11.045  18.158  0.00  0.00     0.033 H 
BRANCH   7  10
ATOM     10  C7  STE d          -1.463  11.878  19.693  0.00  0.00    -0.065 C 
ATOM     11  H11 STE d          -1.413  11.288  20.620  0.00  0.00     0.033 H 
ATOM     12  H12 STE d          -0.515  12.417  19.550  0.00  0.00     0.033 H 
BRANCH  10  13
ATOM     13  C6  STE d          -2.595  12.890  19.812  0.00  0.00    -0.065 C 
ATOM     14  H9  STE d          -3.534  12.426  19.476  0.00  0.00     0.033 H 
ATOM     15  H10 STE d          -2.695  13.202  20.862  0.00  0.00     0.033 H 
BRANCH  13  16
ATOM     16  C5  STE d          -2.303  14.113  18.950  0.00  0.00    -0.065 C 
ATOM     17  H7  STE d          -1.893  14.908  19.589  0.00  0.00     0.033 H 
ATOM     18  H8  STE d          -1.561  13.838  18.185  0.00  0.00     0.033 H 
BRANCH  16  19
ATOM     19  C4  STE d          -3.549  14.639  18.256  0.00  0.00    -0.065 C 
ATOM     20  H5  STE d          -4.020  13.815  17.700  0.00  0.00     0.033 H 
ATOM     21  H6  STE d          -4.249  15.015  19.017  0.00  0.00     0.033 H 
BRANCH  19  22
ATOM     22  C3  STE d          -3.222  15.769  17.284  0.00  0.00    -0.056 C 
ATOM     23  H3  STE d          -2.130  15.834  17.166  0.00  0.00     0.033 H 
ATOM     24  H4  STE d          -3.683  15.546  16.310  0.00  0.00     0.033 H 
BRANCH  22  25
ATOM     25  C2  STE d          -3.748  17.111  17.786  0.00  0.00     0.016 C 
ATOM     26  H1  STE d          -4.454  16.944  18.612  0.00  0.00     0.049 H 
ATOM     27  H2  STE d          -2.908  17.726  18.140  0.00  0.00     0.049 H 
BRANCH  25  28
ATOM     28  C1  STE d          -4.450  17.817  16.656  0.00  0.00     0.172 C 
ATOM     29  O1  STE d          -4.396  19.071  16.622  0.00  0.00    -0.648 OA
ATOM     30  O2  STE d          -5.077  17.133  15.818  0.00  0.00    -0.648 OA
ENDBRANCH  25  28
ENDBRANCH  22  25
ENDBRANCH  19  22
ENDBRANCH  16  19
ENDBRANCH  13  16
ENDBRANCH  10  13
ENDBRANCH   7  10
ENDBRANCH   4   7
ENDBRANCH   1   4
BRANCH   1  31
ATOM     31  C11 STE d          -2.170   7.751  20.497  0.00  0.00    -0.065 C 
ATOM     32  H19 STE d          -1.250   7.749  21.100  0.00  0.00     0.033 H 
ATOM     33  H20 STE d          -2.034   7.102  19.619  0.00  0.00     0.033 H 
BRANCH  31  34
ATOM     34  C12 STE d          -3.327   7.248  21.329  0.00  0.00    -0.065 C 
ATOM     35  H21 STE d          -4.254   7.756  21.022  0.00  0.00     0.033 H 
ATOM     36  H22 STE d          -3.135   7.448  22.393  0.00  0.00     0.033 H 
BRANCH  34  37
ATOM     37  C13 STE d          -3.460   5.770  21.105  0.00  0.00    -0.065 C 
ATOM     38  H23 STE d          -4.515   5.482  21.229  0.00  0.00     0.033 H 
ATOM     39  H24 STE d          -2.845   5.239  21.847  0.00  0.00     0.033 H 
BRANCH  37  40
ATOM     40  C14 STE d          -3.002   5.378  19.711  0.00  0.00    -0.065 C 
ATOM     41  H25 STE d          -2.342   4.502  19.785  0.00  0.00     0.033 H 
ATOM     42  H26 STE d          -2.447   6.219  19.267  0.00  0.00     0.033 H 
BRANCH  40  43
ATOM     43  C15 STE d          -4.187   5.034  18.809  0.00  0.00    -0.065 C 
ATOM     44  H27 STE d          -5.036   4.692  19.419  0.00  0.00     0.033 H 
ATOM     45  H28 STE d          -3.902   4.242  18.102  0.00  0.00     0.033 H 
BRANCH  43  46
ATOM     46  C16 STE d          -4.564   6.292  18.054  0.00  0.00    -0.065 C 
ATOM     47  H29 STE d          -4.392   6.122  16.980  0.00  0.00     0.033 H 
ATOM     48  H30 STE d          -3.924   7.116  18.403  0.00  0.00     0.033 H 
BRANCH  46  49
ATOM     49  C17 STE d          -6.006   6.681  18.256  0.00  0.00    -0.069 C 
ATOM     50  H31 STE d          -6.514   5.876  18.806  0.00  0.00     0.032 H 
ATOM     51  H32 STE d          -6.478   6.808  17.271  0.00  0.00     0.032 H 
BRANCH  49  52
ATOM     52  C18 STE d          -6.156   7.970  19.035  0.00  0.00    -0.077 C 
ATOM     53  H33 STE d          -5.161   8.362  19.292  0.00  0.00     0.027 H 
ATOM     54  H34 STE d          -6.723   7.777  19.958  0.00  0.00     0.027 H 
ATOM     55  H35 STE d          -6.694   8.709  18.422  0.00  0.00     0.027 H 
ENDBRANCH  49  52
ENDBRANCH  46  49
ENDBRANCH  43  46
ENDBRANCH  40  43
ENDBRANCH  37  40
ENDBRANCH  34  37
ENDBRANCH  31  34
ENDBRANCH   1  31
TORSDOF 17
ENDMDL
MODEL 9
REMARK VINA RESULT:      -5.7      1.597      3.999
REMARK  17 active torsions:
REMARK  status: ('A' for Active; 'I' for Inactive)
REMARK    1  A    between atoms: C1_1  and  C2_4 
REMARK    2  A    between atoms: C2_4  and  C3_5 
REMARK    3  A    between atoms: C3_5  and  C4_6 
REMARK    4  A    between atoms: C4_6  and  C5_7 
REMARK    5  A    between atoms: C5_7  and  C6_8 
REMARK    6  A    between atoms: C6_8  and  C7_9 
REMARK    7  A    between atoms: C7_9  and  C8_10 
REMARK    8  A    between atoms: C8_10  and  C9_11 
REMARK    9  A    between atoms: C9_11  and  C10_12 
REMARK   10  A    between atoms: C10_12  and  C11_13 
REMARK   11  A    between atoms: C11_13  and  C12_14 
REMARK   12  A    between atoms: C12_14  and  C13_15 
REMARK   13  A    between atoms: C13_15  and  C14_16 
REMARK   14  A    between atoms: C14_16  and  C15_17 
REMARK   15  A    between atoms: C15_17  and  C16_18 
REMARK   16  A    between atoms: C16_18  and  C17_19 
REMARK   17  A    between atoms: C17_19  and  C18_20 
ROOT
ATOM      1  C10 STE d          -5.069  16.345  14.279  0.00  0.00    -0.065 C 
ATOM      2  H17 STE d          -6.040  16.509  14.770  0.00  0.00     0.033 H 
ATOM      3  H18 STE d          -5.192  16.419  13.188  0.00  0.00     0.033 H 
ENDROOT
BRANCH   1   4
ATOM      4  C9  STE d          -4.512  14.979  14.655  0.00  0.00    -0.065 C 
ATOM      5  H15 STE d          -5.276  14.208  14.476  0.00  0.00     0.033 H 
ATOM      6  H16 STE d          -3.623  14.762  14.045  0.00  0.00     0.033 H 
BRANCH   4   7
ATOM      7  C8  STE d          -4.130  14.986  16.126  0.00  0.00    -0.065 C 
ATOM      8  H13 STE d          -3.128  15.422  16.248  0.00  0.00     0.033 H 
ATOM      9  H14 STE d          -4.861  15.577  16.698  0.00  0.00     0.033 H 
BRANCH   7  10
ATOM     10  C7  STE d          -4.129  13.560  16.622  0.00  0.00    -0.065 C 
ATOM     11  H11 STE d          -4.811  12.964  15.999  0.00  0.00     0.033 H 
ATOM     12  H12 STE d          -3.110  13.154  16.540  0.00  0.00     0.033 H 
BRANCH  10  13
ATOM     13  C6  STE d          -4.582  13.477  18.073  0.00  0.00    -0.065 C 
ATOM     14  H9  STE d          -4.268  14.388  18.605  0.00  0.00     0.033 H 
ATOM     15  H10 STE d          -5.678  13.392  18.107  0.00  0.00     0.033 H 
BRANCH  13  16
ATOM     16  C5  STE d          -3.962  12.260  18.751  0.00  0.00    -0.065 C 
ATOM     17  H7  STE d          -3.905  12.448  19.833  0.00  0.00     0.033 H 
ATOM     18  H8  STE d          -4.603  11.386  18.565  0.00  0.00     0.033 H 
BRANCH  16  19
ATOM     19  C4  STE d          -2.565  11.963  18.233  0.00  0.00    -0.065 C 
ATOM     20  H5  STE d          -2.428  12.473  17.268  0.00  0.00     0.033 H 
ATOM     21  H6  STE d          -1.828  12.342  18.956  0.00  0.00     0.033 H 
BRANCH  19  22
ATOM     22  C3  STE d          -2.340  10.466  18.037  0.00  0.00    -0.056 C 
ATOM     23  H3  STE d          -3.281   9.933  18.242  0.00  0.00     0.033 H 
ATOM     24  H4  STE d          -2.035  10.283  16.996  0.00  0.00     0.033 H 
BRANCH  22  25
ATOM     25  C2  STE d          -1.257   9.934  18.971  0.00  0.00     0.016 C 
ATOM     26  H1  STE d          -0.453   9.474  18.379  0.00  0.00     0.049 H 
ATOM     27  H2  STE d          -0.845  10.762  19.567  0.00  0.00     0.049 H 
BRANCH  25  28
ATOM     28  C1  STE d          -1.861   8.903  19.888  0.00  0.00     0.172 C 
ATOM     29  O1  STE d          -1.132   7.955  20.271  0.00  0.00    -0.648 OA
ATOM     30  O2  STE d          -3.065   9.016  20.208  0.00  0.00    -0.648 OA
ENDBRANCH  25  28
ENDBRANCH  22  25
ENDBRANCH  19  22
ENDBRANCH  16  19
ENDBRANCH  13  16
ENDBRANCH  10  13
ENDBRANCH   7  10
ENDBRANCH   4   7
ENDBRANCH   1   4
BRANCH   1  31
ATOM     31  C11 STE d          -4.057  17.364  14.764  0.00  0.00    -0.065 C 
ATOM     32  H19 STE d          -3.166  17.339  14.120  0.00  0.00     0.033 H 
ATOM     33  H20 STE d          -3.767  17.137  15.800  0.00  0.00     0.033 H 
BRANCH  31  34
ATOM     34  C12 STE d          -4.696  18.733  14.699  0.00  0.00    -0.065 C 
ATOM     35  H21 STE d          -5.768  18.633  14.478  0.00  0.00     0.033 H 
ATOM     36  H22 STE d          -4.213  19.331  13.913  0.00  0.00     0.033 H 
BRANCH  34  37
ATOM     37  C13 STE d          -4.512  19.400  16.031  0.00  0.00    -0.065 C 
ATOM     38  H23 STE d          -5.231  20.228  16.120  0.00  0.00     0.033 H 
ATOM     39  H24 STE d          -3.487  19.796  16.094  0.00  0.00     0.033 H 
BRANCH  37  40
ATOM     40  C14 STE d          -4.737  18.426  17.174  0.00  0.00    -0.065 C 
ATOM     41  H25 STE d          -5.016  17.446  16.758  0.00  0.00     0.033 H 
ATOM     42  H26 STE d          -5.554  18.800  17.808  0.00  0.00     0.033 H 
BRANCH  40  43
ATOM     43  C15 STE d          -3.480  18.264  18.027  0.00  0.00    -0.065 C 
ATOM     44  H27 STE d          -3.565  18.873  18.940  0.00  0.00     0.033 H 
ATOM     45  H28 STE d          -2.595  18.582  17.457  0.00  0.00     0.033 H 
BRANCH  43  46
ATOM     46  C16 STE d          -3.363  16.799  18.391  0.00  0.00    -0.065 C 
ATOM     47  H29 STE d          -3.378  16.204  17.466  0.00  0.00     0.033 H 
ATOM     48  H30 STE d          -4.223  16.522  19.019  0.00  0.00     0.033 H 
BRANCH  46  49
ATOM     49  C17 STE d          -2.096  16.486  19.145  0.00  0.00    -0.069 C 
ATOM     50  H31 STE d          -2.319  16.482  20.222  0.00  0.00     0.032 H 
ATOM     51  H32 STE d          -1.353  17.267  18.926  0.00  0.00     0.032 H 
BRANCH  49  52
ATOM     52  C18 STE d          -1.511  15.142  18.766  0.00  0.00    -0.077 C 
ATOM     53  H33 STE d          -0.671  15.290  18.072  0.00  0.00     0.027 H 
ATOM     54  H34 STE d          -2.284  14.529  18.280  0.00  0.00     0.027 H 
ATOM     55  H35 STE d          -1.152  14.630  19.671  0.00  0.00     0.027 H 
ENDBRANCH  49  52
ENDBRANCH  46  49
ENDBRANCH  43  46
ENDBRANCH  40  43
ENDBRANCH  37  40
ENDBRANCH  34  37
ENDBRANCH  31  34
ENDBRANCH   1  31
TORSDOF 17
ENDMDL
MODEL 10
REMARK VINA RESULT:      -5.6      3.749      9.117
REMARK  17 active torsions:
REMARK  status: ('A' for Active; 'I' for Inactive)
REMARK    1  A    between atoms: C1_1  and  C2_4 
REMARK    2  A    between atoms: C2_4  and  C3_5 
REMARK    3  A    between atoms: C3_5  and  C4_6 
REMARK    4  A    between atoms: C4_6  and  C5_7 
REMARK    5  A    between atoms: C5_7  and  C6_8 
REMARK    6  A    between atoms: C6_8  and  C7_9 
REMARK    7  A    between atoms: C7_9  and  C8_10 
REMARK    8  A    between atoms: C8_10  and  C9_11 
REMARK    9  A    between atoms: C9_11  and  C10_12 
REMARK   10  A    between atoms: C10_12  and  C11_13 
REMARK   11  A    between atoms: C11_13  and  C12_14 
REMARK   12  A    between atoms: C12_14  and  C13_15 
REMARK   13  A    between atoms: C13_15  and  C14_16 
REMARK   14  A    between atoms: C14_16  and  C15_17 
REMARK   15  A    between atoms: C15_17  and  C16_18 
REMARK   16  A    between atoms: C16_18  and  C17_19 
REMARK   17  A    between atoms: C17_19  and  C18_20 
ROOT
ATOM      1  C10 STE d          -2.821   8.722  19.359  0.00  0.00    -0.065 C 
ATOM      2  H17 STE d          -2.968   8.176  18.416  0.00  0.00     0.033 H 
ATOM      3  H18 STE d          -3.635   9.452  19.492  0.00  0.00     0.033 H 
ENDROOT
BRANCH   1   4
ATOM      4  C9  STE d          -1.474   9.431  19.354  0.00  0.00    -0.065 C 
ATOM      5  H15 STE d          -1.150   9.615  20.389  0.00  0.00     0.033 H 
ATOM      6  H16 STE d          -0.729   8.803  18.842  0.00  0.00     0.033 H 
BRANCH   4   7
ATOM      7  C8  STE d          -1.612  10.756  18.621  0.00  0.00    -0.065 C 
ATOM      8  H13 STE d          -0.960  10.760  17.735  0.00  0.00     0.033 H 
ATOM      9  H14 STE d          -2.657  10.901  18.309  0.00  0.00     0.033 H 
BRANCH   7  10
ATOM     10  C7  STE d          -1.202  11.862  19.562  0.00  0.00    -0.065 C 
ATOM     11  H11 STE d          -1.051  11.441  20.566  0.00  0.00     0.033 H 
ATOM     12  H12 STE d          -0.261  12.305  19.204  0.00  0.00     0.033 H 
BRANCH  10  13
ATOM     13  C6  STE d          -2.266  12.950  19.636  0.00  0.00    -0.065 C 
ATOM     14  H9  STE d          -2.480  13.177  20.690  0.00  0.00     0.033 H 
ATOM     15  H10 STE d          -1.894  13.855  19.133  0.00  0.00     0.033 H 
BRANCH  13  16
ATOM     16  C5  STE d          -3.546  12.484  18.952  0.00  0.00    -0.065 C 
ATOM     17  H7  STE d          -3.330  11.571  18.379  0.00  0.00     0.033 H 
ATOM     18  H8  STE d          -4.299  12.264  19.723  0.00  0.00     0.033 H 
BRANCH  16  19
ATOM     19  C4  STE d          -4.107  13.533  18.006  0.00  0.00    -0.065 C 
ATOM     20  H5  STE d          -4.055  13.148  16.977  0.00  0.00     0.033 H 
ATOM     21  H6  STE d          -5.156  13.729  18.272  0.00  0.00     0.033 H 
BRANCH  19  22
ATOM     22  C3  STE d          -3.325  14.842  18.084  0.00  0.00    -0.056 C 
ATOM     23  H3  STE d          -3.536  15.327  19.048  0.00  0.00     0.033 H 
ATOM     24  H4  STE d          -2.250  14.620  18.013  0.00  0.00     0.033 H 
BRANCH  22  25
ATOM     25  C2  STE d          -3.710  15.794  16.955  0.00  0.00     0.016 C 
ATOM     26  H1  STE d          -2.853  15.930  16.279  0.00  0.00     0.049 H 
ATOM     27  H2  STE d          -4.557  15.375  16.392  0.00  0.00     0.049 H 
BRANCH  25  28
ATOM     28  C1  STE d          -4.102  17.123  17.545  0.00  0.00     0.172 C 
ATOM     29  O1  STE d          -3.335  17.639  18.394  0.00  0.00    -0.648 OA
ATOM     30  O2  STE d          -5.182  17.643  17.189  0.00  0.00    -0.648 OA
ENDBRANCH  25  28
ENDBRANCH  22  25
ENDBRANCH  19  22
ENDBRANCH  16  19
ENDBRANCH  13  16
ENDBRANCH  10  13
ENDBRANCH   7  10
ENDBRANCH   4   7
ENDBRANCH   1   4
BRANCH   1  31
ATOM     31  C11 STE d          -2.787   7.756  20.526  0.00  0.00    -0.065 C 
ATOM     32  H19 STE d          -2.378   8.258  21.414  0.00  0.00     0.033 H 
ATOM     33  H20 STE d          -2.160   6.888  20.273  0.00  0.00     0.033 H 
BRANCH  31  34
ATOM     34  C12 STE d          -4.201   7.299  20.804  0.00  0.00    -0.065 C 
ATOM     35  H21 STE d          -4.551   7.729  21.753  0.00  0.00     0.033 H 
ATOM     36  H22 STE d          -4.232   6.201  20.865  0.00  0.00     0.033 H 
BRANCH  34  37
ATOM     37  C13 STE d          -5.077   7.770  19.679  0.00  0.00    -0.065 C 
ATOM     38  H23 STE d          -4.480   7.818  18.756  0.00  0.00     0.033 H 
ATOM     39  H24 STE d          -5.462   8.772  19.921  0.00  0.00     0.033 H 
BRANCH  37  40
ATOM     40  C14 STE d          -6.249   6.830  19.460  0.00  0.00    -0.065 C 
ATOM     41  H25 STE d          -6.952   7.293  18.754  0.00  0.00     0.033 H 
ATOM     42  H26 STE d          -6.755   6.659  20.422  0.00  0.00     0.033 H 
BRANCH  40  43
ATOM     43  C15 STE d          -5.790   5.486  18.895  0.00  0.00    -0.065 C 
ATOM     44  H27 STE d          -6.658   4.912  18.539  0.00  0.00     0.033 H 
ATOM     45  H28 STE d          -5.265   4.912  19.672  0.00  0.00     0.033 H 
BRANCH  43  46
ATOM     46  C16 STE d          -4.851   5.774  17.742  0.00  0.00    -0.065 C 
ATOM     47  H29 STE d          -4.342   6.732  17.933  0.00  0.00     0.033 H 
ATOM     48  H30 STE d          -5.443   5.852  16.818  0.00  0.00     0.033 H 
BRANCH  46  49
ATOM     49  C17 STE d          -3.808   4.703  17.559  0.00  0.00    -0.069 C 
ATOM     50  H31 STE d          -3.052   5.065  16.846  0.00  0.00     0.032 H 
ATOM     51  H32 STE d          -4.293   3.803  17.153  0.00  0.00     0.032 H 
BRANCH  49  52
ATOM     52  C18 STE d          -3.116   4.337  18.855  0.00  0.00    -0.077 C 
ATOM     53  H33 STE d          -3.566   3.421  19.264  0.00  0.00     0.027 H 
ATOM     54  H34 STE d          -3.233   5.157  19.577  0.00  0.00     0.027 H 
ATOM     55  H35 STE d          -2.046   4.165  18.664  0.00  0.00     0.027 H 
ENDBRANCH  49  52
ENDBRANCH  46  49
ENDBRANCH  43  46
ENDBRANCH  40  43
ENDBRANCH  37  40
ENDBRANCH  34  37
ENDBRANCH  31  34
ENDBRANCH   1  31
TORSDOF 17
ENDMDL
