MODEL 1
REMARK VINA RESULT:      -5.4      0.000      0.000
REMARK  16 active torsions:
REMARK  status: ('A' for Active; 'I' for Inactive)
REMARK    1  A    between atoms: C1_1  and  C2_4 
REMARK    2  A    between atoms: C2_4  and  O2_16 
REMARK    3  A    between atoms: C4_6  and  O4_7 
REMARK    4  A    between atoms: C5_8  and  O5_9 
REMARK    5  A    between atoms: C6_10  and  C7_12 
REMARK    6  A    between atoms: C7_12  and  O7_13 
REMARK    7  A    between atoms: C7_12  and  C8_14 
REMARK    8  A    between atoms: C8_14  and  O8_15 
REMARK    9  A    between atoms: O8_15  and  C2_20 
REMARK   10  A    between atoms: O2_16  and  C9_17 
REMARK   11  A    between atoms: C10_18  and  C11_19 
REMARK   12  A    between atoms: C2_20  and  C1_21 
REMARK   13  A    between atoms: C6_27  and  C7_29 
REMARK   14  A    between atoms: C7_29  and  O7_30 
REMARK   15  A    between atoms: C7_29  and  C8_31 
REMARK   16  A    between atoms: C8_31  and  O8_32 
ROOT
ATOM      1  C7  KDA d          28.467  -5.047   2.725  0.00  0.00     0.083 C 
ATOM      2  H8  KDA d          28.057  -4.711   1.760  0.00  0.00     0.090 H 
ENDROOT
BRANCH   1   3
ATOM      3  C6  KDA d          28.619  -3.856   3.663  0.00  0.00     0.096 C 
ATOM      4  C5  KDA d          27.724  -3.878   4.920  0.00  0.00     0.088 C 
ATOM      5  C4  KDA d          27.920  -2.573   5.719  0.00  0.00     0.068 C 
ATOM      6  H5  KDA d          27.996  -4.730   5.560  0.00  0.00     0.091 H 
ATOM      7  C3  KDA d          27.788  -1.288   4.875  0.00  0.00     0.024 C 
ATOM      8  H3  KDA d          28.933  -2.597   6.147  0.00  0.00     0.087 H 
ATOM      9  C2  KDA d          28.565  -1.434   3.545  0.00  0.00     0.262 C 
ATOM     10  H1  KDA d          26.726  -1.105   4.656  0.00  0.00     0.045 H 
ATOM     11  H2  KDA d          28.197  -0.438   5.441  0.00  0.00     0.045 H 
ATOM     12  O6  KDA d          28.291  -2.671   2.888  0.00  0.00    -0.335 OA
ATOM     13  H7  KDA d          29.667  -3.808   3.993  0.00  0.00     0.091 H 
BRANCH   4  14
ATOM     14  O5  KDA d          26.352  -4.041   4.452  0.00  0.00    -0.390 OA
ATOM     15  H6  KDA d          26.322  -4.727   3.796  0.00  0.00     0.210 HD
ENDBRANCH   4  14
BRANCH   5  16
ATOM     16  O4  KDA d          26.972  -2.483   6.783  0.00  0.00    -0.393 OA
ATOM     17  H4  KDA d          26.791  -1.569   6.968  0.00  0.00     0.210 HD
ENDBRANCH   5  16
BRANCH   9  18
ATOM     18  C1  KDA d          28.128  -0.241   2.668  0.00  0.00     0.239 C 
ATOM     19  O1A KDA d          28.439  -0.260   1.453  0.00  0.00    -0.644 OA
ATOM     20  O1B KDA d          27.490   0.669   3.255  0.00  0.00    -0.644 OA
ENDBRANCH   9  18
BRANCH   9  21
ATOM     21  O2  KDA d          29.998  -1.337   3.831  0.00  0.00    -0.317 OA
BRANCH  21  22
ATOM     22  C9  KDA d          30.169  -0.292   4.715  0.00  0.00     0.013 C 
ATOM     23  C10 KDA d          31.050   0.767   4.533  0.00  0.00    -0.086 C 
ATOM     24  H13 KDA d          31.139   1.519   5.316  0.00  0.00     0.079 H 
ATOM     25  H12 KDA d          29.568  -0.297   5.623  0.00  0.00     0.122 H 
BRANCH  23  26
ATOM     26  C11 KDA d          31.814   0.896   3.397  0.00  0.00    -0.058 C 
ATOM     27  H14 KDA d          32.718   0.277   3.490  0.00  0.00     0.032 H 
ATOM     28  H15 KDA d          32.103   1.950   3.267  0.00  0.00     0.032 H 
ATOM     29  H16 KDA d          31.232   0.566   2.524  0.00  0.00     0.032 H 
ENDBRANCH  23  26
ENDBRANCH  21  22
ENDBRANCH   9  21
ENDBRANCH   1   3
BRANCH   1  30
ATOM     30  O7  KDA d          27.586  -5.999   3.333  0.00  0.00    -0.391 OA
ATOM     31  H9  KDA d          27.676  -5.954   4.277  0.00  0.00     0.210 HD
ENDBRANCH   1  30
BRANCH   1  32
ATOM     32  C8  KDA d          29.823  -5.720   2.506  0.00  0.00     0.050 C 
ATOM     33  H10 KDA d          29.911  -6.109   1.481  0.00  0.00     0.078 H 
ATOM     34  H11 KDA d          29.977  -6.540   3.222  0.00  0.00     0.078 H 
BRANCH  32  35
ATOM     35  O8  KDA d          30.774  -4.633   2.739  0.00  0.00    -0.341 OA
BRANCH  35  36
ATOM     36  C2  KDA d          31.649  -4.335   1.600  0.00  0.00     0.276 C 
ATOM     37  C3  KDA d          32.470  -3.240   1.876  0.00  0.00    -0.036 C 
ATOM     38  C4  KDA d          32.365  -1.977   1.253  0.00  0.00    -0.099 C 
ATOM     39  H17 KDA d          33.249  -3.370   2.627  0.00  0.00     0.085 H 
ATOM     40  C5  KDA d          31.394  -1.691   0.285  0.00  0.00    -0.023 C 
ATOM     41  H18 KDA d          33.067  -1.194   1.536  0.00  0.00     0.076 H 
ATOM     42  C6  KDA d          30.294  -2.753   0.264  0.00  0.00     0.072 C 
ATOM     43  H19 KDA d          31.874  -1.655  -0.704  0.00  0.00     0.042 H 
ATOM     44  H20 KDA d          30.942  -0.714   0.510  0.00  0.00     0.042 H 
ATOM     45  O6  KDA d          30.858  -4.083   0.413  0.00  0.00    -0.335 OA
ATOM     46  H21 KDA d          29.602  -2.531   1.089  0.00  0.00     0.088 H 
BRANCH  36  47
ATOM     47  C1  KDA d          32.536  -5.555   1.322  0.00  0.00     0.243 C 
ATOM     48  O1B KDA d          32.660  -5.891   0.149  0.00  0.00    -0.644 OA
ATOM     49  O1A KDA d          33.067  -6.113   2.302  0.00  0.00    -0.644 OA
ENDBRANCH  36  47
BRANCH  42  50
ATOM     50  C7  KDA d          29.497  -2.898  -1.046  0.00  0.00     0.081 C 
ATOM     51  H22 KDA d          30.025  -3.615  -1.692  0.00  0.00     0.090 H 
BRANCH  50  52
ATOM     52  O7  KDA d          29.450  -1.637  -1.695  0.00  0.00    -0.391 OA
ATOM     53  H23 KDA d          29.495  -1.764  -2.636  0.00  0.00     0.210 HD
ENDBRANCH  50  52
BRANCH  50  54
ATOM     54  C8  KDA d          28.075  -3.403  -0.842  0.00  0.00     0.043 C 
ATOM     55  H24 KDA d          27.725  -3.096   0.155  0.00  0.00     0.078 H 
ATOM     56  H25 KDA d          28.070  -4.501  -0.910  0.00  0.00     0.078 H 
BRANCH  54  57
ATOM     57  O8  KDA d          27.189  -2.867  -1.838  0.00  0.00    -0.398 OA
ATOM     58  H26 KDA d          27.447  -3.185  -2.694  0.00  0.00     0.209 HD
ENDBRANCH  54  57
ENDBRANCH  50  54
ENDBRANCH  42  50
ENDBRANCH  35  36
ENDBRANCH  32  35
ENDBRANCH   1  32
TORSDOF 16
ENDMDL
MODEL 2
REMARK VINA RESULT:      -5.4      1.856      6.261
REMARK  16 active torsions:
REMARK  status: ('A' for Active; 'I' for Inactive)
REMARK    1  A    between atoms: C1_1  and  C2_4 
REMARK    2  A    between atoms: C2_4  and  O2_16 
REMARK    3  A    between atoms: C4_6  and  O4_7 
REMARK    4  A    between atoms: C5_8  and  O5_9 
REMARK    5  A    between atoms: C6_10  and  C7_12 
REMARK    6  A    between atoms: C7_12  and  O7_13 
REMARK    7  A    between atoms: C7_12  and  C8_14 
REMARK    8  A    between atoms: C8_14  and  O8_15 
REMARK    9  A    between atoms: O8_15  and  C2_20 
REMARK   10  A    between atoms: O2_16  and  C9_17 
REMARK   11  A    between atoms: C10_18  and  C11_19 
REMARK   12  A    between atoms: C2_20  and  C1_21 
REMARK   13  A    between atoms: C6_27  and  C7_29 
REMARK   14  A    between atoms: C7_29  and  O7_30 
REMARK   15  A    between atoms: C7_29  and  C8_31 
REMARK   16  A    between atoms: C8_31  and  O8_32 
ROOT
ATOM      1  C7  KDA d          28.223  -1.033   2.832  0.00  0.00     0.083 C 
ATOM      2  H8  KDA d          27.135  -1.143   2.951  0.00  0.00     0.090 H 
ENDROOT
BRANCH   1   3
ATOM      3  C6  KDA d          28.697  -1.863   1.645  0.00  0.00     0.096 C 
ATOM      4  C5  KDA d          27.739  -1.909   0.437  0.00  0.00     0.088 C 
ATOM      5  C4  KDA d          28.308  -2.855  -0.641  0.00  0.00     0.068 C 
ATOM      6  H5  KDA d          27.631  -0.903   0.005  0.00  0.00     0.091 H 
ATOM      7  C3  KDA d          28.719  -4.245  -0.111  0.00  0.00     0.024 C 
ATOM      8  H3  KDA d          29.202  -2.373  -1.064  0.00  0.00     0.087 H 
ATOM      9  C2  KDA d          29.514  -4.105   1.209  0.00  0.00     0.262 C 
ATOM     10  H1  KDA d          27.815  -4.844   0.073  0.00  0.00     0.045 H 
ATOM     11  H2  KDA d          29.347  -4.748  -0.861  0.00  0.00     0.045 H 
ATOM     12  O6  KDA d          28.884  -3.220   2.133  0.00  0.00    -0.335 OA
ATOM     13  H7  KDA d          29.659  -1.455   1.301  0.00  0.00     0.091 H 
BRANCH   4  14
ATOM     14  O5  KDA d          26.448  -2.360   0.944  0.00  0.00    -0.390 OA
ATOM     15  H6  KDA d          26.041  -2.934   0.307  0.00  0.00     0.210 HD
ENDBRANCH   4  14
BRANCH   5  16
ATOM     16  O4  KDA d          27.358  -3.061  -1.687  0.00  0.00    -0.393 OA
ATOM     17  H4  KDA d          27.490  -2.410  -2.366  0.00  0.00     0.210 HD
ENDBRANCH   5  16
BRANCH   9  18
ATOM     18  C1  KDA d          29.612  -5.529   1.796  0.00  0.00     0.239 C 
ATOM     19  O1A KDA d          28.689  -6.336   1.535  0.00  0.00    -0.644 OA
ATOM     20  O1B KDA d          30.624  -5.765   2.503  0.00  0.00    -0.644 OA
ENDBRANCH   9  18
BRANCH   9  21
ATOM     21  O2  KDA d          30.856  -3.609   0.891  0.00  0.00    -0.317 OA
BRANCH  21  22
ATOM     22  C9  KDA d          31.271  -4.257  -0.253  0.00  0.00     0.013 C 
ATOM     23  C10 KDA d          32.158  -3.732  -1.186  0.00  0.00    -0.086 C 
ATOM     24  H13 KDA d          32.385  -4.311  -2.081  0.00  0.00     0.079 H 
ATOM     25  H12 KDA d          30.874  -5.254  -0.441  0.00  0.00     0.122 H 
BRANCH  23  26
ATOM     26  C11 KDA d          32.757  -2.506  -1.017  0.00  0.00    -0.058 C 
ATOM     27  H14 KDA d          33.637  -2.615  -0.365  0.00  0.00     0.032 H 
ATOM     28  H15 KDA d          32.042  -1.809  -0.556  0.00  0.00     0.032 H 
ATOM     29  H16 KDA d          33.072  -2.113  -1.995  0.00  0.00     0.032 H 
ENDBRANCH  23  26
ENDBRANCH  21  22
ENDBRANCH   9  21
ENDBRANCH   1   3
BRANCH   1  30
ATOM     30  O7  KDA d          28.559   0.339   2.593  0.00  0.00    -0.391 OA
ATOM     31  H9  KDA d          28.998   0.415   1.755  0.00  0.00     0.210 HD
ENDBRANCH   1  30
BRANCH   1  32
ATOM     32  C8  KDA d          28.935  -1.486   4.108  0.00  0.00     0.050 C 
ATOM     33  H10 KDA d          29.773  -0.817   4.351  0.00  0.00     0.078 H 
ATOM     34  H11 KDA d          29.305  -2.516   4.010  0.00  0.00     0.078 H 
BRANCH  32  35
ATOM     35  O8  KDA d          27.883  -1.400   5.121  0.00  0.00    -0.341 OA
BRANCH  35  36
ATOM     36  C2  KDA d          28.064  -2.302   6.265  0.00  0.00     0.276 C 
ATOM     37  C3  KDA d          29.404  -2.348   6.654  0.00  0.00    -0.036 C 
ATOM     38  C4  KDA d          30.248  -3.472   6.504  0.00  0.00    -0.099 C 
ATOM     39  H17 KDA d          29.830  -1.453   7.106  0.00  0.00     0.085 H 
ATOM     40  C5  KDA d          29.813  -4.670   5.924  0.00  0.00    -0.023 C 
ATOM     41  H18 KDA d          31.276  -3.403   6.855  0.00  0.00     0.076 H 
ATOM     42  C6  KDA d          28.490  -4.486   5.181  0.00  0.00     0.072 C 
ATOM     43  H19 KDA d          29.677  -5.422   6.715  0.00  0.00     0.042 H 
ATOM     44  H20 KDA d          30.576  -5.019   5.212  0.00  0.00     0.042 H 
ATOM     45  O6  KDA d          27.591  -3.630   5.935  0.00  0.00    -0.335 OA
ATOM     46  H21 KDA d          28.717  -4.041   4.202  0.00  0.00     0.088 H 
BRANCH  36  47
ATOM     47  C1  KDA d          27.229  -1.784   7.442  0.00  0.00     0.243 C 
ATOM     48  O1B KDA d          27.294  -2.423   8.487  0.00  0.00    -0.644 OA
ATOM     49  O1A KDA d          26.550  -0.756   7.255  0.00  0.00    -0.644 OA
ENDBRANCH  36  47
BRANCH  42  50
ATOM     50  C7  KDA d          27.627  -5.746   4.982  0.00  0.00     0.081 C 
ATOM     51  H22 KDA d          27.221  -6.042   5.960  0.00  0.00     0.090 H 
BRANCH  50  52
ATOM     52  O7  KDA d          28.449  -6.790   4.485  0.00  0.00    -0.391 OA
ATOM     53  H23 KDA d          28.522  -6.713   3.540  0.00  0.00     0.210 HD
ENDBRANCH  50  52
BRANCH  50  54
ATOM     54  C8  KDA d          26.459  -5.540   4.028  0.00  0.00     0.043 C 
ATOM     55  H24 KDA d          25.536  -5.408   4.612  0.00  0.00     0.078 H 
ATOM     56  H25 KDA d          26.361  -6.425   3.382  0.00  0.00     0.078 H 
BRANCH  54  57
ATOM     57  O8  KDA d          26.663  -4.379   3.205  0.00  0.00    -0.398 OA
ATOM     58  H26 KDA d          26.667  -3.602   3.751  0.00  0.00     0.209 HD
ENDBRANCH  54  57
ENDBRANCH  50  54
ENDBRANCH  42  50
ENDBRANCH  35  36
ENDBRANCH  32  35
ENDBRANCH   1  32
TORSDOF 16
ENDMDL
MODEL 3
REMARK VINA RESULT:      -5.4      2.202      6.164
REMARK  16 active torsions:
REMARK  status: ('A' for Active; 'I' for Inactive)
REMARK    1  A    between atoms: C1_1  and  C2_4 
REMARK    2  A    between atoms: C2_4  and  O2_16 
REMARK    3  A    between atoms: C4_6  and  O4_7 
REMARK    4  A    between atoms: C5_8  and  O5_9 
REMARK    5  A    between atoms: C6_10  and  C7_12 
REMARK    6  A    between atoms: C7_12  and  O7_13 
REMARK    7  A    between atoms: C7_12  and  C8_14 
REMARK    8  A    between atoms: C8_14  and  O8_15 
REMARK    9  A    between atoms: O8_15  and  C2_20 
REMARK   10  A    between atoms: O2_16  and  C9_17 
REMARK   11  A    between atoms: C10_18  and  C11_19 
REMARK   12  A    between atoms: C2_20  and  C1_21 
REMARK   13  A    between atoms: C6_27  and  C7_29 
REMARK   14  A    between atoms: C7_29  and  O7_30 
REMARK   15  A    between atoms: C7_29  and  C8_31 
REMARK   16  A    between atoms: C8_31  and  O8_32 
ROOT
ATOM      1  C7  KDA d          28.091   0.202   3.767  0.00  0.00     0.083 C 
ATOM      2  H8  KDA d          27.089  -0.145   3.476  0.00  0.00     0.090 H 
ENDROOT
BRANCH   1   3
ATOM      3  C6  KDA d          29.151  -0.570   2.990  0.00  0.00     0.096 C 
ATOM      4  C5  KDA d          30.594  -0.040   3.121  0.00  0.00     0.088 C 
ATOM      5  C4  KDA d          31.532  -0.861   2.212  0.00  0.00     0.068 C 
ATOM      6  H5  KDA d          30.936  -0.134   4.162  0.00  0.00     0.091 H 
ATOM      7  C3  KDA d          31.041  -0.999   0.755  0.00  0.00     0.024 C 
ATOM      8  H3  KDA d          31.609  -1.870   2.643  0.00  0.00     0.087 H 
ATOM      9  C2  KDA d          29.534  -1.345   0.724  0.00  0.00     0.262 C 
ATOM     10  H1  KDA d          31.205  -0.049   0.226  0.00  0.00     0.045 H 
ATOM     11  H2  KDA d          31.608  -1.799   0.256  0.00  0.00     0.045 H 
ATOM     12  O6  KDA d          28.765  -0.511   1.589  0.00  0.00    -0.335 OA
ATOM     13  H7  KDA d          29.140  -1.614   3.336  0.00  0.00     0.091 H 
BRANCH   4  14
ATOM     14  O5  KDA d          30.555   1.370   2.749  0.00  0.00    -0.390 OA
ATOM     15  H6  KDA d          31.145   1.860   3.309  0.00  0.00     0.210 HD
ENDBRANCH   4  14
BRANCH   5  16
ATOM     16  O4  KDA d          32.835  -0.277   2.169  0.00  0.00    -0.393 OA
ATOM     17  H4  KDA d          33.031  -0.010   1.279  0.00  0.00     0.210 HD
ENDBRANCH   5  16
BRANCH   9  18
ATOM     18  C1  KDA d          29.090  -1.167  -0.743  0.00  0.00     0.239 C 
ATOM     19  O1A KDA d          27.974  -0.638  -0.959  0.00  0.00    -0.644 OA
ATOM     20  O1B KDA d          29.896  -1.579  -1.616  0.00  0.00    -0.644 OA
ENDBRANCH   9  18
BRANCH   9  21
ATOM     21  O2  KDA d          29.372  -2.746   1.122  0.00  0.00    -0.317 OA
BRANCH  21  22
ATOM     22  C9  KDA d          28.040  -3.066   0.959  0.00  0.00     0.013 C 
ATOM     23  C10 KDA d          27.561  -4.328   0.625  0.00  0.00    -0.086 C 
ATOM     24  H13 KDA d          26.490  -4.462   0.478  0.00  0.00     0.079 H 
ATOM     25  H12 KDA d          27.310  -2.272   1.103  0.00  0.00     0.122 H 
BRANCH  23  26
ATOM     26  C11 KDA d          28.394  -5.411   0.476  0.00  0.00    -0.058 C 
ATOM     27  H14 KDA d          27.969  -6.277   1.004  0.00  0.00     0.032 H 
ATOM     28  H15 KDA d          29.383  -5.174   0.896  0.00  0.00     0.032 H 
ATOM     29  H16 KDA d          28.498  -5.649  -0.593  0.00  0.00     0.032 H 
ENDBRANCH  23  26
ENDBRANCH  21  22
ENDBRANCH   9  21
ENDBRANCH   1   3
BRANCH   1  30
ATOM     30  O7  KDA d          28.236   1.597   3.473  0.00  0.00    -0.391 OA
ATOM     31  H9  KDA d          29.132   1.863   3.638  0.00  0.00     0.210 HD
ENDBRANCH   1  30
BRANCH   1  32
ATOM     32  C8  KDA d          28.293   0.006   5.270  0.00  0.00     0.050 C 
ATOM     33  H10 KDA d          27.926   0.874   5.835  0.00  0.00     0.078 H 
ATOM     34  H11 KDA d          29.354  -0.163   5.507  0.00  0.00     0.078 H 
BRANCH  32  35
ATOM     35  O8  KDA d          27.495  -1.186   5.559  0.00  0.00    -0.341 OA
BRANCH  35  36
ATOM     36  C2  KDA d          28.166  -2.179   6.405  0.00  0.00     0.276 C 
ATOM     37  C3  KDA d          29.549  -1.993   6.389  0.00  0.00    -0.036 C 
ATOM     38  C4  KDA d          30.474  -2.878   5.792  0.00  0.00    -0.099 C 
ATOM     39  H17 KDA d          29.944  -1.100   6.872  0.00  0.00     0.085 H 
ATOM     40  C5  KDA d          30.080  -4.048   5.131  0.00  0.00    -0.023 C 
ATOM     41  H18 KDA d          31.535  -2.641   5.848  0.00  0.00     0.076 H 
ATOM     42  C6  KDA d          28.580  -4.049   4.838  0.00  0.00     0.072 C 
ATOM     43  H19 KDA d          30.320  -4.915   5.764  0.00  0.00     0.042 H 
ATOM     44  H20 KDA d          30.630  -4.124   4.181  0.00  0.00     0.042 H 
ATOM     45  O6  KDA d          27.834  -3.518   5.965  0.00  0.00    -0.335 OA
ATOM     46  H21 KDA d          28.416  -3.433   3.941  0.00  0.00     0.088 H 
BRANCH  36  47
ATOM     47  C1  KDA d          27.666  -2.021   7.847  0.00  0.00     0.243 C 
ATOM     48  O1B KDA d          28.407  -2.428   8.734  0.00  0.00    -0.644 OA
ATOM     49  O1A KDA d          26.551  -1.489   8.012  0.00  0.00    -0.644 OA
ENDBRANCH  36  47
BRANCH  42  50
ATOM     50  C7  KDA d          27.913  -5.424   4.642  0.00  0.00     0.081 C 
ATOM     51  H22 KDA d          27.730  -5.861   5.635  0.00  0.00     0.090 H 
BRANCH  50  52
ATOM     52  O7  KDA d          28.800  -6.264   3.921  0.00  0.00    -0.391 OA
ATOM     53  H23 KDA d          28.447  -7.146   3.894  0.00  0.00     0.210 HD
ENDBRANCH  50  52
BRANCH  50  54
ATOM     54  C8  KDA d          26.584  -5.356   3.903  0.00  0.00     0.043 C 
ATOM     55  H24 KDA d          25.926  -6.156   4.273  0.00  0.00     0.078 H 
ATOM     56  H25 KDA d          26.763  -5.498   2.827  0.00  0.00     0.078 H 
BRANCH  54  57
ATOM     57  O8  KDA d          25.943  -4.087   4.108  0.00  0.00    -0.398 OA
ATOM     58  H26 KDA d          25.471  -4.101   4.933  0.00  0.00     0.209 HD
ENDBRANCH  54  57
ENDBRANCH  50  54
ENDBRANCH  42  50
ENDBRANCH  35  36
ENDBRANCH  32  35
ENDBRANCH   1  32
TORSDOF 16
ENDMDL
MODEL 4
REMARK VINA RESULT:      -5.3      1.737      3.936
REMARK  16 active torsions:
REMARK  status: ('A' for Active; 'I' for Inactive)
REMARK    1  A    between atoms: C1_1  and  C2_4 
REMARK    2  A    between atoms: C2_4  and  O2_16 
REMARK    3  A    between atoms: C4_6  and  O4_7 
REMARK    4  A    between atoms: C5_8  and  O5_9 
REMARK    5  A    between atoms: C6_10  and  C7_12 
REMARK    6  A    between atoms: C7_12  and  O7_13 
REMARK    7  A    between atoms: C7_12  and  C8_14 
REMARK    8  A    between atoms: C8_14  and  O8_15 
REMARK    9  A    between atoms: O8_15  and  C2_20 
REMARK   10  A    between atoms: O2_16  and  C9_17 
REMARK   11  A    between atoms: C10_18  and  C11_19 
REMARK   12  A    between atoms: C2_20  and  C1_21 
REMARK   13  A    between atoms: C6_27  and  C7_29 
REMARK   14  A    between atoms: C7_29  and  O7_30 
REMARK   15  A    between atoms: C7_29  and  C8_31 
REMARK   16  A    between atoms: C8_31  and  O8_32 
ROOT
ATOM      1  C7  KDA d          27.240  -3.093   1.589  0.00  0.00     0.083 C 
ATOM      2  H8  KDA d          26.226  -2.810   1.911  0.00  0.00     0.090 H 
ENDROOT
BRANCH   1   3
ATOM      3  C6  KDA d          28.017  -3.659   2.771  0.00  0.00     0.096 C 
ATOM      4  C5  KDA d          27.893  -5.182   2.983  0.00  0.00     0.088 C 
ATOM      5  C4  KDA d          28.655  -5.590   4.262  0.00  0.00     0.068 C 
ATOM      6  H5  KDA d          28.326  -5.718   2.126  0.00  0.00     0.091 H 
ATOM      7  C3  KDA d          28.299  -4.749   5.506  0.00  0.00     0.024 C 
ATOM      8  H3  KDA d          29.728  -5.465   4.061  0.00  0.00     0.087 H 
ATOM      9  C2  KDA d          28.261  -3.245   5.148  0.00  0.00     0.262 C 
ATOM     10  H1  KDA d          27.313  -5.057   5.882  0.00  0.00     0.045 H 
ATOM     11  H2  KDA d          29.057  -4.917   6.286  0.00  0.00     0.045 H 
ATOM     12  O6  KDA d          27.517  -2.987   3.959  0.00  0.00    -0.335 OA
ATOM     13  H7  KDA d          29.082  -3.421   2.629  0.00  0.00     0.091 H 
BRANCH   4  14
ATOM     14  O5  KDA d          26.467  -5.476   3.070  0.00  0.00    -0.390 OA
ATOM     15  H6  KDA d          26.017  -5.075   2.336  0.00  0.00     0.210 HD
ENDBRANCH   4  14
BRANCH   5  16
ATOM     16  O4  KDA d          28.403  -6.958   4.586  0.00  0.00    -0.393 OA
ATOM     17  H4  KDA d          27.466  -7.105   4.628  0.00  0.00     0.210 HD
ENDBRANCH   5  16
BRANCH   9  18
ATOM     18  C1  KDA d          27.617  -2.538   6.360  0.00  0.00     0.239 C 
ATOM     19  O1A KDA d          28.122  -2.734   7.490  0.00  0.00    -0.644 OA
ATOM     20  O1B KDA d          26.619  -1.817   6.109  0.00  0.00    -0.644 OA
ENDBRANCH   9  18
BRANCH   9  21
ATOM     21  O2  KDA d          29.638  -2.774   4.977  0.00  0.00    -0.317 OA
BRANCH  21  22
ATOM     22  C9  KDA d          29.590  -1.399   4.874  0.00  0.00     0.013 C 
ATOM     23  C10 KDA d          30.633  -0.541   5.203  0.00  0.00    -0.086 C 
ATOM     24  H13 KDA d          30.474   0.534   5.126  0.00  0.00     0.079 H 
ATOM     25  H12 KDA d          28.667  -0.953   4.508  0.00  0.00     0.122 H 
BRANCH  23  26
ATOM     26  C11 KDA d          31.858  -1.005   5.622  0.00  0.00    -0.058 C 
ATOM     27  H14 KDA d          32.410  -1.410   4.762  0.00  0.00     0.032 H 
ATOM     28  H15 KDA d          31.713  -1.796   6.372  0.00  0.00     0.032 H 
ATOM     29  H16 KDA d          32.430  -0.178   6.068  0.00  0.00     0.032 H 
ENDBRANCH  23  26
ENDBRANCH  21  22
ENDBRANCH   9  21
ENDBRANCH   1   3
BRANCH   1  30
ATOM     30  O7  KDA d          27.173  -4.092   0.564  0.00  0.00    -0.391 OA
ATOM     31  H9  KDA d          26.831  -3.705  -0.233  0.00  0.00     0.210 HD
ENDBRANCH   1  30
BRANCH   1  32
ATOM     32  C8  KDA d          27.963  -1.871   1.019  0.00  0.00     0.050 C 
ATOM     33  H10 KDA d          27.436  -0.942   1.282  0.00  0.00     0.078 H 
ATOM     34  H11 KDA d          28.058  -1.942  -0.074  0.00  0.00     0.078 H 
BRANCH  32  35
ATOM     35  O8  KDA d          29.275  -1.932   1.665  0.00  0.00    -0.341 OA
BRANCH  35  36
ATOM     36  C2  KDA d          30.412  -1.869   0.740  0.00  0.00     0.276 C 
ATOM     37  C3  KDA d          29.983  -1.975  -0.584  0.00  0.00    -0.036 C 
ATOM     38  C4  KDA d          30.234  -3.081  -1.427  0.00  0.00    -0.099 C 
ATOM     39  H17 KDA d          29.413  -1.144  -0.998  0.00  0.00     0.085 H 
ATOM     40  C5  KDA d          30.942  -4.211  -0.998  0.00  0.00    -0.023 C 
ATOM     41  H18 KDA d          29.862  -3.054  -2.450  0.00  0.00     0.076 H 
ATOM     42  C6  KDA d          31.078  -4.243   0.524  0.00  0.00     0.072 C 
ATOM     43  H19 KDA d          31.946  -4.195  -1.446  0.00  0.00     0.042 H 
ATOM     44  H20 KDA d          30.407  -5.114  -1.328  0.00  0.00     0.042 H 
ATOM     45  O6  KDA d          31.364  -2.917   1.044  0.00  0.00    -0.335 OA
ATOM     46  H21 KDA d          30.132  -4.624   0.935  0.00  0.00     0.088 H 
BRANCH  36  47
ATOM     47  C1  KDA d          31.124  -0.522   0.919  0.00  0.00     0.243 C 
ATOM     48  O1B KDA d          30.839   0.362   0.120  0.00  0.00    -0.644 OA
ATOM     49  O1A KDA d          31.933  -0.423   1.862  0.00  0.00    -0.644 OA
ENDBRANCH  36  47
BRANCH  42  50
ATOM     50  C7  KDA d          32.251  -5.062   1.097  0.00  0.00     0.081 C 
ATOM     51  H22 KDA d          33.166  -4.458   1.010  0.00  0.00     0.090 H 
BRANCH  50  52
ATOM     52  O7  KDA d          32.401  -6.245   0.329  0.00  0.00    -0.391 OA
ATOM     53  H23 KDA d          32.386  -6.025  -0.596  0.00  0.00     0.210 HD
ENDBRANCH  50  52
BRANCH  50  54
ATOM     54  C8  KDA d          32.071  -5.441   2.560  0.00  0.00     0.043 C 
ATOM     55  H24 KDA d          33.019  -5.843   2.946  0.00  0.00     0.078 H 
ATOM     56  H25 KDA d          31.288  -6.210   2.639  0.00  0.00     0.078 H 
BRANCH  54  57
ATOM     57  O8  KDA d          31.689  -4.300   3.346  0.00  0.00    -0.398 OA
ATOM     58  H26 KDA d          30.816  -4.435   3.694  0.00  0.00     0.209 HD
ENDBRANCH  54  57
ENDBRANCH  50  54
ENDBRANCH  42  50
ENDBRANCH  35  36
ENDBRANCH  32  35
ENDBRANCH   1  32
TORSDOF 16
ENDMDL
MODEL 5
REMARK VINA RESULT:      -5.0      1.944      4.426
REMARK  16 active torsions:
REMARK  status: ('A' for Active; 'I' for Inactive)
REMARK    1  A    between atoms: C1_1  and  C2_4 
REMARK    2  A    between atoms: C2_4  and  O2_16 
REMARK    3  A    between atoms: C4_6  and  O4_7 
REMARK    4  A    between atoms: C5_8  and  O5_9 
REMARK    5  A    between atoms: C6_10  and  C7_12 
REMARK    6  A    between atoms: C7_12  and  O7_13 
REMARK    7  A    between atoms: C7_12  and  C8_14 
REMARK    8  A    between atoms: C8_14  and  O8_15 
REMARK    9  A    between atoms: O8_15  and  C2_20 
REMARK   10  A    between atoms: O2_16  and  C9_17 
REMARK   11  A    between atoms: C10_18  and  C11_19 
REMARK   12  A    between atoms: C2_20  and  C1_21 
REMARK   13  A    between atoms: C6_27  and  C7_29 
REMARK   14  A    between atoms: C7_29  and  O7_30 
REMARK   15  A    between atoms: C7_29  and  C8_31 
REMARK   16  A    between atoms: C8_31  and  O8_32 
ROOT
ATOM      1  C7  KDA d          31.175  -0.268   2.308  0.00  0.00     0.083 C 
ATOM      2  H8  KDA d          32.196  -0.649   2.151  0.00  0.00     0.090 H 
ENDROOT
BRANCH   1   3
ATOM      3  C6  KDA d          30.634  -0.779   3.638  0.00  0.00     0.096 C 
ATOM      4  C5  KDA d          31.437  -1.924   4.290  0.00  0.00     0.088 C 
ATOM      5  C4  KDA d          30.720  -2.393   5.574  0.00  0.00     0.068 C 
ATOM      6  H5  KDA d          32.444  -1.573   4.555  0.00  0.00     0.091 H 
ATOM      7  C3  KDA d          29.220  -2.704   5.384  0.00  0.00     0.024 C 
ATOM      8  H3  KDA d          30.810  -1.587   6.316  0.00  0.00     0.087 H 
ATOM      9  C2  KDA d          28.540  -1.591   4.553  0.00  0.00     0.262 C 
ATOM     10  H1  KDA d          29.113  -3.665   4.859  0.00  0.00     0.045 H 
ATOM     11  H2  KDA d          28.736  -2.769   6.370  0.00  0.00     0.045 H 
ATOM     12  O6  KDA d          29.283  -1.253   3.383  0.00  0.00    -0.335 OA
ATOM     13  H7  KDA d          30.606   0.063   4.346  0.00  0.00     0.091 H 
BRANCH   4  14
ATOM     14  O5  KDA d          31.538  -2.983   3.293  0.00  0.00    -0.390 OA
ATOM     15  H6  KDA d          31.518  -3.828   3.727  0.00  0.00     0.210 HD
ENDBRANCH   4  14
BRANCH   5  16
ATOM     16  O4  KDA d          31.337  -3.571   6.096  0.00  0.00    -0.393 OA
ATOM     17  H4  KDA d          31.667  -3.393   6.969  0.00  0.00     0.210 HD
ENDBRANCH   5  16
BRANCH   9  18
ATOM     18  C1  KDA d          27.147  -2.138   4.176  0.00  0.00     0.239 C 
ATOM     19  O1A KDA d          26.878  -3.324   4.483  0.00  0.00    -0.644 OA
ATOM     20  O1B KDA d          26.385  -1.338   3.576  0.00  0.00    -0.644 OA
ENDBRANCH   9  18
BRANCH   9  21
ATOM     21  O2  KDA d          28.391  -0.405   5.400  0.00  0.00    -0.317 OA
BRANCH  21  22
ATOM     22  C9  KDA d          27.817  -0.818   6.585  0.00  0.00     0.013 C 
ATOM     23  C10 KDA d          26.711  -0.224   7.181  0.00  0.00    -0.086 C 
ATOM     24  H13 KDA d          26.364  -0.602   8.142  0.00  0.00     0.079 H 
ATOM     25  H12 KDA d          28.264  -1.673   7.090  0.00  0.00     0.122 H 
BRANCH  23  26
ATOM     26  C11 KDA d          26.040   0.826   6.598  0.00  0.00    -0.058 C 
ATOM     27  H14 KDA d          25.051   0.934   7.067  0.00  0.00     0.032 H 
ATOM     28  H15 KDA d          25.918   0.630   5.523  0.00  0.00     0.032 H 
ATOM     29  H16 KDA d          26.616   1.752   6.739  0.00  0.00     0.032 H 
ENDBRANCH  23  26
ENDBRANCH  21  22
ENDBRANCH   9  21
ENDBRANCH   1   3
BRANCH   1  30
ATOM     30  O7  KDA d          31.180   1.164   2.337  0.00  0.00    -0.391 OA
ATOM     31  H9  KDA d          31.509   1.462   3.176  0.00  0.00     0.210 HD
ENDBRANCH   1  30
BRANCH   1  32
ATOM     32  C8  KDA d          30.269  -0.722   1.162  0.00  0.00     0.050 C 
ATOM     33  H10 KDA d          30.268   0.014   0.345  0.00  0.00     0.078 H 
ATOM     34  H11 KDA d          29.239  -0.881   1.513  0.00  0.00     0.078 H 
BRANCH  32  35
ATOM     35  O8  KDA d          30.880  -1.981   0.736  0.00  0.00    -0.341 OA
BRANCH  35  36
ATOM     36  C2  KDA d          30.024  -2.814  -0.116  0.00  0.00     0.276 C 
ATOM     37  C3  KDA d          28.804  -2.184  -0.365  0.00  0.00    -0.036 C 
ATOM     38  C4  KDA d          27.557  -2.614   0.141  0.00  0.00    -0.099 C 
ATOM     39  H17 KDA d          28.814  -1.295  -0.995  0.00  0.00     0.085 H 
ATOM     40  C5  KDA d          27.425  -3.733   0.973  0.00  0.00    -0.023 C 
ATOM     41  H18 KDA d          26.663  -2.052  -0.127  0.00  0.00     0.076 H 
ATOM     42  C6  KDA d          28.777  -4.182   1.527  0.00  0.00     0.072 C 
ATOM     43  H19 KDA d          26.984  -4.558   0.394  0.00  0.00     0.042 H 
ATOM     44  H20 KDA d          26.762  -3.478   1.812  0.00  0.00     0.042 H 
ATOM     45  O6  KDA d          29.805  -4.105   0.504  0.00  0.00    -0.335 OA
ATOM     46  H21 KDA d          29.024  -3.525   2.374  0.00  0.00     0.088 H 
BRANCH  36  47
ATOM     47  C1  KDA d          30.736  -3.052  -1.454  0.00  0.00     0.243 C 
ATOM     48  O1B KDA d          30.313  -3.969  -2.148  0.00  0.00    -0.644 OA
ATOM     49  O1A KDA d          31.685  -2.297  -1.739  0.00  0.00    -0.644 OA
ENDBRANCH  36  47
BRANCH  42  50
ATOM     50  C7  KDA d          28.889  -5.653   1.972  0.00  0.00     0.081 C 
ATOM     51  H22 KDA d          28.609  -6.291   1.120  0.00  0.00     0.090 H 
BRANCH  50  52
ATOM     52  O7  KDA d          27.981  -5.879   3.038  0.00  0.00    -0.391 OA
ATOM     53  H23 KDA d          28.446  -5.824   3.866  0.00  0.00     0.210 HD
ENDBRANCH  50  52
BRANCH  50  54
ATOM     54  C8  KDA d          30.289  -6.048   2.420  0.00  0.00     0.043 C 
ATOM     55  H24 KDA d          31.025  -5.600   1.737  0.00  0.00     0.078 H 
ATOM     56  H25 KDA d          30.380  -7.144   2.390  0.00  0.00     0.078 H 
BRANCH  54  57
ATOM     57  O8  KDA d          30.550  -5.592   3.758  0.00  0.00    -0.398 OA
ATOM     58  H26 KDA d          31.318  -6.037   4.098  0.00  0.00     0.209 HD
ENDBRANCH  54  57
ENDBRANCH  50  54
ENDBRANCH  42  50
ENDBRANCH  35  36
ENDBRANCH  32  35
ENDBRANCH   1  32
TORSDOF 16
ENDMDL
MODEL 6
REMARK VINA RESULT:      -5.0      1.896      6.091
REMARK  16 active torsions:
REMARK  status: ('A' for Active; 'I' for Inactive)
REMARK    1  A    between atoms: C1_1  and  C2_4 
REMARK    2  A    between atoms: C2_4  and  O2_16 
REMARK    3  A    between atoms: C4_6  and  O4_7 
REMARK    4  A    between atoms: C5_8  and  O5_9 
REMARK    5  A    between atoms: C6_10  and  C7_12 
REMARK    6  A    between atoms: C7_12  and  O7_13 
REMARK    7  A    between atoms: C7_12  and  C8_14 
REMARK    8  A    between atoms: C8_14  and  O8_15 
REMARK    9  A    between atoms: O8_15  and  C2_20 
REMARK   10  A    between atoms: O2_16  and  C9_17 
REMARK   11  A    between atoms: C10_18  and  C11_19 
REMARK   12  A    between atoms: C2_20  and  C1_21 
REMARK   13  A    between atoms: C6_27  and  C7_29 
REMARK   14  A    between atoms: C7_29  and  O7_30 
REMARK   15  A    between atoms: C7_29  and  C8_31 
REMARK   16  A    between atoms: C8_31  and  O8_32 
ROOT
ATOM      1  C7  KDA d          31.678  -0.405   1.847  0.00  0.00     0.083 C 
ATOM      2  H8  KDA d          31.513   0.353   1.067  0.00  0.00     0.090 H 
ENDROOT
BRANCH   1   3
ATOM      3  C6  KDA d          31.239  -1.773   1.338  0.00  0.00     0.096 C 
ATOM      4  C5  KDA d          32.184  -2.440   0.316  0.00  0.00     0.088 C 
ATOM      5  C4  KDA d          31.565  -3.765  -0.174  0.00  0.00     0.068 C 
ATOM      6  H5  KDA d          33.155  -2.653   0.786  0.00  0.00     0.091 H 
ATOM      7  C3  KDA d          30.103  -3.643  -0.654  0.00  0.00     0.024 C 
ATOM      8  H3  KDA d          31.589  -4.472   0.669  0.00  0.00     0.087 H 
ATOM      9  C2  KDA d          29.278  -2.795   0.341  0.00  0.00     0.262 C 
ATOM     10  H1  KDA d          30.086  -3.160  -1.642  0.00  0.00     0.045 H 
ATOM     11  H2  KDA d          29.661  -4.647  -0.729  0.00  0.00     0.045 H 
ATOM     12  O6  KDA d          29.941  -1.586   0.709  0.00  0.00    -0.335 OA
ATOM     13  H7  KDA d          31.141  -2.448   2.201  0.00  0.00     0.091 H 
BRANCH   4  14
ATOM     14  O5  KDA d          32.370  -1.481  -0.768  0.00  0.00    -0.390 OA
ATOM     15  H6  KDA d          31.665  -1.576  -1.397  0.00  0.00     0.210 HD
ENDBRANCH   4  14
BRANCH   5  16
ATOM     16  O4  KDA d          32.324  -4.310  -1.253  0.00  0.00    -0.393 OA
ATOM     17  H4  KDA d          32.436  -3.649  -1.926  0.00  0.00     0.210 HD
ENDBRANCH   5  16
BRANCH   9  18
ATOM     18  C1  KDA d          27.942  -2.490  -0.370  0.00  0.00     0.239 C 
ATOM     19  O1A KDA d          27.877  -2.685  -1.607  0.00  0.00    -0.644 OA
ATOM     20  O1B KDA d          27.015  -2.059   0.361  0.00  0.00    -0.644 OA
ENDBRANCH   9  18
BRANCH   9  21
ATOM     21  O2  KDA d          29.026  -3.600   1.539  0.00  0.00    -0.317 OA
BRANCH  21  22
ATOM     22  C9  KDA d          28.570  -4.831   1.116  0.00  0.00     0.013 C 
ATOM     23  C10 KDA d          28.820  -6.036   1.763  0.00  0.00    -0.086 C 
ATOM     24  H13 KDA d          28.449  -6.959   1.318  0.00  0.00     0.079 H 
ATOM     25  H12 KDA d          27.970  -4.861   0.208  0.00  0.00     0.122 H 
BRANCH  23  26
ATOM     26  C11 KDA d          29.520  -6.101   2.944  0.00  0.00    -0.058 C 
ATOM     27  H14 KDA d          30.039  -7.069   3.010  0.00  0.00     0.032 H 
ATOM     28  H15 KDA d          28.824  -6.000   3.789  0.00  0.00     0.032 H 
ATOM     29  H16 KDA d          30.258  -5.286   2.979  0.00  0.00     0.032 H 
ENDBRANCH  23  26
ENDBRANCH  21  22
ENDBRANCH   9  21
ENDBRANCH   1   3
BRANCH   1  30
ATOM     30  O7  KDA d          33.068  -0.469   2.189  0.00  0.00    -0.391 OA
ATOM     31  H9  KDA d          33.504   0.317   1.883  0.00  0.00     0.210 HD
ENDBRANCH   1  30
BRANCH   1  32
ATOM     32  C8  KDA d          30.891  -0.035   3.105  0.00  0.00     0.050 C 
ATOM     33  H10 KDA d          29.814  -0.202   2.962  0.00  0.00     0.078 H 
ATOM     34  H11 KDA d          31.065   1.013   3.386  0.00  0.00     0.078 H 
BRANCH  32  35
ATOM     35  O8  KDA d          31.434  -0.946   4.114  0.00  0.00    -0.341 OA
BRANCH  35  36
ATOM     36  C2  KDA d          30.588  -1.112   5.302  0.00  0.00     0.276 C 
ATOM     37  C3  KDA d          30.851  -2.329   5.933  0.00  0.00    -0.036 C 
ATOM     38  C4  KDA d          29.957  -3.422   5.981  0.00  0.00    -0.099 C 
ATOM     39  H17 KDA d          31.816  -2.444   6.426  0.00  0.00     0.085 H 
ATOM     40  C5  KDA d          28.696  -3.393   5.372  0.00  0.00    -0.023 C 
ATOM     41  H18 KDA d          30.260  -4.322   6.513  0.00  0.00     0.076 H 
ATOM     42  C6  KDA d          28.574  -2.226   4.391  0.00  0.00     0.072 C 
ATOM     43  H19 KDA d          27.925  -3.288   6.149  0.00  0.00     0.042 H 
ATOM     44  H20 KDA d          28.542  -4.336   4.826  0.00  0.00     0.042 H 
ATOM     45  O6  KDA d          29.189  -1.029   4.936  0.00  0.00    -0.335 OA
ATOM     46  H21 KDA d          29.070  -2.524   3.456  0.00  0.00     0.088 H 
BRANCH  36  47
ATOM     47  C1  KDA d          30.884   0.026   6.286  0.00  0.00     0.243 C 
ATOM     48  O1B KDA d          32.060   0.344   6.424  0.00  0.00    -0.644 OA
ATOM     49  O1A KDA d          29.913   0.546   6.869  0.00  0.00    -0.644 OA
ENDBRANCH  36  47
BRANCH  42  50
ATOM     50  C7  KDA d          27.149  -1.731   4.079  0.00  0.00     0.081 C 
ATOM     51  H22 KDA d          26.551  -1.804   4.999  0.00  0.00     0.090 H 
BRANCH  50  52
ATOM     52  O7  KDA d          26.580  -2.571   3.087  0.00  0.00    -0.391 OA
ATOM     53  H23 KDA d          26.809  -3.475   3.270  0.00  0.00     0.210 HD
ENDBRANCH  50  52
BRANCH  50  54
ATOM     54  C8  KDA d          27.098  -0.289   3.594  0.00  0.00     0.043 C 
ATOM     55  H24 KDA d          27.543   0.363   4.360  0.00  0.00     0.078 H 
ATOM     56  H25 KDA d          26.049  -0.001   3.432  0.00  0.00     0.078 H 
BRANCH  54  57
ATOM     57  O8  KDA d          27.824  -0.132   2.364  0.00  0.00    -0.398 OA
ATOM     58  H26 KDA d          28.659   0.285   2.541  0.00  0.00     0.209 HD
ENDBRANCH  54  57
ENDBRANCH  50  54
ENDBRANCH  42  50
ENDBRANCH  35  36
ENDBRANCH  32  35
ENDBRANCH   1  32
TORSDOF 16
ENDMDL
MODEL 7
REMARK VINA RESULT:      -4.9      1.968      5.205
REMARK  16 active torsions:
REMARK  status: ('A' for Active; 'I' for Inactive)
REMARK    1  A    between atoms: C1_1  and  C2_4 
REMARK    2  A    between atoms: C2_4  and  O2_16 
REMARK    3  A    between atoms: C4_6  and  O4_7 
REMARK    4  A    between atoms: C5_8  and  O5_9 
REMARK    5  A    between atoms: C6_10  and  C7_12 
REMARK    6  A    between atoms: C7_12  and  O7_13 
REMARK    7  A    between atoms: C7_12  and  C8_14 
REMARK    8  A    between atoms: C8_14  and  O8_15 
REMARK    9  A    between atoms: O8_15  and  C2_20 
REMARK   10  A    between atoms: O2_16  and  C9_17 
REMARK   11  A    between atoms: C10_18  and  C11_19 
REMARK   12  A    between atoms: C2_20  and  C1_21 
REMARK   13  A    between atoms: C6_27  and  C7_29 
REMARK   14  A    between atoms: C7_29  and  O7_30 
REMARK   15  A    between atoms: C7_29  and  C8_31 
REMARK   16  A    between atoms: C8_31  and  O8_32 
ROOT
ATOM      1  C7  KDA d          31.209  -0.876   1.888  0.00  0.00     0.083 C 
ATOM      2  H8  KDA d          32.215  -1.272   2.097  0.00  0.00     0.090 H 
ENDROOT
BRANCH   1   3
ATOM      3  C6  KDA d          30.433  -0.728   3.191  0.00  0.00     0.096 C 
ATOM      4  C5  KDA d          30.758   0.530   4.023  0.00  0.00     0.088 C 
ATOM      5  C4  KDA d          29.967   0.493   5.348  0.00  0.00     0.068 C 
ATOM      6  H5  KDA d          30.473   1.433   3.465  0.00  0.00     0.091 H 
ATOM      7  C3  KDA d          30.102  -0.830   6.129  0.00  0.00     0.024 C 
ATOM      8  H3  KDA d          28.905   0.638   5.102  0.00  0.00     0.087 H 
ATOM      9  C2  KDA d          29.951  -2.038   5.175  0.00  0.00     0.262 C 
ATOM     10  H1  KDA d          31.091  -0.869   6.609  0.00  0.00     0.045 H 
ATOM     11  H2  KDA d          29.319  -0.877   6.900  0.00  0.00     0.045 H 
ATOM     12  O6  KDA d          30.740  -1.901   3.994  0.00  0.00    -0.335 OA
ATOM     13  H7  KDA d          29.359  -0.710   2.953  0.00  0.00     0.091 H 
BRANCH   4  14
ATOM     14  O5  KDA d          32.200   0.527   4.238  0.00  0.00    -0.390 OA
ATOM     15  H6  KDA d          32.478   1.388   4.527  0.00  0.00     0.210 HD
ENDBRANCH   4  14
BRANCH   5  16
ATOM     16  O4  KDA d          30.387   1.546   6.217  0.00  0.00    -0.393 OA
ATOM     17  H4  KDA d          30.624   1.182   7.062  0.00  0.00     0.210 HD
ENDBRANCH   5  16
BRANCH   9  18
ATOM     18  C1  KDA d          30.392  -3.275   5.986  0.00  0.00     0.239 C 
ATOM     19  O1A KDA d          30.911  -3.085   7.111  0.00  0.00    -0.644 OA
ATOM     20  O1B KDA d          30.195  -4.390   5.440  0.00  0.00    -0.644 OA
ENDBRANCH   9  18
BRANCH   9  21
ATOM     21  O2  KDA d          28.538  -2.166   4.809  0.00  0.00    -0.317 OA
BRANCH  21  22
ATOM     22  C9  KDA d          27.802  -2.037   5.968  0.00  0.00     0.013 C 
ATOM     23  C10 KDA d          26.575  -1.391   6.062  0.00  0.00    -0.086 C 
ATOM     24  H13 KDA d          26.097  -1.306   7.038  0.00  0.00     0.079 H 
ATOM     25  H12 KDA d          28.213  -2.473   6.877  0.00  0.00     0.122 H 
BRANCH  23  26
ATOM     26  C11 KDA d          25.944  -0.854   4.964  0.00  0.00    -0.058 C 
ATOM     27  H14 KDA d          26.696  -0.451   4.271  0.00  0.00     0.032 H 
ATOM     28  H15 KDA d          25.271  -0.046   5.286  0.00  0.00     0.032 H 
ATOM     29  H16 KDA d          25.360  -1.637   4.458  0.00  0.00     0.032 H 
ENDBRANCH  23  26
ENDBRANCH  21  22
ENDBRANCH   9  21
ENDBRANCH   1   3
BRANCH   1  30
ATOM     30  O7  KDA d          31.305   0.410   1.265  0.00  0.00    -0.391 OA
ATOM     31  H9  KDA d          30.432   0.750   1.106  0.00  0.00     0.210 HD
ENDBRANCH   1  30
BRANCH   1  32
ATOM     32  C8  KDA d          30.467  -1.816   0.937  0.00  0.00     0.050 C 
ATOM     33  H10 KDA d          30.798  -2.856   1.071  0.00  0.00     0.078 H 
ATOM     34  H11 KDA d          30.617  -1.517  -0.110  0.00  0.00     0.078 H 
BRANCH  32  35
ATOM     35  O8  KDA d          29.069  -1.654   1.335  0.00  0.00    -0.341 OA
BRANCH  35  36
ATOM     36  C2  KDA d          28.167  -2.693   0.827  0.00  0.00     0.276 C 
ATOM     37  C3  KDA d          26.911  -2.600   1.429  0.00  0.00    -0.036 C 
ATOM     38  C4  KDA d          26.381  -3.543   2.338  0.00  0.00    -0.099 C 
ATOM     39  H17 KDA d          26.294  -1.738   1.179  0.00  0.00     0.085 H 
ATOM     40  C5  KDA d          27.090  -4.681   2.744  0.00  0.00    -0.023 C 
ATOM     41  H18 KDA d          25.383  -3.377   2.740  0.00  0.00     0.076 H 
ATOM     42  C6  KDA d          28.570  -4.580   2.377  0.00  0.00     0.072 C 
ATOM     43  H19 KDA d          26.659  -5.565   2.250  0.00  0.00     0.042 H 
ATOM     44  H20 KDA d          26.998  -4.789   3.834  0.00  0.00     0.042 H 
ATOM     45  O6  KDA d          28.736  -4.006   1.053  0.00  0.00    -0.335 OA
ATOM     46  H21 KDA d          29.059  -3.950   3.135  0.00  0.00     0.088 H 
BRANCH  36  47
ATOM     47  C1  KDA d          28.000  -2.509  -0.687  0.00  0.00     0.243 C 
ATOM     48  O1B KDA d          28.474  -3.382  -1.404  0.00  0.00    -0.644 OA
ATOM     49  O1A KDA d          27.394  -1.492  -1.077  0.00  0.00    -0.644 OA
ENDBRANCH  36  47
BRANCH  42  50
ATOM     50  C7  KDA d          29.342  -5.906   2.240  0.00  0.00     0.081 C 
ATOM     51  H22 KDA d          28.873  -6.495   1.438  0.00  0.00     0.090 H 
BRANCH  50  52
ATOM     52  O7  KDA d          29.241  -6.622   3.461  0.00  0.00    -0.391 OA
ATOM     53  H23 KDA d          29.944  -6.356   4.042  0.00  0.00     0.210 HD
ENDBRANCH  50  52
BRANCH  50  54
ATOM     54  C8  KDA d          30.813  -5.722   1.894  0.00  0.00     0.043 C 
ATOM     55  H24 KDA d          30.899  -5.020   1.052  0.00  0.00     0.078 H 
ATOM     56  H25 KDA d          31.239  -6.694   1.605  0.00  0.00     0.078 H 
BRANCH  54  57
ATOM     57  O8  KDA d          31.546  -5.203   3.016  0.00  0.00    -0.398 OA
ATOM     58  H26 KDA d          32.461  -5.109   2.778  0.00  0.00     0.209 HD
ENDBRANCH  54  57
ENDBRANCH  50  54
ENDBRANCH  42  50
ENDBRANCH  35  36
ENDBRANCH  32  35
ENDBRANCH   1  32
TORSDOF 16
ENDMDL
MODEL 8
REMARK VINA RESULT:      -4.9      1.798      6.509
REMARK  16 active torsions:
REMARK  status: ('A' for Active; 'I' for Inactive)
REMARK    1  A    between atoms: C1_1  and  C2_4 
REMARK    2  A    between atoms: C2_4  and  O2_16 
REMARK    3  A    between atoms: C4_6  and  O4_7 
REMARK    4  A    between atoms: C5_8  and  O5_9 
REMARK    5  A    between atoms: C6_10  and  C7_12 
REMARK    6  A    between atoms: C7_12  and  O7_13 
REMARK    7  A    between atoms: C7_12  and  C8_14 
REMARK    8  A    between atoms: C8_14  and  O8_15 
REMARK    9  A    between atoms: O8_15  and  C2_20 
REMARK   10  A    between atoms: O2_16  and  C9_17 
REMARK   11  A    between atoms: C10_18  and  C11_19 
REMARK   12  A    between atoms: C2_20  and  C1_21 
REMARK   13  A    between atoms: C6_27  and  C7_29 
REMARK   14  A    between atoms: C7_29  and  O7_30 
REMARK   15  A    between atoms: C7_29  and  C8_31 
REMARK   16  A    between atoms: C8_31  and  O8_32 
ROOT
ATOM      1  C7  KDA d          28.415  -1.047   2.583  0.00  0.00     0.083 C 
ATOM      2  H8  KDA d          27.676  -1.419   3.308  0.00  0.00     0.090 H 
ENDROOT
BRANCH   1   3
ATOM      3  C6  KDA d          28.699  -2.120   1.539  0.00  0.00     0.096 C 
ATOM      4  C5  KDA d          27.895  -2.006   0.227  0.00  0.00     0.088 C 
ATOM      5  C4  KDA d          28.220  -3.206  -0.686  0.00  0.00     0.068 C 
ATOM      6  H5  KDA d          28.162  -1.077  -0.298  0.00  0.00     0.091 H 
ATOM      7  C3  KDA d          28.102  -4.580   0.007  0.00  0.00     0.024 C 
ATOM      8  H3  KDA d          29.257  -3.086  -1.032  0.00  0.00     0.087 H 
ATOM      9  C2  KDA d          28.774  -4.540   1.400  0.00  0.00     0.262 C 
ATOM     10  H1  KDA d          27.039  -4.837   0.124  0.00  0.00     0.045 H 
ATOM     11  H2  KDA d          28.597  -5.342  -0.613  0.00  0.00     0.045 H 
ATOM     12  O6  KDA d          28.385  -3.397   2.160  0.00  0.00    -0.335 OA
ATOM     13  H7  KDA d          29.769  -2.081   1.286  0.00  0.00     0.091 H 
BRANCH   4  14
ATOM     14  O5  KDA d          26.486  -1.962   0.604  0.00  0.00    -0.390 OA
ATOM     15  H6  KDA d          26.013  -1.410  -0.008  0.00  0.00     0.210 HD
ENDBRANCH   4  14
BRANCH   5  16
ATOM     16  O4  KDA d          27.356  -3.226  -1.823  0.00  0.00    -0.393 OA
ATOM     17  H4  KDA d          26.474  -2.998  -1.552  0.00  0.00     0.210 HD
ENDBRANCH   5  16
BRANCH   9  18
ATOM     18  C1  KDA d          28.345  -5.841   2.112  0.00  0.00     0.239 C 
ATOM     19  O1A KDA d          28.593  -6.931   1.545  0.00  0.00    -0.644 OA
ATOM     20  O1B KDA d          27.768  -5.697   3.220  0.00  0.00    -0.644 OA
ENDBRANCH   9  18
BRANCH   9  21
ATOM     21  O2  KDA d          30.227  -4.536   1.215  0.00  0.00    -0.317 OA
BRANCH  21  22
ATOM     22  C9  KDA d          30.799  -4.546   2.469  0.00  0.00     0.013 C 
ATOM     23  C10 KDA d          31.874  -3.755   2.859  0.00  0.00    -0.086 C 
ATOM     24  H13 KDA d          32.279  -3.874   3.864  0.00  0.00     0.079 H 
ATOM     25  H12 KDA d          30.379  -5.224   3.210  0.00  0.00     0.122 H 
BRANCH  23  26
ATOM     26  C11 KDA d          32.443  -2.828   2.018  0.00  0.00    -0.058 C 
ATOM     27  H14 KDA d          33.456  -2.584   2.373  0.00  0.00     0.032 H 
ATOM     28  H15 KDA d          31.829  -1.916   2.008  0.00  0.00     0.032 H 
ATOM     29  H16 KDA d          32.501  -3.242   1.001  0.00  0.00     0.032 H 
ENDBRANCH  23  26
ENDBRANCH  21  22
ENDBRANCH   9  21
ENDBRANCH   1   3
BRANCH   1  30
ATOM     30  O7  KDA d          27.911   0.117   1.916  0.00  0.00    -0.391 OA
ATOM     31  H9  KDA d          28.296   0.176   1.049  0.00  0.00     0.210 HD
ENDBRANCH   1  30
BRANCH   1  32
ATOM     32  C8  KDA d          29.706  -0.662   3.307  0.00  0.00     0.050 C 
ATOM     33  H10 KDA d          30.523  -0.486   2.592  0.00  0.00     0.078 H 
ATOM     34  H11 KDA d          30.006  -1.442   4.021  0.00  0.00     0.078 H 
BRANCH  32  35
ATOM     35  O8  KDA d          29.340   0.573   4.002  0.00  0.00    -0.341 OA
BRANCH  35  36
ATOM     36  C2  KDA d          28.833   0.377   5.365  0.00  0.00     0.276 C 
ATOM     37  C3  KDA d          29.667   0.994   6.299  0.00  0.00    -0.036 C 
ATOM     38  C4  KDA d          30.478   0.310   7.232  0.00  0.00    -0.099 C 
ATOM     39  H17 KDA d          29.694   2.084   6.310  0.00  0.00     0.085 H 
ATOM     40  C5  KDA d          30.535  -1.088   7.300  0.00  0.00    -0.023 C 
ATOM     41  H18 KDA d          31.082   0.893   7.925  0.00  0.00     0.076 H 
ATOM     42  C6  KDA d          29.921  -1.735   6.059  0.00  0.00     0.072 C 
ATOM     43  H19 KDA d          29.981  -1.425   8.189  0.00  0.00     0.042 H 
ATOM     44  H20 KDA d          31.586  -1.399   7.382  0.00  0.00     0.042 H 
ATOM     45  O6  KDA d          28.713  -1.037   5.657  0.00  0.00    -0.335 OA
ATOM     46  H21 KDA d          30.674  -1.698   5.258  0.00  0.00     0.088 H 
BRANCH  36  47
ATOM     47  C1  KDA d          27.435   0.998   5.469  0.00  0.00     0.243 C 
ATOM     48  O1B KDA d          26.846   0.854   6.534  0.00  0.00    -0.644 OA
ATOM     49  O1A KDA d          27.002   1.605   4.470  0.00  0.00    -0.644 OA
ENDBRANCH  36  47
BRANCH  42  50
ATOM     50  C7  KDA d          29.409  -3.180   6.212  0.00  0.00     0.081 C 
ATOM     51  H22 KDA d          30.279  -3.853   6.215  0.00  0.00     0.090 H 
BRANCH  50  52
ATOM     52  O7  KDA d          28.583  -3.493   5.102  0.00  0.00    -0.391 OA
ATOM     53  H23 KDA d          28.745  -4.390   4.831  0.00  0.00     0.210 HD
ENDBRANCH  50  52
BRANCH  50  54
ATOM     54  C8  KDA d          28.625  -3.415   7.495  0.00  0.00     0.043 C 
ATOM     55  H24 KDA d          29.202  -3.025   8.346  0.00  0.00     0.078 H 
ATOM     56  H25 KDA d          28.464  -4.496   7.625  0.00  0.00     0.078 H 
BRANCH  54  57
ATOM     57  O8  KDA d          27.350  -2.753   7.449  0.00  0.00    -0.398 OA
ATOM     58  H26 KDA d          26.918  -2.956   6.628  0.00  0.00     0.209 HD
ENDBRANCH  54  57
ENDBRANCH  50  54
ENDBRANCH  42  50
ENDBRANCH  35  36
ENDBRANCH  32  35
ENDBRANCH   1  32
TORSDOF 16
ENDMDL
MODEL 9
REMARK VINA RESULT:      -4.6      2.423      4.720
REMARK  16 active torsions:
REMARK  status: ('A' for Active; 'I' for Inactive)
REMARK    1  A    between atoms: C1_1  and  C2_4 
REMARK    2  A    between atoms: C2_4  and  O2_16 
REMARK    3  A    between atoms: C4_6  and  O4_7 
REMARK    4  A    between atoms: C5_8  and  O5_9 
REMARK    5  A    between atoms: C6_10  and  C7_12 
REMARK    6  A    between atoms: C7_12  and  O7_13 
REMARK    7  A    between atoms: C7_12  and  C8_14 
REMARK    8  A    between atoms: C8_14  and  O8_15 
REMARK    9  A    between atoms: O8_15  and  C2_20 
REMARK   10  A    between atoms: O2_16  and  C9_17 
REMARK   11  A    between atoms: C10_18  and  C11_19 
REMARK   12  A    between atoms: C2_20  and  C1_21 
REMARK   13  A    between atoms: C6_27  and  C7_29 
REMARK   14  A    between atoms: C7_29  and  O7_30 
REMARK   15  A    between atoms: C7_29  and  C8_31 
REMARK   16  A    between atoms: C8_31  and  O8_32 
ROOT
ATOM      1  C7  KDA d          31.540  -0.357   2.779  0.00  0.00     0.083 C 
ATOM      2  H8  KDA d          32.430  -0.156   3.393  0.00  0.00     0.090 H 
ENDROOT
BRANCH   1   3
ATOM      3  C6  KDA d          30.430  -0.931   3.652  0.00  0.00     0.096 C 
ATOM      4  C5  KDA d          29.333   0.066   4.078  0.00  0.00     0.088 C 
ATOM      5  C4  KDA d          28.337  -0.634   5.027  0.00  0.00     0.068 C 
ATOM      6  H5  KDA d          28.787   0.425   3.194  0.00  0.00     0.091 H 
ATOM      7  C3  KDA d          29.001  -1.381   6.203  0.00  0.00     0.024 C 
ATOM      8  H3  KDA d          27.774  -1.368   4.431  0.00  0.00     0.087 H 
ATOM      9  C2  KDA d          30.212  -2.205   5.704  0.00  0.00     0.262 C 
ATOM     10  H1  KDA d          29.344  -0.650   6.949  0.00  0.00     0.045 H 
ATOM     11  H2  KDA d          28.267  -2.058   6.663  0.00  0.00     0.045 H 
ATOM     12  O6  KDA d          31.070  -1.450   4.850  0.00  0.00    -0.335 OA
ATOM     13  H7  KDA d          29.948  -1.752   3.101  0.00  0.00     0.091 H 
BRANCH   4  14
ATOM     14  O5  KDA d          30.013   1.187   4.717  0.00  0.00    -0.390 OA
ATOM     15  H6  KDA d          30.946   1.124   4.554  0.00  0.00     0.210 HD
ENDBRANCH   4  14
BRANCH   5  16
ATOM     16  O4  KDA d          27.420   0.308   5.583  0.00  0.00    -0.393 OA
ATOM     17  H4  KDA d          27.582   0.393   6.516  0.00  0.00     0.210 HD
ENDBRANCH   5  16
BRANCH   9  18
ATOM     18  C1  KDA d          30.965  -2.658   6.972  0.00  0.00     0.239 C 
ATOM     19  O1A KDA d          30.579  -2.209   8.077  0.00  0.00    -0.644 OA
ATOM     20  O1B KDA d          31.924  -3.451   6.789  0.00  0.00    -0.644 OA
ENDBRANCH   9  18
BRANCH   9  21
ATOM     21  O2  KDA d          29.709  -3.377   4.983  0.00  0.00    -0.317 OA
BRANCH  21  22
ATOM     22  C9  KDA d          28.977  -4.126   5.880  0.00  0.00     0.013 C 
ATOM     23  C10 KDA d          28.757  -5.495   5.780  0.00  0.00    -0.086 C 
ATOM     24  H13 KDA d          28.125  -5.983   6.521  0.00  0.00     0.079 H 
ATOM     25  H12 KDA d          28.538  -3.607   6.730  0.00  0.00     0.122 H 
BRANCH  23  26
ATOM     26  C11 KDA d          29.312  -6.254   4.776  0.00  0.00    -0.058 C 
ATOM     27  H14 KDA d          28.537  -6.505   4.036  0.00  0.00     0.032 H 
ATOM     28  H15 KDA d          29.726  -7.179   5.201  0.00  0.00     0.032 H 
ATOM     29  H16 KDA d          30.115  -5.683   4.286  0.00  0.00     0.032 H 
ENDBRANCH  23  26
ENDBRANCH  21  22
ENDBRANCH   9  21
ENDBRANCH   1   3
BRANCH   1  30
ATOM     30  O7  KDA d          31.068   0.856   2.180  0.00  0.00    -0.391 OA
ATOM     31  H9  KDA d          30.352   0.659   1.588  0.00  0.00     0.210 HD
ENDBRANCH   1  30
BRANCH   1  32
ATOM     32  C8  KDA d          31.891  -1.339   1.660  0.00  0.00     0.050 C 
ATOM     33  H10 KDA d          31.421  -2.318   1.832  0.00  0.00     0.078 H 
ATOM     34  H11 KDA d          32.980  -1.465   1.573  0.00  0.00     0.078 H 
BRANCH  32  35
ATOM     35  O8  KDA d          31.340  -0.694   0.468  0.00  0.00    -0.341 OA
BRANCH  35  36
ATOM     36  C2  KDA d          30.604  -1.594  -0.427  0.00  0.00     0.276 C 
ATOM     37  C3  KDA d          29.657  -0.891  -1.172  0.00  0.00    -0.036 C 
ATOM     38  C4  KDA d          28.258  -1.009  -1.015  0.00  0.00    -0.099 C 
ATOM     39  H17 KDA d          30.023  -0.200  -1.931  0.00  0.00     0.085 H 
ATOM     40  C5  KDA d          27.674  -1.854  -0.062  0.00  0.00    -0.023 C 
ATOM     41  H18 KDA d          27.608  -0.420  -1.660  0.00  0.00     0.076 H 
ATOM     42  C6  KDA d          28.697  -2.324   0.972  0.00  0.00     0.072 C 
ATOM     43  H19 KDA d          27.254  -2.733  -0.573  0.00  0.00     0.042 H 
ATOM     44  H20 KDA d          26.870  -1.310   0.453  0.00  0.00     0.042 H 
ATOM     45  O6  KDA d          29.963  -2.645   0.336  0.00  0.00    -0.335 OA
ATOM     46  H21 KDA d          28.827  -1.513   1.704  0.00  0.00     0.088 H 
BRANCH  36  47
ATOM     47  C1  KDA d          31.597  -2.254  -1.392  0.00  0.00     0.243 C 
ATOM     48  O1B KDA d          32.737  -1.804  -1.403  0.00  0.00    -0.644 OA
ATOM     49  O1A KDA d          31.176  -3.198  -2.089  0.00  0.00    -0.644 OA
ENDBRANCH  36  47
BRANCH  42  50
ATOM     50  C7  KDA d          28.380  -3.636   1.714  0.00  0.00     0.081 C 
ATOM     51  H22 KDA d          29.262  -3.917   2.308  0.00  0.00     0.090 H 
BRANCH  50  52
ATOM     52  O7  KDA d          28.122  -4.652   0.757  0.00  0.00    -0.391 OA
ATOM     53  H23 KDA d          28.119  -4.272  -0.114  0.00  0.00     0.210 HD
ENDBRANCH  50  52
BRANCH  50  54
ATOM     54  C8  KDA d          27.189  -3.530   2.656  0.00  0.00     0.043 C 
ATOM     55  H24 KDA d          27.172  -2.525   3.102  0.00  0.00     0.078 H 
ATOM     56  H25 KDA d          27.293  -4.282   3.453  0.00  0.00     0.078 H 
BRANCH  54  57
ATOM     57  O8  KDA d          25.955  -3.755   1.956  0.00  0.00    -0.398 OA
ATOM     58  H26 KDA d          25.341  -4.196   2.532  0.00  0.00     0.209 HD
ENDBRANCH  54  57
ENDBRANCH  50  54
ENDBRANCH  42  50
ENDBRANCH  35  36
ENDBRANCH  32  35
ENDBRANCH   1  32
TORSDOF 16
ENDMDL
MODEL 10
REMARK VINA RESULT:      -4.6      1.837      4.084
REMARK  16 active torsions:
REMARK  status: ('A' for Active; 'I' for Inactive)
REMARK    1  A    between atoms: C1_1  and  C2_4 
REMARK    2  A    between atoms: C2_4  and  O2_16 
REMARK    3  A    between atoms: C4_6  and  O4_7 
REMARK    4  A    between atoms: C5_8  and  O5_9 
REMARK    5  A    between atoms: C6_10  and  C7_12 
REMARK    6  A    between atoms: C7_12  and  O7_13 
REMARK    7  A    between atoms: C7_12  and  C8_14 
REMARK    8  A    between atoms: C8_14  and  O8_15 
REMARK    9  A    between atoms: O8_15  and  C2_20 
REMARK   10  A    between atoms: O2_16  and  C9_17 
REMARK   11  A    between atoms: C10_18  and  C11_19 
REMARK   12  A    between atoms: C2_20  and  C1_21 
REMARK   13  A    between atoms: C6_27  and  C7_29 
REMARK   14  A    between atoms: C7_29  and  O7_30 
REMARK   15  A    between atoms: C7_29  and  C8_31 
REMARK   16  A    between atoms: C8_31  and  O8_32 
ROOT
ATOM      1  C7  KDA d          27.105  -4.715   3.187  0.00  0.00     0.083 C 
ATOM      2  H8  KDA d          26.120  -4.880   3.648  0.00  0.00     0.090 H 
ENDROOT
BRANCH   1   3
ATOM      3  C6  KDA d          28.170  -4.606   4.272  0.00  0.00     0.096 C 
ATOM      4  C5  KDA d          28.641  -5.943   4.881  0.00  0.00     0.088 C 
ATOM      5  C4  KDA d          29.644  -5.668   6.021  0.00  0.00     0.068 C 
ATOM      6  H5  KDA d          29.137  -6.553   4.112  0.00  0.00     0.091 H 
ATOM      7  C3  KDA d          29.153  -4.639   7.062  0.00  0.00     0.024 C 
ATOM      8  H3  KDA d          30.564  -5.278   5.564  0.00  0.00     0.087 H 
ATOM      9  C2  KDA d          28.522  -3.416   6.356  0.00  0.00     0.262 C 
ATOM     10  H1  KDA d          28.400  -5.111   7.711  0.00  0.00     0.045 H 
ATOM     11  H2  KDA d          30.005  -4.306   7.672  0.00  0.00     0.045 H 
ATOM     12  O6  KDA d          27.600  -3.793   5.334  0.00  0.00    -0.335 OA
ATOM     13  H7  KDA d          29.048  -4.100   3.844  0.00  0.00     0.091 H 
BRANCH   4  14
ATOM     14  O5  KDA d          27.444  -6.633   5.350  0.00  0.00    -0.390 OA
ATOM     15  H6  KDA d          27.075  -6.159   6.087  0.00  0.00     0.210 HD
ENDBRANCH   4  14
BRANCH   5  16
ATOM     16  O4  KDA d          29.954  -6.872   6.725  0.00  0.00    -0.393 OA
ATOM     17  H4  KDA d          29.154  -7.360   6.882  0.00  0.00     0.210 HD
ENDBRANCH   5  16
BRANCH   9  18
ATOM     18  C1  KDA d          27.811  -2.610   7.463  0.00  0.00     0.239 C 
ATOM     19  O1A KDA d          28.388  -2.495   8.569  0.00  0.00    -0.644 OA
ATOM     20  O1B KDA d          26.688  -2.131   7.160  0.00  0.00    -0.644 OA
ENDBRANCH   9  18
BRANCH   9  21
ATOM     21  O2  KDA d          29.598  -2.611   5.773  0.00  0.00    -0.317 OA
BRANCH  21  22
ATOM     22  C9  KDA d          29.062  -1.380   5.456  0.00  0.00     0.013 C 
ATOM     23  C10 KDA d          29.791  -0.293   4.989  0.00  0.00    -0.086 C 
ATOM     24  H13 KDA d          29.275   0.650   4.810  0.00  0.00     0.079 H 
ATOM     25  H12 KDA d          27.989  -1.251   5.580  0.00  0.00     0.122 H 
BRANCH  23  26
ATOM     26  C11 KDA d          31.143  -0.367   4.746  0.00  0.00    -0.058 C 
ATOM     27  H14 KDA d          31.365   0.084   3.767  0.00  0.00     0.032 H 
ATOM     28  H15 KDA d          31.457  -1.421   4.743  0.00  0.00     0.032 H 
ATOM     29  H16 KDA d          31.688   0.175   5.532  0.00  0.00     0.032 H 
ENDBRANCH  23  26
ENDBRANCH  21  22
ENDBRANCH   9  21
ENDBRANCH   1   3
BRANCH   1  30
ATOM     30  O7  KDA d          27.439  -5.811   2.327  0.00  0.00    -0.391 OA
ATOM     31  H9  KDA d          27.687  -5.478   1.473  0.00  0.00     0.210 HD
ENDBRANCH   1  30
BRANCH   1  32
ATOM     32  C8  KDA d          27.078  -3.438   2.346  0.00  0.00     0.050 C 
ATOM     33  H10 KDA d          26.387  -2.697   2.774  0.00  0.00     0.078 H 
ATOM     34  H11 KDA d          26.786  -3.654   1.309  0.00  0.00     0.078 H 
BRANCH  32  35
ATOM     35  O8  KDA d          28.462  -2.967   2.414  0.00  0.00    -0.341 OA
BRANCH  35  36
ATOM     36  C2  KDA d          28.929  -2.273   1.209  0.00  0.00     0.276 C 
ATOM     37  C3  KDA d          28.046  -2.473   0.146  0.00  0.00    -0.036 C 
ATOM     38  C4  KDA d          28.333  -3.237  -1.007  0.00  0.00    -0.099 C 
ATOM     39  H17 KDA d          27.064  -2.005   0.211  0.00  0.00     0.085 H 
ATOM     40  C5  KDA d          29.555  -3.895  -1.192  0.00  0.00    -0.023 C 
ATOM     41  H18 KDA d          27.573  -3.317  -1.783  0.00  0.00     0.076 H 
ATOM     42  C6  KDA d          30.351  -3.976   0.111  0.00  0.00     0.072 C 
ATOM     43  H19 KDA d          30.148  -3.347  -1.939  0.00  0.00     0.042 H 
ATOM     44  H20 KDA d          29.361  -4.915  -1.555  0.00  0.00     0.042 H 
ATOM     45  O6  KDA d          30.256  -2.730   0.851  0.00  0.00    -0.335 OA
ATOM     46  H21 KDA d          29.940  -4.808   0.701  0.00  0.00     0.088 H 
BRANCH  36  47
ATOM     47  C1  KDA d          29.013  -0.770   1.501  0.00  0.00     0.243 C 
ATOM     48  O1B KDA d          28.023  -0.250   2.002  0.00  0.00    -0.644 OA
ATOM     49  O1A KDA d          30.077  -0.189   1.214  0.00  0.00    -0.644 OA
ENDBRANCH  36  47
BRANCH  42  50
ATOM     50  C7  KDA d          31.877  -4.146  -0.019  0.00  0.00     0.081 C 
ATOM     51  H22 KDA d          32.076  -5.148  -0.429  0.00  0.00     0.090 H 
BRANCH  50  52
ATOM     52  O7  KDA d          32.459  -4.049   1.272  0.00  0.00    -0.391 OA
ATOM     53  H23 KDA d          32.599  -4.921   1.622  0.00  0.00     0.210 HD
ENDBRANCH  50  52
BRANCH  50  54
ATOM     54  C8  KDA d          32.528  -3.121  -0.935  0.00  0.00     0.043 C 
ATOM     55  H24 KDA d          31.990  -3.102  -1.894  0.00  0.00     0.078 H 
ATOM     56  H25 KDA d          33.576  -3.408  -1.109  0.00  0.00     0.078 H 
BRANCH  54  57
ATOM     57  O8  KDA d          32.492  -1.808  -0.350  0.00  0.00    -0.398 OA
ATOM     58  H26 KDA d          32.471  -1.886   0.596  0.00  0.00     0.209 HD
ENDBRANCH  54  57
ENDBRANCH  50  54
ENDBRANCH  42  50
ENDBRANCH  35  36
ENDBRANCH  32  35
ENDBRANCH   1  32
TORSDOF 16
ENDMDL
