MODEL 1
REMARK VINA RESULT:     -10.5      0.000      0.000
REMARK  10 active torsions:
REMARK  status: ('A' for Active; 'I' for Inactive)
REMARK    1  A    between atoms: C1_1  and  C7_7 
REMARK    2  A    between atoms: C3_3  and  O1_8 
REMARK    3  A    between atoms: C4_4  and  O2_9 
REMARK    4  A    between atoms: O3_10  and  C5_5 
REMARK    5  A    between atoms: O1_8  and  P1_13 
REMARK    6  A    between atoms: C8_17  and  O3_10 
REMARK    7  A    between atoms: C8_17  and  C9_18 
REMARK    8  A    between atoms: C8_17  and  C10_19 
REMARK    9  A    between atoms: O14_26  and  C8_17 
REMARK   10  A    between atoms: P2_22  and  O14_26 
ROOT
ATOM      1  C1  GG9 d          55.981  11.418  27.962  0.00  0.00     0.020 C 
ATOM      2  C2  GG9 d          54.935  10.675  28.596  0.00  0.00    -0.060 C 
ATOM      3  C3  GG9 d          55.287   9.605  29.627  0.00  0.00     0.096 C 
ATOM      4  C4  GG9 d          56.728   9.833  30.268  0.00  0.00     0.089 C 
ATOM      5  C5  GG9 d          57.793   9.920  29.136  0.00  0.00     0.074 C 
ATOM      6  C6  GG9 d          57.438  11.199  28.281  0.00  0.00    -0.008 C 
ATOM      7  H1  GG9 d          53.894  10.872  28.345  0.00  0.00     0.082 H 
ATOM      8  H2  GG9 d          54.555   9.664  30.445  0.00  0.00     0.095 H 
ATOM      9  H3  GG9 d          56.740  10.776  30.834  0.00  0.00     0.091 H 
ATOM     10  H4  GG9 d          57.765   9.018  28.508  0.00  0.00     0.088 H 
ATOM     11  H5  GG9 d          57.795  12.080  28.835  0.00  0.00     0.044 H 
ATOM     12  H6  GG9 d          57.980  11.122  27.326  0.00  0.00     0.044 H 
ENDROOT
BRANCH   5  13
ATOM     13  O3  GG9 d          59.093  10.067  29.722  0.00  0.00    -0.334 OA
BRANCH  13  14
ATOM     14  C8  GG9 d          60.122   9.049  29.634  0.00  0.00     0.326 C 
BRANCH  14  15
ATOM     15  C9  GG9 d          59.664   7.520  29.504  0.00  0.00     0.272 C 
ATOM     16  F1  GG9 d          58.576   7.365  28.833  0.00  0.00    -0.208 F 
ATOM     17  F2  GG9 d          60.636   6.759  29.042  0.00  0.00    -0.208 F 
ATOM     18  H8  GG9 d          59.450   7.172  30.525  0.00  0.00     0.155 H 
ENDBRANCH  14  15
BRANCH  14  19
ATOM     19  C10 GG9 d          60.981   9.164  30.869  0.00  0.00     0.245 C 
ATOM     20  O9  GG9 d          61.022   8.042  31.479  0.00  0.00    -0.644 OA
ATOM     21  O10 GG9 d          61.587  10.189  31.235  0.00  0.00    -0.644 OA
ENDBRANCH  14  19
BRANCH  14  22
ATOM     22  O14 GG9 d          61.027   9.360  28.497  0.00  0.00    -0.228 OA
BRANCH  22  23
ATOM     23  P2  GG9 d          60.864   9.532  26.867  0.00  0.00     0.425 P 
ATOM     24  O11 GG9 d          59.610   8.745  26.429  0.00  0.00    -0.617 OA
ATOM     25  O12 GG9 d          62.118   8.920  26.314  0.00  0.00    -0.617 OA
ATOM     26  O13 GG9 d          60.716  11.026  26.488  0.00  0.00    -0.617 OA
ENDBRANCH  22  23
ENDBRANCH  14  22
ENDBRANCH  13  14
ENDBRANCH   5  13
BRANCH   4  27
ATOM     27  O2  GG9 d          56.964   8.739  31.167  0.00  0.00    -0.390 OA
ATOM     28  H7  GG9 d          56.133   8.354  31.421  0.00  0.00     0.210 HD
ENDBRANCH   4  27
BRANCH   3  29
ATOM     29  O1  GG9 d          55.137   8.212  28.949  0.00  0.00    -0.271 OA
BRANCH  29  30
ATOM     30  P1  GG9 d          54.796   7.989  27.339  0.00  0.00     0.422 P 
ATOM     31  O6  GG9 d          56.127   8.155  26.599  0.00  0.00    -0.617 OA
ATOM     32  O7  GG9 d          53.724   9.104  26.981  0.00  0.00    -0.617 OA
ATOM     33  O8  GG9 d          54.286   6.525  27.355  0.00  0.00    -0.617 OA
ENDBRANCH  29  30
ENDBRANCH   3  29
BRANCH   1  34
ATOM     34  C7  GG9 d          55.609  12.472  26.963  0.00  0.00     0.205 C 
ATOM     35  O4  GG9 d          54.491  12.431  26.484  0.00  0.00    -0.644 OA
ATOM     36  O5  GG9 d          56.434  13.306  26.725  0.00  0.00    -0.644 OA
ENDBRANCH   1  34
TORSDOF 10
ENDMDL
