MODEL 1
REMARK VINA RESULT:      -7.0      0.000      0.000
REMARK  7 active torsions:
REMARK  status: ('A' for Active; 'I' for Inactive)
REMARK    1  A    between atoms: S1_2  and  N1_4 
REMARK    2  A    between atoms: S1_2  and  C3_10 
REMARK    3  A    between atoms: N1_4  and  C2_5 
REMARK    4  A    between atoms: C2_5  and  C10_6 
REMARK    5  A    between atoms: C2_5  and  C1_7 
REMARK    6  A    between atoms: C6_13  and  O5_16 
REMARK    7  A    between atoms: O5_16  and  C7_17 
ROOT
ATOM      1  C3  TBL d          -2.131  -6.031  -6.367  0.00  0.00     0.079 A 
ATOM      2  C4  TBL d          -2.148  -6.162  -7.753  0.00  0.00    -0.058 A 
ATOM      3  C5  TBL d          -3.362  -6.335  -8.442  0.00  0.00    -0.049 A 
ATOM      4  C6  TBL d          -4.586  -6.298  -7.763  0.00  0.00     0.068 A 
ATOM      5  C8  TBL d          -4.609  -6.173  -6.386  0.00  0.00    -0.049 A 
ATOM      6  C9  TBL d          -3.377  -6.045  -5.690  0.00  0.00    -0.058 A 
ATOM      7  H6  TBL d          -1.216  -6.130  -8.307  0.00  0.00     0.086 H 
ATOM      8  H7  TBL d          -3.349  -6.499  -9.514  0.00  0.00     0.087 H 
ATOM      9  H8  TBL d          -5.551  -6.172  -5.848  0.00  0.00     0.087 H 
ATOM     10  H9  TBL d          -3.390  -5.955  -4.610  0.00  0.00     0.086 H 
ENDROOT
BRANCH   1  11
ATOM     11  S1  TBL d          -0.708  -5.796  -5.612  0.00  0.00     0.259 S 
ATOM     12  O4  TBL d          -0.301  -7.079  -5.133  0.00  0.00    -0.201 OA
ATOM     13  O3  TBL d           0.154  -5.229  -6.617  0.00  0.00    -0.201 OA
BRANCH  11  14
ATOM     14  N1  TBL d          -0.793  -4.849  -4.310  0.00  0.00    -0.301 N 
ATOM     15  H1  TBL d          -1.035  -5.236  -3.420  0.00  0.00     0.173 HD
BRANCH  14  16
ATOM     16  C2  TBL d          -0.511  -3.411  -4.443  0.00  0.00     0.100 C 
ATOM     17  H2  TBL d           0.046  -3.246  -5.376  0.00  0.00     0.089 H 
BRANCH  16  18
ATOM     18  C10 TBL d           0.343  -2.937  -3.264  0.00  0.00    -0.048 C 
ATOM     19  H3  TBL d          -0.141  -2.074  -2.784  0.00  0.00     0.030 H 
ATOM     20  H4  TBL d           1.339  -2.644  -3.627  0.00  0.00     0.030 H 
ATOM     21  H5  TBL d           0.444  -3.753  -2.533  0.00  0.00     0.030 H 
ENDBRANCH  16  18
BRANCH  16  22
ATOM     22  C1  TBL d          -1.789  -2.615  -4.493  0.00  0.00     0.196 C 
ATOM     23  O2  TBL d          -1.845  -1.501  -4.975  0.00  0.00    -0.646 OA
ATOM     24  O1  TBL d          -2.903  -3.151  -3.996  0.00  0.00    -0.646 OA
ENDBRANCH  16  22
ENDBRANCH  14  16
ENDBRANCH  11  14
ENDBRANCH   1  11
BRANCH   4  25
ATOM     25  O5  TBL d          -5.746  -6.474  -8.500  0.00  0.00    -0.356 OA
BRANCH  25  26
ATOM     26  C7  TBL d          -5.800  -6.963  -9.831  0.00  0.00     0.010 C 
ATOM     27  H10 TBL d          -4.850  -6.745 -10.341  0.00  0.00     0.066 H 
ATOM     28  H11 TBL d          -6.625  -6.473 -10.369  0.00  0.00     0.066 H 
ATOM     29  H12 TBL d          -5.967  -8.051  -9.817  0.00  0.00     0.066 H 
ENDBRANCH  25  26
ENDBRANCH   4  25
TORSDOF 7
ENDMDL
MODEL 2
REMARK VINA RESULT:      -6.3      1.413      2.115
REMARK  7 active torsions:
REMARK  status: ('A' for Active; 'I' for Inactive)
REMARK    1  A    between atoms: S1_2  and  N1_4 
REMARK    2  A    between atoms: S1_2  and  C3_10 
REMARK    3  A    between atoms: N1_4  and  C2_5 
REMARK    4  A    between atoms: C2_5  and  C10_6 
REMARK    5  A    between atoms: C2_5  and  C1_7 
REMARK    6  A    between atoms: C6_13  and  O5_16 
REMARK    7  A    between atoms: O5_16  and  C7_17 
ROOT
ATOM      1  C3  TBL d          -2.303  -5.396  -6.514  0.00  0.00     0.079 A 
ATOM      2  C4  TBL d          -3.443  -5.758  -5.800  0.00  0.00    -0.058 A 
ATOM      3  C5  TBL d          -4.609  -6.167  -6.472  0.00  0.00    -0.049 A 
ATOM      4  C6  TBL d          -4.628  -6.299  -7.867  0.00  0.00     0.068 A 
ATOM      5  C8  TBL d          -3.515  -5.946  -8.609  0.00  0.00    -0.049 A 
ATOM      6  C9  TBL d          -2.355  -5.488  -7.928  0.00  0.00    -0.058 A 
ATOM      7  H6  TBL d          -3.432  -5.724  -4.717  0.00  0.00     0.086 H 
ATOM      8  H7  TBL d          -5.506  -6.383  -5.903  0.00  0.00     0.087 H 
ATOM      9  H8  TBL d          -3.529  -6.017  -9.691  0.00  0.00     0.087 H 
ATOM     10  H9  TBL d          -1.484  -5.202  -8.506  0.00  0.00     0.086 H 
ENDROOT
BRANCH   1  11
ATOM     11  S1  TBL d          -0.963  -4.963  -5.696  0.00  0.00     0.259 S 
ATOM     12  O4  TBL d          -1.095  -5.539  -4.395  0.00  0.00    -0.201 OA
ATOM     13  O3  TBL d           0.129  -5.484  -6.476  0.00  0.00    -0.201 OA
BRANCH  11  14
ATOM     14  N1  TBL d          -0.811  -3.376  -5.460  0.00  0.00    -0.301 N 
ATOM     15  H1  TBL d          -0.422  -2.795  -6.176  0.00  0.00     0.173 HD
BRANCH  14  16
ATOM     16  C2  TBL d          -1.249  -2.789  -4.184  0.00  0.00     0.100 C 
ATOM     17  H2  TBL d          -2.074  -3.395  -3.783  0.00  0.00     0.089 H 
BRANCH  16  18
ATOM     18  C10 TBL d          -1.747  -1.360  -4.411  0.00  0.00    -0.048 C 
ATOM     19  H3  TBL d          -2.760  -1.388  -4.838  0.00  0.00     0.030 H 
ATOM     20  H4  TBL d          -1.070  -0.843  -5.108  0.00  0.00     0.030 H 
ATOM     21  H5  TBL d          -1.768  -0.822  -3.453  0.00  0.00     0.030 H 
ENDBRANCH  16  18
BRANCH  16  22
ATOM     22  C1  TBL d          -0.124  -2.779  -3.182  0.00  0.00     0.196 C 
ATOM     23  O2  TBL d          -0.298  -3.017  -2.003  0.00  0.00    -0.646 OA
ATOM     24  O1  TBL d           1.110  -2.504  -3.601  0.00  0.00    -0.646 OA
ENDBRANCH  16  22
ENDBRANCH  14  16
ENDBRANCH  11  14
ENDBRANCH   1  11
BRANCH   4  25
ATOM     25  O5  TBL d          -5.807  -6.708  -8.468  0.00  0.00    -0.356 OA
BRANCH  25  26
ATOM     26  C7  TBL d          -5.966  -6.970  -9.854  0.00  0.00     0.010 C 
ATOM     27  H10 TBL d          -4.991  -7.226 -10.294  0.00  0.00     0.066 H 
ATOM     28  H11 TBL d          -6.369  -6.076 -10.353  0.00  0.00     0.066 H 
ATOM     29  H12 TBL d          -6.661  -7.812  -9.991  0.00  0.00     0.066 H 
ENDBRANCH  25  26
ENDBRANCH   4  25
TORSDOF 7
ENDMDL
MODEL 3
REMARK VINA RESULT:      -5.9      1.793      3.289
REMARK  7 active torsions:
REMARK  status: ('A' for Active; 'I' for Inactive)
REMARK    1  A    between atoms: S1_2  and  N1_4 
REMARK    2  A    between atoms: S1_2  and  C3_10 
REMARK    3  A    between atoms: N1_4  and  C2_5 
REMARK    4  A    between atoms: C2_5  and  C10_6 
REMARK    5  A    between atoms: C2_5  and  C1_7 
REMARK    6  A    between atoms: C6_13  and  O5_16 
REMARK    7  A    between atoms: O5_16  and  C7_17 
ROOT
ATOM      1  C3  TBL d          -2.865  -4.848  -6.144  0.00  0.00     0.079 A 
ATOM      2  C4  TBL d          -4.046  -5.495  -5.787  0.00  0.00    -0.058 A 
ATOM      3  C5  TBL d          -4.774  -6.232  -6.738  0.00  0.00    -0.049 A 
ATOM      4  C6  TBL d          -4.291  -6.402  -8.041  0.00  0.00     0.068 A 
ATOM      5  C8  TBL d          -3.123  -5.773  -8.432  0.00  0.00    -0.049 A 
ATOM      6  C9  TBL d          -2.415  -4.991  -7.480  0.00  0.00    -0.058 A 
ATOM      7  H6  TBL d          -4.407  -5.429  -4.767  0.00  0.00     0.086 H 
ATOM      8  H7  TBL d          -5.724  -6.674  -6.458  0.00  0.00     0.087 H 
ATOM      9  H8  TBL d          -2.754  -5.876  -9.447  0.00  0.00     0.087 H 
ATOM     10  H9  TBL d          -1.504  -4.489  -7.786  0.00  0.00     0.086 H 
ENDROOT
BRANCH   1  11
ATOM     11  S1  TBL d          -2.033  -4.035  -5.004  0.00  0.00     0.259 S 
ATOM     12  O4  TBL d          -1.295  -3.029  -5.700  0.00  0.00    -0.201 OA
ATOM     13  O3  TBL d          -3.038  -3.529  -4.105  0.00  0.00    -0.201 OA
BRANCH  11  14
ATOM     14  N1  TBL d          -0.938  -4.920  -4.220  0.00  0.00    -0.301 N 
ATOM     15  H1  TBL d           0.019  -4.630  -4.194  0.00  0.00     0.173 HD
BRANCH  14  16
ATOM     16  C2  TBL d          -1.358  -6.158  -3.544  0.00  0.00     0.100 C 
ATOM     17  H2  TBL d          -2.440  -6.107  -3.357  0.00  0.00     0.089 H 
BRANCH  16  18
ATOM     18  C10 TBL d          -0.627  -6.294  -2.207  0.00  0.00    -0.048 C 
ATOM     19  H3  TBL d           0.454  -6.166  -2.365  0.00  0.00     0.030 H 
ATOM     20  H4  TBL d          -0.820  -7.291  -1.783  0.00  0.00     0.030 H 
ATOM     21  H5  TBL d          -0.989  -5.524  -1.511  0.00  0.00     0.030 H 
ENDBRANCH  16  18
BRANCH  16  22
ATOM     22  C1  TBL d          -1.072  -7.363  -4.402  0.00  0.00     0.196 C 
ATOM     23  O2  TBL d           0.056  -7.685  -4.720  0.00  0.00    -0.646 OA
ATOM     24  O1  TBL d          -2.090  -8.110  -4.826  0.00  0.00    -0.646 OA
ENDBRANCH  16  22
ENDBRANCH  14  16
ENDBRANCH  11  14
ENDBRANCH   1  11
BRANCH   4  25
ATOM     25  O5  TBL d          -5.055  -7.141  -8.929  0.00  0.00    -0.356 OA
BRANCH  25  26
ATOM     26  C7  TBL d          -6.176  -6.647  -9.647  0.00  0.00     0.010 C 
ATOM     27  H10 TBL d          -5.918  -5.684 -10.112  0.00  0.00     0.066 H 
ATOM     28  H11 TBL d          -7.020  -6.505  -8.956  0.00  0.00     0.066 H 
ATOM     29  H12 TBL d          -6.458  -7.368 -10.428  0.00  0.00     0.066 H 
ENDBRANCH  25  26
ENDBRANCH   4  25
TORSDOF 7
ENDMDL
MODEL 4
REMARK VINA RESULT:      -5.5      1.975      6.068
REMARK  7 active torsions:
REMARK  status: ('A' for Active; 'I' for Inactive)
REMARK    1  A    between atoms: S1_2  and  N1_4 
REMARK    2  A    between atoms: S1_2  and  C3_10 
REMARK    3  A    between atoms: N1_4  and  C2_5 
REMARK    4  A    between atoms: C2_5  and  C10_6 
REMARK    5  A    between atoms: C2_5  and  C1_7 
REMARK    6  A    between atoms: C6_13  and  O5_16 
REMARK    7  A    between atoms: O5_16  and  C7_17 
ROOT
ATOM      1  C3  TBL d          -1.670  -4.870  -4.958  0.00  0.00     0.079 A 
ATOM      2  C4  TBL d          -2.285  -3.621  -4.983  0.00  0.00    -0.058 A 
ATOM      3  C5  TBL d          -1.679  -2.511  -4.367  0.00  0.00    -0.049 A 
ATOM      4  C6  TBL d          -0.409  -2.615  -3.787  0.00  0.00     0.068 A 
ATOM      5  C8  TBL d           0.232  -3.840  -3.740  0.00  0.00    -0.049 A 
ATOM      6  C9  TBL d          -0.406  -4.968  -4.323  0.00  0.00    -0.058 A 
ATOM      7  H6  TBL d          -3.241  -3.502  -5.482  0.00  0.00     0.086 H 
ATOM      8  H7  TBL d          -2.203  -1.562  -4.342  0.00  0.00     0.087 H 
ATOM      9  H8  TBL d           1.203  -3.937  -3.268  0.00  0.00     0.087 H 
ATOM     10  H9  TBL d           0.089  -5.932  -4.281  0.00  0.00     0.086 H 
ENDROOT
BRANCH   1  11
ATOM     11  S1  TBL d          -2.388  -6.120  -5.714  0.00  0.00     0.259 S 
ATOM     12  O4  TBL d          -1.417  -6.638  -6.626  0.00  0.00    -0.201 OA
ATOM     13  O3  TBL d          -2.761  -7.025  -4.658  0.00  0.00    -0.201 OA
BRANCH  11  14
ATOM     14  N1  TBL d          -3.661  -5.712  -6.614  0.00  0.00    -0.301 N 
ATOM     15  H1  TBL d          -4.310  -5.024  -6.287  0.00  0.00     0.173 HD
BRANCH  14  16
ATOM     16  C2  TBL d          -3.861  -6.360  -7.920  0.00  0.00     0.100 C 
ATOM     17  H2  TBL d          -3.362  -7.339  -7.908  0.00  0.00     0.089 H 
BRANCH  16  18
ATOM     18  C10 TBL d          -3.245  -5.501  -9.026  0.00  0.00    -0.048 C 
ATOM     19  H3  TBL d          -2.389  -4.940  -8.622  0.00  0.00     0.030 H 
ATOM     20  H4  TBL d          -3.999  -4.796  -9.407  0.00  0.00     0.030 H 
ATOM     21  H5  TBL d          -2.902  -6.149  -9.846  0.00  0.00     0.030 H 
ENDBRANCH  16  18
BRANCH  16  22
ATOM     22  C1  TBL d          -5.327  -6.567  -8.199  0.00  0.00     0.196 C 
ATOM     23  O2  TBL d          -5.768  -6.677  -9.326  0.00  0.00    -0.646 OA
ATOM     24  O1  TBL d          -6.175  -6.638  -7.174  0.00  0.00    -0.646 OA
ENDBRANCH  16  22
ENDBRANCH  14  16
ENDBRANCH  11  14
ENDBRANCH   1  11
BRANCH   4  25
ATOM     25  O5  TBL d           0.134  -1.484  -3.198  0.00  0.00    -0.356 OA
BRANCH  25  26
ATOM     26  C7  TBL d           1.434  -1.404  -2.634  0.00  0.00     0.010 C 
ATOM     27  H10 TBL d           1.367  -1.501  -1.541  0.00  0.00     0.066 H 
ATOM     28  H11 TBL d           1.885  -0.433  -2.889  0.00  0.00     0.066 H 
ATOM     29  H12 TBL d           2.059  -2.215  -3.036  0.00  0.00     0.066 H 
ENDBRANCH  25  26
ENDBRANCH   4  25
TORSDOF 7
ENDMDL
MODEL 5
REMARK VINA RESULT:      -4.9      2.210      5.797
REMARK  7 active torsions:
REMARK  status: ('A' for Active; 'I' for Inactive)
REMARK    1  A    between atoms: S1_2  and  N1_4 
REMARK    2  A    between atoms: S1_2  and  C3_10 
REMARK    3  A    between atoms: N1_4  and  C2_5 
REMARK    4  A    between atoms: C2_5  and  C10_6 
REMARK    5  A    between atoms: C2_5  and  C1_7 
REMARK    6  A    between atoms: C6_13  and  O5_16 
REMARK    7  A    between atoms: O5_16  and  C7_17 
ROOT
ATOM      1  C3  TBL d          -0.914  -5.530  -3.781  0.00  0.00     0.079 A 
ATOM      2  C4  TBL d           0.105  -4.787  -4.372  0.00  0.00    -0.058 A 
ATOM      3  C5  TBL d           0.451  -3.520  -3.870  0.00  0.00    -0.049 A 
ATOM      4  C6  TBL d          -0.160  -3.010  -2.718  0.00  0.00     0.068 A 
ATOM      5  C8  TBL d          -1.178  -3.719  -2.104  0.00  0.00    -0.049 A 
ATOM      6  C9  TBL d          -1.556  -4.978  -2.644  0.00  0.00    -0.058 A 
ATOM      7  H6  TBL d           0.636  -5.189  -5.228  0.00  0.00     0.086 H 
ATOM      8  H7  TBL d           1.202  -2.929  -4.382  0.00  0.00     0.087 H 
ATOM      9  H8  TBL d          -1.677  -3.320  -1.228  0.00  0.00     0.087 H 
ATOM     10  H9  TBL d          -2.359  -5.532  -2.172  0.00  0.00     0.086 H 
ENDROOT
BRANCH   1  11
ATOM     11  S1  TBL d          -1.259  -7.008  -4.371  0.00  0.00     0.259 S 
ATOM     12  O4  TBL d          -0.004  -7.591  -4.728  0.00  0.00    -0.201 OA
ATOM     13  O3  TBL d          -1.951  -7.680  -3.302  0.00  0.00    -0.201 OA
BRANCH  11  14
ATOM     14  N1  TBL d          -2.138  -6.997  -5.722  0.00  0.00    -0.301 N 
ATOM     15  H1  TBL d          -2.249  -7.834  -6.257  0.00  0.00     0.173 HD
BRANCH  14  16
ATOM     16  C2  TBL d          -2.774  -5.745  -6.160  0.00  0.00     0.100 C 
ATOM     17  H2  TBL d          -2.494  -4.944  -5.461  0.00  0.00     0.089 H 
BRANCH  16  18
ATOM     18  C10 TBL d          -4.296  -5.904  -6.152  0.00  0.00    -0.048 C 
ATOM     19  H3  TBL d          -4.758  -4.990  -5.750  0.00  0.00     0.030 H 
ATOM     20  H4  TBL d          -4.572  -6.762  -5.521  0.00  0.00     0.030 H 
ATOM     21  H5  TBL d          -4.653  -6.073  -7.178  0.00  0.00     0.030 H 
ENDBRANCH  16  18
BRANCH  16  22
ATOM     22  C1  TBL d          -2.314  -5.363  -7.543  0.00  0.00     0.196 C 
ATOM     23  O2  TBL d          -3.088  -5.046  -8.424  0.00  0.00    -0.646 OA
ATOM     24  O1  TBL d          -1.009  -5.366  -7.812  0.00  0.00    -0.646 OA
ENDBRANCH  16  22
ENDBRANCH  14  16
ENDBRANCH  11  14
ENDBRANCH   1  11
BRANCH   4  25
ATOM     25  O5  TBL d           0.227  -1.756  -2.273  0.00  0.00    -0.356 OA
BRANCH  25  26
ATOM     26  C7  TBL d           1.566  -1.360  -2.017  0.00  0.00     0.010 C 
ATOM     27  H10 TBL d           2.230  -2.231  -2.111  0.00  0.00     0.066 H 
ATOM     28  H11 TBL d           1.639  -0.951  -0.999  0.00  0.00     0.066 H 
ATOM     29  H12 TBL d           1.866  -0.591  -2.744  0.00  0.00     0.066 H 
ENDBRANCH  25  26
ENDBRANCH   4  25
TORSDOF 7
ENDMDL
MODEL 6
REMARK VINA RESULT:      -4.9      1.763      2.494
REMARK  7 active torsions:
REMARK  status: ('A' for Active; 'I' for Inactive)
REMARK    1  A    between atoms: S1_2  and  N1_4 
REMARK    2  A    between atoms: S1_2  and  C3_10 
REMARK    3  A    between atoms: N1_4  and  C2_5 
REMARK    4  A    between atoms: C2_5  and  C10_6 
REMARK    5  A    between atoms: C2_5  and  C1_7 
REMARK    6  A    between atoms: C6_13  and  O5_16 
REMARK    7  A    between atoms: O5_16  and  C7_17 
ROOT
ATOM      1  C3  TBL d          -3.348  -5.400  -6.596  0.00  0.00     0.079 A 
ATOM      2  C4  TBL d          -2.703  -5.286  -7.825  0.00  0.00    -0.058 A 
ATOM      3  C5  TBL d          -3.274  -5.836  -8.987  0.00  0.00    -0.049 A 
ATOM      4  C6  TBL d          -4.538  -6.437  -8.953  0.00  0.00     0.068 A 
ATOM      5  C8  TBL d          -5.208  -6.570  -7.750  0.00  0.00    -0.049 A 
ATOM      6  C9  TBL d          -4.605  -6.054  -6.571  0.00  0.00    -0.058 A 
ATOM      7  H6  TBL d          -1.752  -4.770  -7.887  0.00  0.00     0.086 H 
ATOM      8  H7  TBL d          -2.727  -5.794  -9.922  0.00  0.00     0.087 H 
ATOM      9  H8  TBL d          -6.175  -7.059  -7.708  0.00  0.00     0.087 H 
ATOM     10  H9  TBL d          -5.122  -6.165  -5.624  0.00  0.00     0.086 H 
ENDROOT
BRANCH   1  11
ATOM     11  S1  TBL d          -2.670  -4.718  -5.281  0.00  0.00     0.259 S 
ATOM     12  O4  TBL d          -1.631  -3.868  -5.772  0.00  0.00    -0.201 OA
ATOM     13  O3  TBL d          -3.750  -4.028  -4.625  0.00  0.00    -0.201 OA
BRANCH  11  14
ATOM     14  N1  TBL d          -1.951  -5.762  -4.286  0.00  0.00    -0.301 N 
ATOM     15  H1  TBL d          -2.136  -6.742  -4.363  0.00  0.00     0.173 HD
BRANCH  14  16
ATOM     16  C2  TBL d          -1.018  -5.260  -3.264  0.00  0.00     0.100 C 
ATOM     17  H2  TBL d          -0.681  -6.107  -2.649  0.00  0.00     0.089 H 
BRANCH  16  18
ATOM     18  C10 TBL d          -1.728  -4.244  -2.366  0.00  0.00    -0.048 C 
ATOM     19  H3  TBL d          -2.377  -4.774  -1.654  0.00  0.00     0.030 H 
ATOM     20  H4  TBL d          -2.338  -3.570  -2.986  0.00  0.00     0.030 H 
ATOM     21  H5  TBL d          -0.979  -3.658  -1.813  0.00  0.00     0.030 H 
ENDBRANCH  16  18
BRANCH  16  22
ATOM     22  C1  TBL d           0.185  -4.616  -3.903  0.00  0.00     0.196 C 
ATOM     23  O2  TBL d           0.586  -3.516  -3.579  0.00  0.00    -0.646 OA
ATOM     24  O1  TBL d           0.839  -5.277  -4.858  0.00  0.00    -0.646 OA
ENDBRANCH  16  22
ENDBRANCH  14  16
ENDBRANCH  11  14
ENDBRANCH   1  11
BRANCH   4  25
ATOM     25  O5  TBL d          -5.046  -6.958 -10.132  0.00  0.00    -0.356 OA
BRANCH  25  26
ATOM     26  C7  TBL d          -6.246  -7.707 -10.242  0.00  0.00     0.010 C 
ATOM     27  H10 TBL d          -6.060  -8.745  -9.931  0.00  0.00     0.066 H 
ATOM     28  H11 TBL d          -6.593  -7.694 -11.286  0.00  0.00     0.066 H 
ATOM     29  H12 TBL d          -7.017  -7.263  -9.593  0.00  0.00     0.066 H 
ENDBRANCH  25  26
ENDBRANCH   4  25
TORSDOF 7
ENDMDL
MODEL 7
REMARK VINA RESULT:      -4.8      2.242      5.748
REMARK  7 active torsions:
REMARK  status: ('A' for Active; 'I' for Inactive)
REMARK    1  A    between atoms: S1_2  and  N1_4 
REMARK    2  A    between atoms: S1_2  and  C3_10 
REMARK    3  A    between atoms: N1_4  and  C2_5 
REMARK    4  A    between atoms: C2_5  and  C10_6 
REMARK    5  A    between atoms: C2_5  and  C1_7 
REMARK    6  A    between atoms: C6_13  and  O5_16 
REMARK    7  A    between atoms: O5_16  and  C7_17 
ROOT
ATOM      1  C3  TBL d          -2.057  -5.141  -5.027  0.00  0.00     0.079 A 
ATOM      2  C4  TBL d          -0.755  -5.478  -4.665  0.00  0.00    -0.058 A 
ATOM      3  C5  TBL d           0.143  -4.492  -4.218  0.00  0.00    -0.049 A 
ATOM      4  C6  TBL d          -0.272  -3.166  -4.047  0.00  0.00     0.068 A 
ATOM      5  C8  TBL d          -1.557  -2.792  -4.398  0.00  0.00    -0.049 A 
ATOM      6  C9  TBL d          -2.446  -3.784  -4.894  0.00  0.00    -0.058 A 
ATOM      7  H6  TBL d          -0.430  -6.511  -4.730  0.00  0.00     0.086 H 
ATOM      8  H7  TBL d           1.170  -4.763  -4.002  0.00  0.00     0.087 H 
ATOM      9  H8  TBL d          -1.879  -1.762  -4.296  0.00  0.00     0.087 H 
ATOM     10  H9  TBL d          -3.451  -3.494  -5.179  0.00  0.00     0.086 H 
ENDROOT
BRANCH   1  11
ATOM     11  S1  TBL d          -3.075  -6.318  -5.506  0.00  0.00     0.259 S 
ATOM     12  O4  TBL d          -2.714  -7.478  -4.754  0.00  0.00    -0.201 OA
ATOM     13  O3  TBL d          -4.391  -5.806  -5.223  0.00  0.00    -0.201 OA
BRANCH  11  14
ATOM     14  N1  TBL d          -2.928  -6.736  -7.055  0.00  0.00    -0.301 N 
ATOM     15  H1  TBL d          -2.458  -7.583  -7.306  0.00  0.00     0.173 HD
BRANCH  14  16
ATOM     16  C2  TBL d          -3.492  -5.863  -8.096  0.00  0.00     0.100 C 
ATOM     17  H2  TBL d          -4.219  -5.182  -7.630  0.00  0.00     0.089 H 
BRANCH  16  18
ATOM     18  C10 TBL d          -4.208  -6.707  -9.153  0.00  0.00    -0.048 C 
ATOM     19  H3  TBL d          -3.487  -7.023  -9.921  0.00  0.00     0.030 H 
ATOM     20  H4  TBL d          -5.005  -6.111  -9.621  0.00  0.00     0.030 H 
ATOM     21  H5  TBL d          -4.647  -7.596  -8.676  0.00  0.00     0.030 H 
ENDBRANCH  16  18
BRANCH  16  22
ATOM     22  C1  TBL d          -2.413  -5.042  -8.752  0.00  0.00     0.196 C 
ATOM     23  O2  TBL d          -2.657  -4.171  -9.563  0.00  0.00    -0.646 OA
ATOM     24  O1  TBL d          -1.141  -5.273  -8.430  0.00  0.00    -0.646 OA
ENDBRANCH  16  22
ENDBRANCH  14  16
ENDBRANCH  11  14
ENDBRANCH   1  11
BRANCH   4  25
ATOM     25  O5  TBL d           0.660  -2.242  -3.602  0.00  0.00    -0.356 OA
BRANCH  25  26
ATOM     26  C7  TBL d           0.946  -1.966  -2.239  0.00  0.00     0.010 C 
ATOM     27  H10 TBL d           1.993  -2.224  -2.024  0.00  0.00     0.066 H 
ATOM     28  H11 TBL d           0.282  -2.564  -1.596  0.00  0.00     0.066 H 
ATOM     29  H12 TBL d           0.784  -0.896  -2.039  0.00  0.00     0.066 H 
ENDBRANCH  25  26
ENDBRANCH   4  25
TORSDOF 7
ENDMDL
