MODEL 1
REMARK VINA RESULT:      -4.6      0.000      0.000
REMARK  3 active torsions:
REMARK  status: ('A' for Active; 'I' for Inactive)
REMARK    1  A    between atoms: C1'_1  and  C2_7 
REMARK    2  A    between atoms: C2_7  and  C1_8 
REMARK    3  A    between atoms: C1_8  and  N_9 
ROOT
ATOM      1  C1' PEA d          45.846  20.166  50.811  0.00  0.00    -0.057 A 
ATOM      2  C6' PEA d          46.678  20.984  51.555  0.00  0.00    -0.077 A 
ATOM      3  C5' PEA d          46.954  22.296  51.208  0.00  0.00    -0.082 A 
ATOM      4  C4' PEA d          46.402  22.848  50.062  0.00  0.00    -0.083 A 
ATOM      5  C3' PEA d          45.582  22.037  49.299  0.00  0.00    -0.082 A 
ATOM      6  C2' PEA d          45.316  20.739  49.665  0.00  0.00    -0.077 A 
ATOM      7  H1  PEA d          47.135  20.578  52.450  0.00  0.00     0.084 H 
ATOM      8  H2  PEA d          47.605  22.895  51.835  0.00  0.00     0.083 H 
ATOM      9  H3  PEA d          46.605  23.874  49.775  0.00  0.00     0.083 H 
ATOM     10  H4  PEA d          45.139  22.434  48.392  0.00  0.00     0.083 H 
ATOM     11  H5  PEA d          44.668  20.141  49.035  0.00  0.00     0.084 H 
ENDROOT
BRANCH   1  12
ATOM     12  C2  PEA d          45.571  18.842  51.215  0.00  0.00    -0.019 C 
ATOM     13  H6  PEA d          46.338  18.173  50.795  0.00  0.00     0.042 H 
ATOM     14  H7  PEA d          44.581  18.550  50.835  0.00  0.00     0.042 H 
BRANCH  12  15
ATOM     15  C1  PEA d          45.576  18.704  52.768  0.00  0.00     0.083 C 
ATOM     16  H8  PEA d          44.575  18.947  53.151  0.00  0.00     0.075 H 
ATOM     17  H9  PEA d          46.310  19.408  53.187  0.00  0.00     0.075 H 
BRANCH  15  18
ATOM     18  N   PEA d          45.936  17.318  53.196  0.00  0.00    -0.079 N 
ATOM     19  H10 PEA d          46.936  17.244  53.289  0.00  0.00     0.274 HD
ATOM     20  H11 PEA d          45.613  16.659  52.505  0.00  0.00     0.274 HD
ATOM     21  H12 PEA d          45.500  17.116  54.082  0.00  0.00     0.274 HD
ENDBRANCH  15  18
ENDBRANCH  12  15
ENDBRANCH   1  12
TORSDOF 3
ENDMDL
MODEL 2
REMARK VINA RESULT:      -4.5      1.466      1.495
REMARK  3 active torsions:
REMARK  status: ('A' for Active; 'I' for Inactive)
REMARK    1  A    between atoms: C1'_1  and  C2_7 
REMARK    2  A    between atoms: C2_7  and  C1_8 
REMARK    3  A    between atoms: C1_8  and  N_9 
ROOT
ATOM      1  C1' PEA d          45.019  20.271  51.191  0.00  0.00    -0.057 A 
ATOM      2  C6' PEA d          45.219  21.294  52.101  0.00  0.00    -0.077 A 
ATOM      3  C5' PEA d          44.719  22.573  51.921  0.00  0.00    -0.082 A 
ATOM      4  C4' PEA d          43.992  22.886  50.782  0.00  0.00    -0.083 A 
ATOM      5  C3' PEA d          43.798  21.878  49.856  0.00  0.00    -0.082 A 
ATOM      6  C2' PEA d          44.297  20.613  50.058  0.00  0.00    -0.077 A 
ATOM      7  H1  PEA d          45.794  21.084  52.995  0.00  0.00     0.084 H 
ATOM      8  H2  PEA d          44.897  23.333  52.673  0.00  0.00     0.083 H 
ATOM      9  H3  PEA d          43.591  23.882  50.624  0.00  0.00     0.083 H 
ATOM     10  H4  PEA d          43.240  22.090  48.951  0.00  0.00     0.083 H 
ATOM     11  H5  PEA d          44.121  19.856  49.303  0.00  0.00     0.084 H 
ENDROOT
BRANCH   1  12
ATOM     12  C2  PEA d          45.524  18.974  51.427  0.00  0.00    -0.019 C 
ATOM     13  H6  PEA d          46.512  18.884  50.951  0.00  0.00     0.042 H 
ATOM     14  H7  PEA d          44.835  18.237  50.987  0.00  0.00     0.042 H 
BRANCH  12  15
ATOM     15  C1  PEA d          45.669  18.684  52.952  0.00  0.00     0.083 C 
ATOM     16  H8  PEA d          44.745  18.993  53.463  0.00  0.00     0.075 H 
ATOM     17  H9  PEA d          46.517  19.262  53.347  0.00  0.00     0.075 H 
BRANCH  15  18
ATOM     18  N   PEA d          45.907  17.232  53.215  0.00  0.00    -0.079 N 
ATOM     19  H10 PEA d          45.089  16.705  52.952  0.00  0.00     0.274 HD
ATOM     20  H11 PEA d          46.093  17.095  54.196  0.00  0.00     0.274 HD
ATOM     21  H12 PEA d          46.697  16.918  52.675  0.00  0.00     0.274 HD
ENDBRANCH  15  18
ENDBRANCH  12  15
ENDBRANCH   1  12
TORSDOF 3
ENDMDL
MODEL 3
REMARK VINA RESULT:      -4.5      0.108      1.570
REMARK  3 active torsions:
REMARK  status: ('A' for Active; 'I' for Inactive)
REMARK    1  A    between atoms: C1'_1  and  C2_7 
REMARK    2  A    between atoms: C2_7  and  C1_8 
REMARK    3  A    between atoms: C1_8  and  N_9 
ROOT
ATOM      1  C1' PEA d          45.911  20.226  50.852  0.00  0.00    -0.057 A 
ATOM      2  C6' PEA d          45.402  20.723  49.665  0.00  0.00    -0.077 A 
ATOM      3  C5' PEA d          45.629  22.019  49.229  0.00  0.00    -0.082 A 
ATOM      4  C4' PEA d          46.384  22.893  49.998  0.00  0.00    -0.083 A 
ATOM      5  C3' PEA d          46.885  22.415  51.195  0.00  0.00    -0.082 A 
ATOM      6  C2' PEA d          46.653  21.124  51.604  0.00  0.00    -0.077 A 
ATOM      7  H1  PEA d          44.798  20.069  49.047  0.00  0.00     0.084 H 
ATOM      8  H2  PEA d          45.215  22.352  48.284  0.00  0.00     0.083 H 
ATOM      9  H3  PEA d          46.573  23.910  49.673  0.00  0.00     0.083 H 
ATOM     10  H4  PEA d          47.473  23.074  51.824  0.00  0.00     0.083 H 
ATOM     11  H5  PEA d          47.065  20.794  52.551  0.00  0.00     0.084 H 
ENDROOT
BRANCH   1  12
ATOM     12  C2  PEA d          45.676  18.891  51.244  0.00  0.00    -0.019 C 
ATOM     13  H6  PEA d          46.498  18.260  50.873  0.00  0.00     0.042 H 
ATOM     14  H7  PEA d          44.726  18.552  50.807  0.00  0.00     0.042 H 
BRANCH  12  15
ATOM     15  C1  PEA d          45.596  18.756  52.795  0.00  0.00     0.083 C 
ATOM     16  H8  PEA d          44.560  18.939  53.116  0.00  0.00     0.075 H 
ATOM     17  H9  PEA d          46.260  19.503  53.254  0.00  0.00     0.075 H 
BRANCH  15  18
ATOM     18  N   PEA d          46.010  17.394  53.251  0.00  0.00    -0.079 N 
ATOM     19  H10 PEA d          46.721  17.479  53.959  0.00  0.00     0.274 HD
ATOM     20  H11 PEA d          46.376  16.875  52.468  0.00  0.00     0.274 HD
ATOM     21  H12 PEA d          45.212  16.909  53.632  0.00  0.00     0.274 HD
ENDBRANCH  15  18
ENDBRANCH  12  15
ENDBRANCH   1  12
TORSDOF 3
ENDMDL
MODEL 4
REMARK VINA RESULT:      -4.4      1.473      2.144
REMARK  3 active torsions:
REMARK  status: ('A' for Active; 'I' for Inactive)
REMARK    1  A    between atoms: C1'_1  and  C2_7 
REMARK    2  A    between atoms: C2_7  and  C1_8 
REMARK    3  A    between atoms: C1_8  and  N_9 
ROOT
ATOM      1  C1' PEA d          45.540  20.225  51.521  0.00  0.00    -0.057 A 
ATOM      2  C6' PEA d          44.960  19.721  50.370  0.00  0.00    -0.077 A 
ATOM      3  C5' PEA d          44.115  20.464  49.562  0.00  0.00    -0.082 A 
ATOM      4  C4' PEA d          43.799  21.772  49.897  0.00  0.00    -0.083 A 
ATOM      5  C3' PEA d          44.357  22.284  51.054  0.00  0.00    -0.082 A 
ATOM      6  C2' PEA d          45.199  21.531  51.837  0.00  0.00    -0.077 A 
ATOM      7  H1  PEA d          45.178  18.697  50.088  0.00  0.00     0.084 H 
ATOM      8  H2  PEA d          43.698  20.021  48.665  0.00  0.00     0.083 H 
ATOM      9  H3  PEA d          43.140  22.369  49.276  0.00  0.00     0.083 H 
ATOM     10  H4  PEA d          44.125  23.301  51.349  0.00  0.00     0.083 H 
ATOM     11  H5  PEA d          45.612  21.975  52.736  0.00  0.00     0.084 H 
ENDROOT
BRANCH   1  12
ATOM     12  C2  PEA d          46.417  19.441  52.301  0.00  0.00    -0.019 C 
ATOM     13  H6  PEA d          47.091  20.108  52.859  0.00  0.00     0.042 H 
ATOM     14  H7  PEA d          47.007  18.795  51.634  0.00  0.00     0.042 H 
BRANCH  12  15
ATOM     15  C1  PEA d          45.639  18.545  53.313  0.00  0.00     0.083 C 
ATOM     16  H8  PEA d          44.586  18.863  53.335  0.00  0.00     0.075 H 
ATOM     17  H9  PEA d          46.080  18.670  54.313  0.00  0.00     0.075 H 
BRANCH  15  18
ATOM     18  N   PEA d          45.702  17.102  52.931  0.00  0.00    -0.079 N 
ATOM     19  H10 PEA d          45.260  16.972  52.034  0.00  0.00     0.274 HD
ATOM     20  H11 PEA d          45.223  16.550  53.624  0.00  0.00     0.274 HD
ATOM     21  H12 PEA d          46.666  16.810  52.876  0.00  0.00     0.274 HD
ENDBRANCH  15  18
ENDBRANCH  12  15
ENDBRANCH   1  12
TORSDOF 3
ENDMDL
MODEL 5
REMARK VINA RESULT:      -4.3      2.575      4.220
REMARK  3 active torsions:
REMARK  status: ('A' for Active; 'I' for Inactive)
REMARK    1  A    between atoms: C1'_1  and  C2_7 
REMARK    2  A    between atoms: C2_7  and  C1_8 
REMARK    3  A    between atoms: C1_8  and  N_9 
ROOT
ATOM      1  C1' PEA d          45.618  20.657  50.215  0.00  0.00    -0.057 A 
ATOM      2  C6' PEA d          44.813  19.533  50.157  0.00  0.00    -0.077 A 
ATOM      3  C5' PEA d          44.729  18.610  51.187  0.00  0.00    -0.082 A 
ATOM      4  C4' PEA d          45.482  18.777  52.340  0.00  0.00    -0.083 A 
ATOM      5  C3' PEA d          46.304  19.887  52.405  0.00  0.00    -0.082 A 
ATOM      6  C2' PEA d          46.367  20.794  51.374  0.00  0.00    -0.077 A 
ATOM      7  H1  PEA d          44.222  19.367  49.264  0.00  0.00     0.084 H 
ATOM      8  H2  PEA d          44.072  17.753  51.092  0.00  0.00     0.083 H 
ATOM      9  H3  PEA d          45.428  18.066  53.157  0.00  0.00     0.083 H 
ATOM     10  H4  PEA d          46.912  20.045  53.289  0.00  0.00     0.083 H 
ATOM     11  H5  PEA d          47.027  21.649  51.470  0.00  0.00     0.084 H 
ENDROOT
BRANCH   1  12
ATOM     12  C2  PEA d          45.654  21.585  49.153  0.00  0.00    -0.019 C 
ATOM     13  H6  PEA d          45.289  21.096  48.238  0.00  0.00     0.042 H 
ATOM     14  H7  PEA d          46.692  21.917  49.003  0.00  0.00     0.042 H 
BRANCH  12  15
ATOM     15  C1  PEA d          44.764  22.830  49.451  0.00  0.00     0.083 C 
ATOM     16  H8  PEA d          45.151  23.689  48.883  0.00  0.00     0.075 H 
ATOM     17  H9  PEA d          44.809  23.053  50.527  0.00  0.00     0.075 H 
BRANCH  15  18
ATOM     18  N   PEA d          43.340  22.594  49.062  0.00  0.00    -0.079 N 
ATOM     19  H10 PEA d          42.833  23.463  49.100  0.00  0.00     0.274 HD
ATOM     20  H11 PEA d          42.924  21.934  49.700  0.00  0.00     0.274 HD
ATOM     21  H12 PEA d          43.304  22.224  48.125  0.00  0.00     0.274 HD
ENDBRANCH  15  18
ENDBRANCH  12  15
ENDBRANCH   1  12
TORSDOF 3
ENDMDL
MODEL 6
REMARK VINA RESULT:      -4.2      2.820      4.130
REMARK  3 active torsions:
REMARK  status: ('A' for Active; 'I' for Inactive)
REMARK    1  A    between atoms: C1'_1  and  C2_7 
REMARK    2  A    between atoms: C2_7  and  C1_8 
REMARK    3  A    between atoms: C1_8  and  N_9 
ROOT
ATOM      1  C1' PEA d          45.360  20.916  50.357  0.00  0.00    -0.057 A 
ATOM      2  C6' PEA d          46.278  20.775  51.383  0.00  0.00    -0.077 A 
ATOM      3  C5' PEA d          46.313  19.670  52.219  0.00  0.00    -0.082 A 
ATOM      4  C4' PEA d          45.394  18.644  52.061  0.00  0.00    -0.083 A 
ATOM      5  C3' PEA d          44.459  18.779  51.050  0.00  0.00    -0.082 A 
ATOM      6  C2' PEA d          44.446  19.880  50.228  0.00  0.00    -0.077 A 
ATOM      7  H1  PEA d          47.002  21.566  51.540  0.00  0.00     0.084 H 
ATOM      8  H2  PEA d          47.063  19.607  52.999  0.00  0.00     0.083 H 
ATOM      9  H3  PEA d          45.407  17.771  52.704  0.00  0.00     0.083 H 
ATOM     10  H4  PEA d          43.721  17.998  50.903  0.00  0.00     0.083 H 
ATOM     11  H5  PEA d          43.694  19.942  49.451  0.00  0.00     0.084 H 
ENDROOT
BRANCH   1  12
ATOM     12  C2  PEA d          45.376  22.046  49.513  0.00  0.00    -0.019 C 
ATOM     13  H6  PEA d          45.273  21.714  48.469  0.00  0.00     0.042 H 
ATOM     14  H7  PEA d          46.334  22.572  49.638  0.00  0.00     0.042 H 
BRANCH  12  15
ATOM     15  C1  PEA d          44.212  23.028  49.847  0.00  0.00     0.083 C 
ATOM     16  H8  PEA d          44.638  24.001  50.133  0.00  0.00     0.075 H 
ATOM     17  H9  PEA d          43.632  22.621  50.688  0.00  0.00     0.075 H 
BRANCH  15  18
ATOM     18  N   PEA d          43.302  23.221  48.677  0.00  0.00    -0.079 N 
ATOM     19  H10 PEA d          42.354  23.015  48.952  0.00  0.00     0.274 HD
ATOM     20  H11 PEA d          43.577  22.602  47.932  0.00  0.00     0.274 HD
ATOM     21  H12 PEA d          43.360  24.176  48.360  0.00  0.00     0.274 HD
ENDBRANCH  15  18
ENDBRANCH  12  15
ENDBRANCH   1  12
TORSDOF 3
ENDMDL
MODEL 7
REMARK VINA RESULT:      -3.9      2.138      3.727
REMARK  3 active torsions:
REMARK  status: ('A' for Active; 'I' for Inactive)
REMARK    1  A    between atoms: C1'_1  and  C2_7 
REMARK    2  A    between atoms: C2_7  and  C1_8 
REMARK    3  A    between atoms: C1_8  and  N_9 
ROOT
ATOM      1  C1' PEA d          46.249  21.083  51.249  0.00  0.00    -0.057 A 
ATOM      2  C6' PEA d          45.198  21.129  50.350  0.00  0.00    -0.077 A 
ATOM      3  C5' PEA d          44.322  20.073  50.157  0.00  0.00    -0.082 A 
ATOM      4  C4' PEA d          44.481  18.893  50.869  0.00  0.00    -0.083 A 
ATOM      5  C3' PEA d          45.537  18.827  51.759  0.00  0.00    -0.082 A 
ATOM      6  C2' PEA d          46.391  19.889  51.940  0.00  0.00    -0.077 A 
ATOM      7  H1  PEA d          45.054  22.033  49.769  0.00  0.00     0.084 H 
ATOM      8  H2  PEA d          43.508  20.169  49.447  0.00  0.00     0.083 H 
ATOM      9  H3  PEA d          43.805  18.057  50.733  0.00  0.00     0.083 H 
ATOM     10  H4  PEA d          45.695  17.917  52.328  0.00  0.00     0.083 H 
ATOM     11  H5  PEA d          47.205  19.790  52.648  0.00  0.00     0.084 H 
ENDROOT
BRANCH   1  12
ATOM     12  C2  PEA d          47.102  22.192  51.432  0.00  0.00    -0.019 C 
ATOM     13  H6  PEA d          46.718  23.040  50.844  0.00  0.00     0.042 H 
ATOM     14  H7  PEA d          48.111  21.929  51.081  0.00  0.00     0.042 H 
BRANCH  12  15
ATOM     15  C1  PEA d          47.182  22.612  52.931  0.00  0.00     0.083 C 
ATOM     16  H8  PEA d          47.861  23.472  53.025  0.00  0.00     0.075 H 
ATOM     17  H9  PEA d          47.574  21.769  53.518  0.00  0.00     0.075 H 
BRANCH  15  18
ATOM     18  N   PEA d          45.840  22.994  53.468  0.00  0.00    -0.079 N 
ATOM     19  H10 PEA d          45.155  22.933  52.731  0.00  0.00     0.274 HD
ATOM     20  H11 PEA d          45.874  23.938  53.816  0.00  0.00     0.274 HD
ATOM     21  H12 PEA d          45.586  22.367  54.216  0.00  0.00     0.274 HD
ENDBRANCH  15  18
ENDBRANCH  12  15
ENDBRANCH   1  12
TORSDOF 3
ENDMDL
MODEL 8
REMARK VINA RESULT:      -3.9      1.953      2.613
REMARK  3 active torsions:
REMARK  status: ('A' for Active; 'I' for Inactive)
REMARK    1  A    between atoms: C1'_1  and  C2_7 
REMARK    2  A    between atoms: C2_7  and  C1_8 
REMARK    3  A    between atoms: C1_8  and  N_9 
ROOT
ATOM      1  C1' PEA d          44.890  21.161  51.338  0.00  0.00    -0.057 A 
ATOM      2  C6' PEA d          44.221  22.359  51.160  0.00  0.00    -0.077 A 
ATOM      3  C5' PEA d          44.476  23.488  51.923  0.00  0.00    -0.082 A 
ATOM      4  C4' PEA d          45.427  23.450  52.931  0.00  0.00    -0.083 A 
ATOM      5  C3' PEA d          46.091  22.254  53.133  0.00  0.00    -0.082 A 
ATOM      6  C2' PEA d          45.828  21.148  52.359  0.00  0.00    -0.077 A 
ATOM      7  H1  PEA d          43.463  22.418  50.387  0.00  0.00     0.084 H 
ATOM      8  H2  PEA d          43.930  24.404  51.731  0.00  0.00     0.083 H 
ATOM      9  H3  PEA d          45.641  24.323  53.538  0.00  0.00     0.083 H 
ATOM     10  H4  PEA d          46.836  22.187  53.917  0.00  0.00     0.083 H 
ATOM     11  H5  PEA d          46.373  20.232  52.555  0.00  0.00     0.084 H 
ENDROOT
BRANCH   1  12
ATOM     12  C2  PEA d          44.617  20.044  50.521  0.00  0.00    -0.019 C 
ATOM     13  H6  PEA d          44.959  20.258  49.497  0.00  0.00     0.042 H 
ATOM     14  H7  PEA d          43.532  19.861  50.515  0.00  0.00     0.042 H 
BRANCH  12  15
ATOM     15  C1  PEA d          45.342  18.764  51.038  0.00  0.00     0.083 C 
ATOM     16  H8  PEA d          46.096  19.058  51.783  0.00  0.00     0.075 H 
ATOM     17  H9  PEA d          45.838  18.267  50.192  0.00  0.00     0.075 H 
BRANCH  15  18
ATOM     18  N   PEA d          44.384  17.807  51.670  0.00  0.00    -0.079 N 
ATOM     19  H10 PEA d          44.425  16.923  51.187  0.00  0.00     0.274 HD
ATOM     20  H11 PEA d          43.449  18.178  51.609  0.00  0.00     0.274 HD
ATOM     21  H12 PEA d          44.631  17.672  52.638  0.00  0.00     0.274 HD
ENDBRANCH  15  18
ENDBRANCH  12  15
ENDBRANCH   1  12
TORSDOF 3
ENDMDL
MODEL 9
REMARK VINA RESULT:      -3.8      1.303      2.248
REMARK  3 active torsions:
REMARK  status: ('A' for Active; 'I' for Inactive)
REMARK    1  A    between atoms: C1'_1  and  C2_7 
REMARK    2  A    between atoms: C2_7  and  C1_8 
REMARK    3  A    between atoms: C1_8  and  N_9 
ROOT
ATOM      1  C1' PEA d          45.598  21.270  51.386  0.00  0.00    -0.057 A 
ATOM      2  C6' PEA d          46.312  22.041  50.486  0.00  0.00    -0.077 A 
ATOM      3  C5' PEA d          47.147  23.076  50.875  0.00  0.00    -0.082 A 
ATOM      4  C4' PEA d          47.289  23.394  52.217  0.00  0.00    -0.083 A 
ATOM      5  C3' PEA d          46.568  22.642  53.127  0.00  0.00    -0.082 A 
ATOM      6  C2' PEA d          45.750  21.615  52.720  0.00  0.00    -0.077 A 
ATOM      7  H1  PEA d          46.214  21.826  49.428  0.00  0.00     0.084 H 
ATOM      8  H2  PEA d          47.693  23.640  50.127  0.00  0.00     0.083 H 
ATOM      9  H3  PEA d          47.939  24.200  52.541  0.00  0.00     0.083 H 
ATOM     10  H4  PEA d          46.649  22.868  54.184  0.00  0.00     0.083 H 
ATOM     11  H5  PEA d          45.204  21.055  53.469  0.00  0.00     0.084 H 
ENDROOT
BRANCH   1  12
ATOM     12  C2  PEA d          44.779  20.207  50.948  0.00  0.00    -0.019 C 
ATOM     13  H6  PEA d          44.329  20.478  49.980  0.00  0.00     0.042 H 
ATOM     14  H7  PEA d          43.982  20.041  51.689  0.00  0.00     0.042 H 
BRANCH  12  15
ATOM     15  C1  PEA d          45.593  18.889  50.776  0.00  0.00     0.083 C 
ATOM     16  H8  PEA d          46.650  19.142  50.608  0.00  0.00     0.075 H 
ATOM     17  H9  PEA d          45.204  18.339  49.907  0.00  0.00     0.075 H 
BRANCH  15  18
ATOM     18  N   PEA d          45.489  18.018  51.987  0.00  0.00    -0.079 N 
ATOM     19  H10 PEA d          44.626  17.500  51.955  0.00  0.00     0.274 HD
ATOM     20  H11 PEA d          45.506  18.591  52.815  0.00  0.00     0.274 HD
ATOM     21  H12 PEA d          46.266  17.375  52.006  0.00  0.00     0.274 HD
ENDBRANCH  15  18
ENDBRANCH  12  15
ENDBRANCH   1  12
TORSDOF 3
ENDMDL
MODEL 10
REMARK VINA RESULT:      -3.5      2.127      2.787
REMARK  3 active torsions:
REMARK  status: ('A' for Active; 'I' for Inactive)
REMARK    1  A    between atoms: C1'_1  and  C2_7 
REMARK    2  A    between atoms: C2_7  and  C1_8 
REMARK    3  A    between atoms: C1_8  and  N_9 
ROOT
ATOM      1  C1' PEA d          45.635  21.839  50.487  0.00  0.00    -0.057 A 
ATOM      2  C6' PEA d          44.252  21.865  50.492  0.00  0.00    -0.077 A 
ATOM      3  C5' PEA d          43.510  22.765  49.745  0.00  0.00    -0.082 A 
ATOM      4  C4' PEA d          44.147  23.709  48.953  0.00  0.00    -0.083 A 
ATOM      5  C3' PEA d          45.530  23.707  48.951  0.00  0.00    -0.082 A 
ATOM      6  C2' PEA d          46.246  22.800  49.695  0.00  0.00    -0.077 A 
ATOM      7  H1  PEA d          43.724  21.148  51.110  0.00  0.00     0.084 H 
ATOM      8  H2  PEA d          42.427  22.732  49.778  0.00  0.00     0.083 H 
ATOM      9  H3  PEA d          43.584  24.421  48.360  0.00  0.00     0.083 H 
ATOM     10  H4  PEA d          46.061  24.436  48.349  0.00  0.00     0.083 H 
ATOM     11  H5  PEA d          47.329  22.837  49.663  0.00  0.00     0.084 H 
ENDROOT
BRANCH   1  12
ATOM     12  C2  PEA d          46.351  20.887  51.244  0.00  0.00    -0.019 C 
ATOM     13  H6  PEA d          47.401  21.208  51.320  0.00  0.00     0.042 H 
ATOM     14  H7  PEA d          46.300  19.914  50.733  0.00  0.00     0.042 H 
BRANCH  12  15
ATOM     15  C1  PEA d          45.762  20.736  52.679  0.00  0.00     0.083 C 
ATOM     16  H8  PEA d          46.125  19.794  53.116  0.00  0.00     0.075 H 
ATOM     17  H9  PEA d          44.664  20.711  52.614  0.00  0.00     0.075 H 
BRANCH  15  18
ATOM     18  N   PEA d          46.171  21.870  53.563  0.00  0.00    -0.079 N 
ATOM     19  H10 PEA d          46.512  22.631  52.997  0.00  0.00     0.274 HD
ATOM     20  H11 PEA d          46.899  21.563  54.188  0.00  0.00     0.274 HD
ATOM     21  H12 PEA d          45.376  22.181  54.100  0.00  0.00     0.274 HD
ENDBRANCH  15  18
ENDBRANCH  12  15
ENDBRANCH   1  12
TORSDOF 3
ENDMDL
