MODEL 1
REMARK VINA RESULT:      -9.0      0.000      0.000
REMARK  10 active torsions:
REMARK  status: ('A' for Active; 'I' for Inactive)
REMARK    1  A    between atoms: C2_2  and  C6_6 
REMARK    2  A    between atoms: C3_3  and  O20_16 
REMARK    3  A    between atoms: C5_5  and  C9_9 
REMARK    4  A    between atoms: C11_11  and  N29_21 
REMARK    5  A    between atoms: O20_16  and  C21_17 
REMARK    6  A    between atoms: C21_17  and  C22_18 
REMARK    7  A    between atoms: N29_21  and  C30_22 
REMARK    8  A    between atoms: N33_25  and  S46_28 
REMARK    9  A    between atoms: S46_28  and  C49_31 
REMARK   10  A    between atoms: C49_31  and  C50_32 
ROOT
ATOM      1  C30 MOL d          49.105   8.229   1.511  0.00  0.00     0.012 C 
ATOM      2  C31 MOL d          50.626   8.088   1.559  0.00  0.00    -0.031 C 
ATOM      3  C32 MOL d          51.088   6.739   2.059  0.00  0.00     0.007 C 
ATOM      4  N33 MOL d          50.363   6.465   3.301  0.00  0.00    -0.310 N 
ATOM      5  C34 MOL d          48.900   6.502   3.351  0.00  0.00     0.007 C 
ATOM      6  C35 MOL d          48.447   7.842   2.834  0.00  0.00    -0.031 C 
ATOM      7  H8  MOL d          48.712   7.571   0.722  0.00  0.00     0.072 H 
ATOM      8  H9  MOL d          51.027   8.864   2.228  0.00  0.00     0.038 H 
ATOM      9  H10 MOL d          51.023   8.239   0.544  0.00  0.00     0.038 H 
ATOM     10  H11 MOL d          52.170   6.759   2.252  0.00  0.00     0.065 H 
ATOM     11  H12 MOL d          50.862   5.964   1.312  0.00  0.00     0.065 H 
ATOM     12  H13 MOL d          48.558   6.368   4.388  0.00  0.00     0.065 H 
ATOM     13  H14 MOL d          48.485   5.700   2.722  0.00  0.00     0.065 H 
ATOM     14  H15 MOL d          47.358   7.810   2.687  0.00  0.00     0.038 H 
ATOM     15  H16 MOL d          48.694   8.607   3.584  0.00  0.00     0.038 H 
ENDROOT
BRANCH   1  16
ATOM     16  N29 MOL d          48.798   9.589   1.188  0.00  0.00    -0.385 N 
ATOM     17  H7  MOL d          49.572  10.264   1.107  0.00  0.00     0.160 HD
BRANCH  16  18
ATOM     18  C11 MOL d          47.527  10.026   0.983  0.00  0.00     0.029 A 
ATOM     19  C10 MOL d          47.333  11.408   1.303  0.00  0.00    -0.046 A 
ATOM     20  C9  MOL d          46.009  11.986   1.134  0.00  0.00    -0.015 A 
ATOM     21  H1  MOL d          48.156  12.012   1.665  0.00  0.00     0.088 H 
ATOM     22  C14 MOL d          44.914  11.182   0.603  0.00  0.00    -0.072 A 
ATOM     23  C13 MOL d          45.092   9.793   0.291  0.00  0.00    -0.080 A 
ATOM     24  H4  MOL d          43.947  11.643   0.440  0.00  0.00     0.084 H 
ATOM     25  C12 MOL d          46.415   9.223   0.478  0.00  0.00    -0.058 A 
ATOM     26  H3  MOL d          44.267   9.189  -0.070  0.00  0.00     0.083 H 
ATOM     27  H2  MOL d          46.581   8.179   0.238  0.00  0.00     0.086 H 
BRANCH  20  28
ATOM     28  C5  MOL d          45.710  13.382   1.512  0.00  0.00     0.036 A 
ATOM     29  S1  MOL d          44.523  14.339   0.546  0.00  0.00    -0.078 SA
ATOM     30  C2  MOL d          44.693  15.768   1.609  0.00  0.00     0.117 A 
ATOM     31  C3  MOL d          45.560  15.516   2.575  0.00  0.00     0.112 A 
ATOM     32  C4  MOL d          46.101  14.149   2.541  0.00  0.00     0.064 A 
ATOM     33 BR19 MOL d          47.146  13.599   3.981  0.00  0.00    -0.047 Br
BRANCH  30  34
ATOM     34  C6  MOL d          44.029  17.005   1.258  0.00  0.00     0.219 C 
ATOM     35  O7  MOL d          43.520  16.955   0.118  0.00  0.00    -0.643 OA
ATOM     36  O8  MOL d          43.979  18.010   2.000  0.00  0.00    -0.643 OA
ENDBRANCH  30  34
BRANCH  31  37
ATOM     37  O20 MOL d          45.815  16.418   3.512  0.00  0.00    -0.338 OA
BRANCH  37  38
ATOM     38  C21 MOL d          47.065  17.070   3.417  0.00  0.00     0.106 C 
ATOM     39  H5  MOL d          47.026  17.863   2.656  0.00  0.00     0.091 H 
ATOM     40  H6  MOL d          47.853  16.348   3.155  0.00  0.00     0.091 H 
BRANCH  38  41
ATOM     41  C22 MOL d          47.321  17.644   4.739  0.00  0.00     0.198 C 
ATOM     42  O25 MOL d          48.494  18.002   4.952  0.00  0.00    -0.646 OA
ATOM     43  O26 MOL d          46.388  17.750   5.567  0.00  0.00    -0.646 OA
ENDBRANCH  38  41
ENDBRANCH  37  38
ENDBRANCH  31  37
ENDBRANCH  20  28
ENDBRANCH  16  18
ENDBRANCH   1  16
BRANCH   4  44
ATOM     44  S46 MOL d          51.111   5.510   4.504  0.00  0.00     0.232 S 
ATOM     45  O47 MOL d          50.211   5.534   5.635  0.00  0.00    -0.205 OA
ATOM     46  O48 MOL d          52.460   6.027   4.646  0.00  0.00    -0.205 OA
BRANCH  44  47
ATOM     47  C49 MOL d          51.006   3.861   3.774  0.00  0.00     0.070 C 
ATOM     48  H17 MOL d          51.676   3.799   2.903  0.00  0.00     0.066 H 
ATOM     49  H18 MOL d          49.972   3.663   3.456  0.00  0.00     0.066 H 
BRANCH  47  50
ATOM     50  C50 MOL d          51.419   2.852   4.802  0.00  0.00    -0.043 A 
ATOM     51  C53 MOL d          52.845   2.642   4.963  0.00  0.00    -0.076 A 
ATOM     52  C54 MOL d          53.270   1.757   6.026  0.00  0.00    -0.082 A 
ATOM     53  H19 MOL d          53.563   3.129   4.314  0.00  0.00     0.084 H 
ATOM     54  C55 MOL d          52.270   1.086   6.855  0.00  0.00    -0.083 A 
ATOM     55  H20 MOL d          54.326   1.591   6.207  0.00  0.00     0.083 H 
ATOM     56  C56 MOL d          50.847   1.317   6.689  0.00  0.00    -0.082 A 
ATOM     57  H21 MOL d          52.603   0.393   7.618  0.00  0.00     0.083 H 
ATOM     58  C57 MOL d          50.397   2.211   5.636  0.00  0.00    -0.076 A 
ATOM     59  H22 MOL d          50.131   0.829   7.340  0.00  0.00     0.083 H 
ATOM     60  H23 MOL d          49.343   2.399   5.472  0.00  0.00     0.084 H 
ENDBRANCH  47  50
ENDBRANCH  44  47
ENDBRANCH   4  44
TORSDOF 10
ENDMDL
