MODEL 1
REMARK VINA RESULT:      -8.6      0.000      0.000
REMARK  10 active torsions:
REMARK  status: ('A' for Active; 'I' for Inactive)
REMARK    1  A    between atoms: C2_2  and  C6_6 
REMARK    2  A    between atoms: C3_3  and  O20_16 
REMARK    3  A    between atoms: C5_5  and  C9_9 
REMARK    4  A    between atoms: C11_11  and  N29_21 
REMARK    5  A    between atoms: O20_16  and  C21_17 
REMARK    6  A    between atoms: C21_17  and  C22_18 
REMARK    7  A    between atoms: N29_21  and  C30_22 
REMARK    8  A    between atoms: N33_25  and  S46_28 
REMARK    9  A    between atoms: S46_28  and  C49_31 
REMARK   10  A    between atoms: C49_31  and  C50_32 
ROOT
ATOM      1  C30 MOL d          48.968   8.888   1.875  0.00  0.00     0.012 C 
ATOM      2  C31 MOL d          48.244   7.732   2.566  0.00  0.00    -0.031 C 
ATOM      3  C32 MOL d          48.934   7.259   3.824  0.00  0.00     0.007 C 
ATOM      4  N33 MOL d          50.344   7.046   3.493  0.00  0.00    -0.310 N 
ATOM      5  C34 MOL d          51.152   8.111   2.893  0.00  0.00     0.007 C 
ATOM      6  C35 MOL d          50.449   8.590   1.650  0.00  0.00    -0.031 C 
ATOM      7  H8  MOL d          48.886   9.786   2.506  0.00  0.00     0.072 H 
ATOM      8  H9  MOL d          48.183   6.889   1.863  0.00  0.00     0.038 H 
ATOM      9  H10 MOL d          47.228   8.064   2.828  0.00  0.00     0.038 H 
ATOM     10  H11 MOL d          48.483   6.318   4.170  0.00  0.00     0.065 H 
ATOM     11  H12 MOL d          48.843   8.020   4.612  0.00  0.00     0.065 H 
ATOM     12  H13 MOL d          52.147   7.721   2.631  0.00  0.00     0.065 H 
ATOM     13  H14 MOL d          51.260   8.943   3.605  0.00  0.00     0.065 H 
ATOM     14  H15 MOL d          50.942   9.508   1.302  0.00  0.00     0.038 H 
ATOM     15  H16 MOL d          50.535   7.812   0.878  0.00  0.00     0.038 H 
ENDROOT
BRANCH   1  16
ATOM     16  N29 MOL d          48.318   9.130   0.623  0.00  0.00    -0.385 N 
ATOM     17  H7  MOL d          48.812   8.882  -0.246  0.00  0.00     0.160 HD
BRANCH  16  18
ATOM     18  C11 MOL d          47.075   9.673   0.534  0.00  0.00     0.029 A 
ATOM     19  C10 MOL d          47.013  11.043   0.946  0.00  0.00    -0.046 A 
ATOM     20  C9  MOL d          45.730  11.728   0.905  0.00  0.00    -0.015 A 
ATOM     21  H1  MOL d          47.904  11.559   1.281  0.00  0.00     0.088 H 
ATOM     22  C14 MOL d          44.543  11.043   0.408  0.00  0.00    -0.072 A 
ATOM     23  C13 MOL d          44.588   9.667   0.006  0.00  0.00    -0.080 A 
ATOM     24  H4  MOL d          43.606  11.585   0.341  0.00  0.00     0.084 H 
ATOM     25  C12 MOL d          45.872   8.989   0.066  0.00  0.00    -0.058 A 
ATOM     26  H3  MOL d          43.696   9.150  -0.329  0.00  0.00     0.083 H 
ATOM     27  H2  MOL d          45.938   7.952  -0.245  0.00  0.00     0.086 H 
BRANCH  20  28
ATOM     28  C5  MOL d          45.569  13.117   1.381  0.00  0.00     0.036 A 
ATOM     29  S1  MOL d          44.423  14.228   0.539  0.00  0.00    -0.078 SA
ATOM     30  C2  MOL d          44.764  15.566   1.676  0.00  0.00     0.117 A 
ATOM     31  C3  MOL d          45.651  15.183   2.578  0.00  0.00     0.112 A 
ATOM     32  C4  MOL d          46.073  13.781   2.433  0.00  0.00     0.064 A 
ATOM     33 BR19 MOL d          47.135  13.056   3.780  0.00  0.00    -0.047 Br
BRANCH  30  34
ATOM     34  C6  MOL d          44.191  16.873   1.436  0.00  0.00     0.219 C 
ATOM     35  O7  MOL d          43.689  16.961   0.295  0.00  0.00    -0.643 OA
ATOM     36  O8  MOL d          44.204  17.809   2.266  0.00  0.00    -0.643 OA
ENDBRANCH  30  34
BRANCH  31  37
ATOM     37  O20 MOL d          46.027  15.999   3.553  0.00  0.00    -0.338 OA
BRANCH  37  38
ATOM     38  C21 MOL d          47.196  16.753   3.310  0.00  0.00     0.106 C 
ATOM     39  H5  MOL d          46.997  17.539   2.567  0.00  0.00     0.091 H 
ATOM     40  H6  MOL d          48.003  16.100   2.946  0.00  0.00     0.091 H 
BRANCH  38  41
ATOM     41  C22 MOL d          47.565  17.349   4.595  0.00  0.00     0.198 C 
ATOM     42  O25 MOL d          48.778  17.319   4.874  0.00  0.00    -0.646 OA
ATOM     43  O26 MOL d          46.683  17.846   5.331  0.00  0.00    -0.646 OA
ENDBRANCH  38  41
ENDBRANCH  37  38
ENDBRANCH  31  37
ENDBRANCH  20  28
ENDBRANCH  16  18
ENDBRANCH   1  16
BRANCH   4  44
ATOM     44  S46 MOL d          51.223   5.849   4.336  0.00  0.00     0.232 S 
ATOM     45  O47 MOL d          52.068   6.566   5.263  0.00  0.00    -0.205 OA
ATOM     46  O48 MOL d          51.822   5.002   3.321  0.00  0.00    -0.205 OA
BRANCH  44  47
ATOM     47  C49 MOL d          49.919   5.059   5.305  0.00  0.00     0.070 C 
ATOM     48  H17 MOL d          49.016   4.944   4.687  0.00  0.00     0.066 H 
ATOM     49  H18 MOL d          49.684   5.678   6.184  0.00  0.00     0.066 H 
BRANCH  47  50
ATOM     50  C50 MOL d          50.399   3.711   5.752  0.00  0.00    -0.043 A 
ATOM     51  C53 MOL d          49.556   2.582   5.414  0.00  0.00    -0.076 A 
ATOM     52  C54 MOL d          50.054   1.261   5.735  0.00  0.00    -0.082 A 
ATOM     53  H19 MOL d          48.592   2.720   4.940  0.00  0.00     0.084 H 
ATOM     54  C55 MOL d          51.341   1.117   6.413  0.00  0.00    -0.083 A 
ATOM     55  H20 MOL d          49.475   0.383   5.475  0.00  0.00     0.083 H 
ATOM     56  C56 MOL d          52.179   2.258   6.733  0.00  0.00    -0.082 A 
ATOM     57  H21 MOL d          51.680   0.124   6.685  0.00  0.00     0.083 H 
ATOM     58  C57 MOL d          51.705   3.592   6.408  0.00  0.00    -0.076 A 
ATOM     59  H22 MOL d          53.144   2.116   7.206  0.00  0.00     0.083 H 
ATOM     60  H23 MOL d          52.296   4.470   6.643  0.00  0.00     0.084 H 
ENDBRANCH  47  50
ENDBRANCH  44  47
ENDBRANCH   4  44
TORSDOF 10
ENDMDL
MODEL 2
REMARK VINA RESULT:      -7.5      3.130     11.602
REMARK  10 active torsions:
REMARK  status: ('A' for Active; 'I' for Inactive)
REMARK    1  A    between atoms: C2_2  and  C6_6 
REMARK    2  A    between atoms: C3_3  and  O20_16 
REMARK    3  A    between atoms: C5_5  and  C9_9 
REMARK    4  A    between atoms: C11_11  and  N29_21 
REMARK    5  A    between atoms: O20_16  and  C21_17 
REMARK    6  A    between atoms: C21_17  and  C22_18 
REMARK    7  A    between atoms: N29_21  and  C30_22 
REMARK    8  A    between atoms: N33_25  and  S46_28 
REMARK    9  A    between atoms: S46_28  and  C49_31 
REMARK   10  A    between atoms: C49_31  and  C50_32 
ROOT
ATOM      1  C30 MOL d          46.781   8.705   0.417  0.00  0.00     0.012 C 
ATOM      2  C31 MOL d          47.765   9.730   0.983  0.00  0.00    -0.031 C 
ATOM      3  C32 MOL d          47.095  10.829   1.774  0.00  0.00     0.007 C 
ATOM      4  N33 MOL d          46.003  11.353   0.952  0.00  0.00    -0.310 N 
ATOM      5  C34 MOL d          44.964  10.469   0.416  0.00  0.00     0.007 C 
ATOM      6  C35 MOL d          45.640   9.365  -0.355  0.00  0.00    -0.031 C 
ATOM      7  H8  MOL d          46.350   8.129   1.248  0.00  0.00     0.072 H 
ATOM      8  H9  MOL d          48.313  10.185   0.146  0.00  0.00     0.038 H 
ATOM      9  H10 MOL d          48.473   9.206   1.642  0.00  0.00     0.038 H 
ATOM     10  H11 MOL d          47.818  11.629   1.992  0.00  0.00     0.065 H 
ATOM     11  H12 MOL d          46.698  10.427   2.716  0.00  0.00     0.065 H 
ATOM     12  H13 MOL d          44.299  11.036  -0.251  0.00  0.00     0.065 H 
ATOM     13  H14 MOL d          44.377  10.041   1.242  0.00  0.00     0.065 H 
ATOM     14  H15 MOL d          44.890   8.598  -0.596  0.00  0.00     0.038 H 
ATOM     15  H16 MOL d          46.046   9.787  -1.286  0.00  0.00     0.038 H 
ENDROOT
BRANCH   1  16
ATOM     16  N29 MOL d          47.510   7.822  -0.442  0.00  0.00    -0.385 N 
ATOM     17  H7  MOL d          47.031   7.423  -1.262  0.00  0.00     0.160 HD
BRANCH  16  18
ATOM     18  C11 MOL d          48.810   7.489  -0.220  0.00  0.00     0.029 A 
ATOM     19  C10 MOL d          49.001   6.638   0.915  0.00  0.00    -0.046 A 
ATOM     20  C9  MOL d          50.352   6.224   1.259  0.00  0.00    -0.015 A 
ATOM     21  H1  MOL d          48.155   6.309   1.507  0.00  0.00     0.088 H 
ATOM     22  C14 MOL d          51.482   6.631   0.433  0.00  0.00    -0.072 A 
ATOM     23  C13 MOL d          51.306   7.495  -0.699  0.00  0.00    -0.080 A 
ATOM     24  H4  MOL d          52.476   6.274   0.678  0.00  0.00     0.084 H 
ATOM     25  C12 MOL d          49.954   7.914  -1.024  0.00  0.00    -0.058 A 
ATOM     26  H3  MOL d          52.153   7.825  -1.291  0.00  0.00     0.083 H 
ATOM     27  H2  MOL d          49.789   8.556  -1.882  0.00  0.00     0.086 H 
BRANCH  20  28
ATOM     28  C5  MOL d          50.640   5.408   2.456  0.00  0.00     0.036 A 
ATOM     29  S1  MOL d          51.523   6.140   3.850  0.00  0.00    -0.078 SA
ATOM     30  C2  MOL d          51.419   4.632   4.807  0.00  0.00     0.117 A 
ATOM     31  C3  MOL d          50.783   3.699   4.119  0.00  0.00     0.112 A 
ATOM     32  C4  MOL d          50.306   4.156   2.805  0.00  0.00     0.064 A 
ATOM     33 BR19 MOL d          49.195   3.011   1.845  0.00  0.00    -0.047 Br
BRANCH  30  34
ATOM     34  C6  MOL d          52.104   4.541   6.078  0.00  0.00     0.219 C 
ATOM     35  O7  MOL d          53.241   4.034   5.961  0.00  0.00    -0.643 OA
ATOM     36  O8  MOL d          51.618   4.914   7.168  0.00  0.00    -0.643 OA
ENDBRANCH  30  34
BRANCH  31  37
ATOM     37  O20 MOL d          50.547   2.506   4.647  0.00  0.00    -0.338 OA
BRANCH  37  38
ATOM     38  C21 MOL d          49.373   2.396   5.424  0.00  0.00     0.106 C 
ATOM     39  H5  MOL d          48.567   1.935   4.834  0.00  0.00     0.091 H 
ATOM     40  H6  MOL d          49.050   3.388   5.772  0.00  0.00     0.091 H 
BRANCH  38  41
ATOM     41  C22 MOL d          49.721   1.545   6.563  0.00  0.00     0.198 C 
ATOM     42  O25 MOL d          48.759   1.056   7.184  0.00  0.00    -0.646 OA
ATOM     43  O26 MOL d          50.923   1.351   6.854  0.00  0.00    -0.646 OA
ENDBRANCH  38  41
ENDBRANCH  37  38
ENDBRANCH  31  37
ENDBRANCH  20  28
ENDBRANCH  16  18
ENDBRANCH   1  16
BRANCH   4  44
ATOM     44  S46 MOL d          45.553  12.992   1.115  0.00  0.00     0.232 S 
ATOM     45  O47 MOL d          44.142  12.980   1.428  0.00  0.00    -0.205 OA
ATOM     46  O48 MOL d          46.019  13.658  -0.087  0.00  0.00    -0.205 OA
BRANCH  44  47
ATOM     47  C49 MOL d          46.429  13.458   2.625  0.00  0.00     0.070 C 
ATOM     48  H17 MOL d          47.490  13.180   2.538  0.00  0.00     0.066 H 
ATOM     49  H18 MOL d          45.984  12.939   3.486  0.00  0.00     0.066 H 
BRANCH  47  50
ATOM     50  C50 MOL d          46.310  14.940   2.813  0.00  0.00    -0.043 A 
ATOM     51  C53 MOL d          47.493  15.626   3.295  0.00  0.00    -0.076 A 
ATOM     52  C54 MOL d          47.437  17.070   3.377  0.00  0.00    -0.082 A 
ATOM     53  H19 MOL d          48.384  15.080   3.583  0.00  0.00     0.084 H 
ATOM     54  C55 MOL d          46.204  17.769   3.020  0.00  0.00    -0.083 A 
ATOM     55  H20 MOL d          48.306  17.631   3.702  0.00  0.00     0.083 H 
ATOM     56  C56 MOL d          45.033  17.068   2.527  0.00  0.00    -0.082 A 
ATOM     57  H21 MOL d          46.163  18.847   3.128  0.00  0.00     0.083 H 
ATOM     58  C57 MOL d          45.071  15.619   2.424  0.00  0.00    -0.076 A 
ATOM     59  H22 MOL d          44.144  17.617   2.239  0.00  0.00     0.083 H 
ATOM     60  H23 MOL d          44.212  15.059   2.073  0.00  0.00     0.084 H 
ENDBRANCH  47  50
ENDBRANCH  44  47
ENDBRANCH   4  44
TORSDOF 10
ENDMDL
MODEL 3
REMARK VINA RESULT:      -6.9      1.695      2.190
REMARK  10 active torsions:
REMARK  status: ('A' for Active; 'I' for Inactive)
REMARK    1  A    between atoms: C2_2  and  C6_6 
REMARK    2  A    between atoms: C3_3  and  O20_16 
REMARK    3  A    between atoms: C5_5  and  C9_9 
REMARK    4  A    between atoms: C11_11  and  N29_21 
REMARK    5  A    between atoms: O20_16  and  C21_17 
REMARK    6  A    between atoms: C21_17  and  C22_18 
REMARK    7  A    between atoms: N29_21  and  C30_22 
REMARK    8  A    between atoms: N33_25  and  S46_28 
REMARK    9  A    between atoms: S46_28  and  C49_31 
REMARK   10  A    between atoms: C49_31  and  C50_32 
ROOT
ATOM      1  C30 MOL d          48.763   8.269   2.581  0.00  0.00     0.012 C 
ATOM      2  C31 MOL d          48.155   6.903   2.264  0.00  0.00    -0.031 C 
ATOM      3  C32 MOL d          48.403   5.872   3.342  0.00  0.00     0.007 C 
ATOM      4  N33 MOL d          49.834   5.899   3.647  0.00  0.00    -0.310 N 
ATOM      5  C34 MOL d          50.506   7.143   4.033  0.00  0.00     0.007 C 
ATOM      6  C35 MOL d          50.238   8.171   2.964  0.00  0.00    -0.031 C 
ATOM      7  H8  MOL d          48.214   8.715   3.424  0.00  0.00     0.072 H 
ATOM      8  H9  MOL d          48.591   6.537   1.324  0.00  0.00     0.038 H 
ATOM      9  H10 MOL d          47.068   7.024   2.141  0.00  0.00     0.038 H 
ATOM     10  H11 MOL d          48.115   4.874   2.981  0.00  0.00     0.065 H 
ATOM     11  H12 MOL d          47.821   6.120   4.241  0.00  0.00     0.065 H 
ATOM     12  H13 MOL d          51.589   6.971   4.121  0.00  0.00     0.065 H 
ATOM     13  H14 MOL d          50.111   7.497   4.997  0.00  0.00     0.065 H 
ATOM     14  H15 MOL d          50.571   9.152   3.331  0.00  0.00     0.038 H 
ATOM     15  H16 MOL d          50.814   7.900   2.067  0.00  0.00     0.038 H 
ENDROOT
BRANCH   1  16
ATOM     16  N29 MOL d          48.608   9.099   1.425  0.00  0.00    -0.385 N 
ATOM     17  H7  MOL d          49.442   9.329   0.867  0.00  0.00     0.160 HD
BRANCH  16  18
ATOM     18  C11 MOL d          47.404   9.596   1.035  0.00  0.00     0.029 A 
ATOM     19  C10 MOL d          47.219  10.979   1.354  0.00  0.00    -0.046 A 
ATOM     20  C9  MOL d          45.964  11.619   0.994  0.00  0.00    -0.015 A 
ATOM     21  H1  MOL d          48.000  11.539   1.854  0.00  0.00     0.088 H 
ATOM     22  C14 MOL d          44.933  10.874   0.279  0.00  0.00    -0.072 A 
ATOM     23  C13 MOL d          45.100   9.484  -0.033  0.00  0.00    -0.080 A 
ATOM     24  H4  MOL d          44.024  11.380  -0.021  0.00  0.00     0.084 H 
ATOM     25  C12 MOL d          46.352   8.852   0.344  0.00  0.00    -0.058 A 
ATOM     26  H3  MOL d          44.318   8.923  -0.534  0.00  0.00     0.083 H 
ATOM     27  H2  MOL d          46.511   7.806   0.108  0.00  0.00     0.086 H 
BRANCH  20  28
ATOM     28  C5  MOL d          45.667  13.020   1.353  0.00  0.00     0.036 A 
ATOM     29  S1  MOL d          44.514  13.980   0.350  0.00  0.00    -0.078 SA
ATOM     30  C2  MOL d          44.670  15.415   1.406  0.00  0.00     0.117 A 
ATOM     31  C3  MOL d          45.509  15.164   2.396  0.00  0.00     0.112 A 
ATOM     32  C4  MOL d          46.040  13.792   2.386  0.00  0.00     0.064 A 
ATOM     33 BR19 MOL d          47.042  13.244   3.857  0.00  0.00    -0.047 Br
BRANCH  30  34
ATOM     34  C6  MOL d          44.026  16.655   1.029  0.00  0.00     0.219 C 
ATOM     35  O7  MOL d          43.412  16.552  -0.054  0.00  0.00    -0.643 OA
ATOM     36  O8  MOL d          44.084  17.710   1.700  0.00  0.00    -0.643 OA
ENDBRANCH  30  34
BRANCH  31  37
ATOM     37  O20 MOL d          45.748  16.071   3.332  0.00  0.00    -0.338 OA
BRANCH  37  38
ATOM     38  C21 MOL d          47.051  16.619   3.343  0.00  0.00     0.106 C 
ATOM     39  H5  MOL d          47.107  17.483   2.664  0.00  0.00     0.091 H 
ATOM     40  H6  MOL d          47.786  15.862   3.034  0.00  0.00     0.091 H 
BRANCH  38  41
ATOM     41  C22 MOL d          47.301  17.037   4.722  0.00  0.00     0.198 C 
ATOM     42  O25 MOL d          48.109  17.974   4.863  0.00  0.00    -0.646 OA
ATOM     43  O26 MOL d          46.715  16.461   5.667  0.00  0.00    -0.646 OA
ENDBRANCH  38  41
ENDBRANCH  37  38
ENDBRANCH  31  37
ENDBRANCH  20  28
ENDBRANCH  16  18
ENDBRANCH   1  16
BRANCH   4  44
ATOM     44  S46 MOL d          50.598   4.465   4.173  0.00  0.00     0.232 S 
ATOM     45  O47 MOL d          49.778   3.959   5.250  0.00  0.00    -0.205 OA
ATOM     46  O48 MOL d          51.983   4.817   4.425  0.00  0.00    -0.205 OA
BRANCH  44  47
ATOM     47  C49 MOL d          50.342   3.378   2.752  0.00  0.00     0.070 C 
ATOM     48  H17 MOL d          51.139   2.621   2.717  0.00  0.00     0.066 H 
ATOM     49  H18 MOL d          50.358   3.971   1.826  0.00  0.00     0.066 H 
BRANCH  47  50
ATOM     50  C50 MOL d          49.011   2.703   2.896  0.00  0.00    -0.043 A 
ATOM     51  C53 MOL d          48.021   3.005   1.881  0.00  0.00    -0.076 A 
ATOM     52  C54 MOL d          46.770   2.280   1.936  0.00  0.00    -0.082 A 
ATOM     53  H19 MOL d          48.211   3.744   1.112  0.00  0.00     0.084 H 
ATOM     54  C55 MOL d          46.535   1.320   3.014  0.00  0.00    -0.083 A 
ATOM     55  H20 MOL d          46.010   2.447   1.182  0.00  0.00     0.083 H 
ATOM     56  C56 MOL d          47.542   1.020   4.015  0.00  0.00    -0.082 A 
ATOM     57  H21 MOL d          45.577   0.817   3.066  0.00  0.00     0.083 H 
ATOM     58  C57 MOL d          48.811   1.727   3.972  0.00  0.00    -0.076 A 
ATOM     59  H22 MOL d          47.350   0.279   4.783  0.00  0.00     0.083 H 
ATOM     60  H23 MOL d          49.582   1.540   4.709  0.00  0.00     0.084 H 
ENDBRANCH  47  50
ENDBRANCH  44  47
ENDBRANCH   4  44
TORSDOF 10
ENDMDL
MODEL 4
REMARK VINA RESULT:      -6.8      2.103      2.843
REMARK  10 active torsions:
REMARK  status: ('A' for Active; 'I' for Inactive)
REMARK    1  A    between atoms: C2_2  and  C6_6 
REMARK    2  A    between atoms: C3_3  and  O20_16 
REMARK    3  A    between atoms: C5_5  and  C9_9 
REMARK    4  A    between atoms: C11_11  and  N29_21 
REMARK    5  A    between atoms: O20_16  and  C21_17 
REMARK    6  A    between atoms: C21_17  and  C22_18 
REMARK    7  A    between atoms: N29_21  and  C30_22 
REMARK    8  A    between atoms: N33_25  and  S46_28 
REMARK    9  A    between atoms: S46_28  and  C49_31 
REMARK   10  A    between atoms: C49_31  and  C50_32 
ROOT
ATOM      1  C30 MOL d          49.030   8.274   2.805  0.00  0.00     0.012 C 
ATOM      2  C31 MOL d          48.554   6.877   2.406  0.00  0.00    -0.031 C 
ATOM      3  C32 MOL d          48.837   5.825   3.454  0.00  0.00     0.007 C 
ATOM      4  N33 MOL d          50.245   5.957   3.832  0.00  0.00    -0.310 N 
ATOM      5  C34 MOL d          50.791   7.234   4.298  0.00  0.00     0.007 C 
ATOM      6  C35 MOL d          50.488   8.280   3.257  0.00  0.00    -0.031 C 
ATOM      7  H8  MOL d          48.407   8.638   3.636  0.00  0.00     0.072 H 
ATOM      8  H9  MOL d          49.063   6.588   1.475  0.00  0.00     0.038 H 
ATOM      9  H10 MOL d          47.468   6.914   2.233  0.00  0.00     0.038 H 
ATOM     10  H11 MOL d          48.650   4.823   3.041  0.00  0.00     0.065 H 
ATOM     11  H12 MOL d          48.195   5.987   4.331  0.00  0.00     0.065 H 
ATOM     12  H13 MOL d          51.879   7.147   4.434  0.00  0.00     0.065 H 
ATOM     13  H14 MOL d          50.323   7.512   5.253  0.00  0.00     0.065 H 
ATOM     14  H15 MOL d          50.720   9.269   3.678  0.00  0.00     0.038 H 
ATOM     15  H16 MOL d          51.126   8.096   2.381  0.00  0.00     0.038 H 
ENDROOT
BRANCH   1  16
ATOM     16  N29 MOL d          48.860   9.137   1.675  0.00  0.00    -0.385 N 
ATOM     17  H7  MOL d          49.695   9.429   1.147  0.00  0.00     0.160 HD
BRANCH  16  18
ATOM     18  C11 MOL d          47.642   9.585   1.271  0.00  0.00     0.029 A 
ATOM     19  C10 MOL d          47.417  10.971   1.548  0.00  0.00    -0.046 A 
ATOM     20  C9  MOL d          46.142  11.562   1.170  0.00  0.00    -0.015 A 
ATOM     21  H1  MOL d          48.181  11.570   2.030  0.00  0.00     0.088 H 
ATOM     22  C14 MOL d          45.135  10.766   0.479  0.00  0.00    -0.072 A 
ATOM     23  C13 MOL d          45.342   9.372   0.209  0.00  0.00    -0.080 A 
ATOM     24  H4  MOL d          44.211  11.236   0.164  0.00  0.00     0.084 H 
ATOM     25  C12 MOL d          46.613   8.790   0.604  0.00  0.00    -0.058 A 
ATOM     26  H3  MOL d          44.577   8.774  -0.274  0.00  0.00     0.083 H 
ATOM     27  H2  MOL d          46.803   7.742   0.399  0.00  0.00     0.086 H 
BRANCH  20  28
ATOM     28  C5  MOL d          45.805  12.965   1.487  0.00  0.00     0.036 A 
ATOM     29  S1  MOL d          44.626  13.860   0.454  0.00  0.00    -0.078 SA
ATOM     30  C2  MOL d          44.738  15.330   1.467  0.00  0.00     0.117 A 
ATOM     31  C3  MOL d          45.582  15.133   2.465  0.00  0.00     0.112 A 
ATOM     32  C4  MOL d          46.152  13.778   2.497  0.00  0.00     0.064 A 
ATOM     33 BR19 MOL d          47.168  13.304   3.984  0.00  0.00    -0.047 Br
BRANCH  30  34
ATOM     34  C6  MOL d          44.059  16.539   1.053  0.00  0.00     0.219 C 
ATOM     35  O7  MOL d          43.479  16.397  -0.045  0.00  0.00    -0.643 OA
ATOM     36  O8  MOL d          44.058  17.605   1.708  0.00  0.00    -0.643 OA
ENDBRANCH  30  34
BRANCH  31  37
ATOM     37  O20 MOL d          45.793  16.074   3.374  0.00  0.00    -0.338 OA
BRANCH  37  38
ATOM     38  C21 MOL d          47.129  16.226   3.807  0.00  0.00     0.106 C 
ATOM     39  H5  MOL d          47.801  16.334   2.943  0.00  0.00     0.091 H 
ATOM     40  H6  MOL d          47.438  15.355   4.404  0.00  0.00     0.091 H 
BRANCH  38  41
ATOM     41  C22 MOL d          47.153  17.438   4.626  0.00  0.00     0.198 C 
ATOM     42  O25 MOL d          46.041  17.866   4.987  0.00  0.00    -0.646 OA
ATOM     43  O26 MOL d          48.246  17.973   4.920  0.00  0.00    -0.646 OA
ENDBRANCH  38  41
ENDBRANCH  37  38
ENDBRANCH  31  37
ENDBRANCH  20  28
ENDBRANCH  16  18
ENDBRANCH   1  16
BRANCH   4  44
ATOM     44  S46 MOL d          51.100   4.568   4.340  0.00  0.00     0.232 S 
ATOM     45  O47 MOL d          50.463   3.454   3.676  0.00  0.00    -0.205 OA
ATOM     46  O48 MOL d          51.130   4.623   5.789  0.00  0.00    -0.205 OA
BRANCH  44  47
ATOM     47  C49 MOL d          52.702   4.819   3.541  0.00  0.00     0.070 C 
ATOM     48  H17 MOL d          53.427   4.088   3.928  0.00  0.00     0.066 H 
ATOM     49  H18 MOL d          53.063   5.837   3.748  0.00  0.00     0.066 H 
BRANCH  47  50
ATOM     50  C50 MOL d          52.537   4.633   2.063  0.00  0.00    -0.043 A 
ATOM     51  C53 MOL d          52.802   3.304   1.547  0.00  0.00    -0.076 A 
ATOM     52  C54 MOL d          52.542   3.073   0.142  0.00  0.00    -0.082 A 
ATOM     53  H19 MOL d          53.180   2.516   2.187  0.00  0.00     0.084 H 
ATOM     54  C55 MOL d          52.072   4.173  -0.699  0.00  0.00    -0.083 A 
ATOM     55  H20 MOL d          52.694   2.089  -0.285  0.00  0.00     0.083 H 
ATOM     56  C56 MOL d          51.799   5.494  -0.163  0.00  0.00    -0.082 A 
ATOM     57  H21 MOL d          51.922   3.995  -1.757  0.00  0.00     0.083 H 
ATOM     58  C57 MOL d          52.042   5.746   1.247  0.00  0.00    -0.076 A 
ATOM     59  H22 MOL d          51.420   6.280  -0.806  0.00  0.00     0.083 H 
ATOM     60  H23 MOL d          51.863   6.722   1.681  0.00  0.00     0.084 H 
ENDBRANCH  47  50
ENDBRANCH  44  47
ENDBRANCH   4  44
TORSDOF 10
ENDMDL
MODEL 5
REMARK VINA RESULT:      -6.6      3.033     11.602
REMARK  10 active torsions:
REMARK  status: ('A' for Active; 'I' for Inactive)
REMARK    1  A    between atoms: C2_2  and  C6_6 
REMARK    2  A    between atoms: C3_3  and  O20_16 
REMARK    3  A    between atoms: C5_5  and  C9_9 
REMARK    4  A    between atoms: C11_11  and  N29_21 
REMARK    5  A    between atoms: O20_16  and  C21_17 
REMARK    6  A    between atoms: C21_17  and  C22_18 
REMARK    7  A    between atoms: N29_21  and  C30_22 
REMARK    8  A    between atoms: N33_25  and  S46_28 
REMARK    9  A    between atoms: S46_28  and  C49_31 
REMARK   10  A    between atoms: C49_31  and  C50_32 
ROOT
ATOM      1  C30 MOL d          46.750   8.537   0.637  0.00  0.00     0.012 C 
ATOM      2  C31 MOL d          47.759   9.557   1.164  0.00  0.00    -0.031 C 
ATOM      3  C32 MOL d          47.115  10.725   1.874  0.00  0.00     0.007 C 
ATOM      4  N33 MOL d          46.060  11.238   0.999  0.00  0.00    -0.310 N 
ATOM      5  C34 MOL d          45.000  10.362   0.493  0.00  0.00     0.007 C 
ATOM      6  C35 MOL d          45.650   9.191  -0.197  0.00  0.00    -0.031 C 
ATOM      7  H8  MOL d          46.282   8.027   1.491  0.00  0.00     0.072 H 
ATOM      8  H9  MOL d          48.341   9.943   0.314  0.00  0.00     0.038 H 
ATOM      9  H10 MOL d          48.434   9.049   1.868  0.00  0.00     0.038 H 
ATOM     10  H11 MOL d          47.863  11.510   2.061  0.00  0.00     0.065 H 
ATOM     11  H12 MOL d          46.684  10.393   2.829  0.00  0.00     0.065 H 
ATOM     12  H13 MOL d          44.370  10.912  -0.221  0.00  0.00     0.065 H 
ATOM     13  H14 MOL d          44.381  10.005   1.329  0.00  0.00     0.065 H 
ATOM     14  H15 MOL d          44.877   8.438  -0.410  0.00  0.00     0.038 H 
ATOM     15  H16 MOL d          46.090   9.542  -1.142  0.00  0.00     0.038 H 
ENDROOT
BRANCH   1  16
ATOM     16  N29 MOL d          47.463   7.580  -0.153  0.00  0.00    -0.385 N 
ATOM     17  H7  MOL d          46.938   7.011  -0.832  0.00  0.00     0.160 HD
BRANCH  16  18
ATOM     18  C11 MOL d          48.805   7.391  -0.042  0.00  0.00     0.029 A 
ATOM     19  C10 MOL d          49.170   6.388   0.911  0.00  0.00    -0.046 A 
ATOM     20  C9  MOL d          50.581   6.105   1.125  0.00  0.00    -0.015 A 
ATOM     21  H1  MOL d          48.410   5.849   1.464  0.00  0.00     0.088 H 
ATOM     22  C14 MOL d          51.599   6.799   0.346  0.00  0.00    -0.072 A 
ATOM     23  C13 MOL d          51.248   7.817  -0.603  0.00  0.00    -0.080 A 
ATOM     24  H4  MOL d          52.642   6.542   0.485  0.00  0.00     0.084 H 
ATOM     25  C12 MOL d          49.836   8.100  -0.796  0.00  0.00    -0.058 A 
ATOM     26  H3  MOL d          52.009   8.356  -1.155  0.00  0.00     0.083 H 
ATOM     27  H2  MOL d          49.541   8.855  -1.517  0.00  0.00     0.086 H 
BRANCH  20  28
ATOM     28  C5  MOL d          51.041   5.138   2.142  0.00  0.00     0.036 A 
ATOM     29  S1  MOL d          51.035   3.372   1.770  0.00  0.00    -0.078 SA
ATOM     30  C2  MOL d          51.725   2.955   3.367  0.00  0.00     0.117 A 
ATOM     31  C3  MOL d          51.924   4.052   4.078  0.00  0.00     0.112 A 
ATOM     32  C4  MOL d          51.574   5.289   3.364  0.00  0.00     0.064 A 
ATOM     33 BR19 MOL d          52.031   6.906   4.168  0.00  0.00    -0.047 Br
BRANCH  30  34
ATOM     34  C6  MOL d          51.857   1.566   3.749  0.00  0.00     0.219 C 
ATOM     35  O7  MOL d          50.747   1.002   3.853  0.00  0.00    -0.643 OA
ATOM     36  O8  MOL d          52.951   0.996   3.962  0.00  0.00    -0.643 OA
ENDBRANCH  30  34
BRANCH  31  37
ATOM     37  O20 MOL d          52.471   3.991   5.283  0.00  0.00    -0.338 OA
BRANCH  37  38
ATOM     38  C21 MOL d          51.577   4.087   6.373  0.00  0.00     0.106 C 
ATOM     39  H5  MOL d          50.593   4.442   6.030  0.00  0.00     0.091 H 
ATOM     40  H6  MOL d          51.971   4.779   7.131  0.00  0.00     0.091 H 
BRANCH  38  41
ATOM     41  C22 MOL d          51.466   2.737   6.925  0.00  0.00     0.198 C 
ATOM     42  O25 MOL d          50.307   2.321   7.105  0.00  0.00    -0.646 OA
ATOM     43  O26 MOL d          52.501   2.080   7.183  0.00  0.00    -0.646 OA
ENDBRANCH  38  41
ENDBRANCH  37  38
ENDBRANCH  31  37
ENDBRANCH  20  28
ENDBRANCH  16  18
ENDBRANCH   1  16
BRANCH   4  44
ATOM     44  S46 MOL d          45.668  12.899   1.057  0.00  0.00     0.232 S 
ATOM     45  O47 MOL d          44.390  12.975   1.727  0.00  0.00    -0.205 OA
ATOM     46  O48 MOL d          45.799  13.390  -0.303  0.00  0.00    -0.205 OA
BRANCH  44  47
ATOM     47  C49 MOL d          46.912  13.524   2.209  0.00  0.00     0.070 C 
ATOM     48  H17 MOL d          47.796  13.864   1.650  0.00  0.00     0.066 H 
ATOM     49  H18 MOL d          47.204  12.725   2.906  0.00  0.00     0.066 H 
BRANCH  47  50
ATOM     50  C50 MOL d          46.326  14.672   2.974  0.00  0.00    -0.043 A 
ATOM     51  C53 MOL d          45.634  15.680   2.196  0.00  0.00    -0.076 A 
ATOM     52  C54 MOL d          44.965  16.737   2.923  0.00  0.00    -0.082 A 
ATOM     53  H19 MOL d          45.618  15.643   1.113  0.00  0.00     0.084 H 
ATOM     54  C55 MOL d          45.044  16.776   4.382  0.00  0.00    -0.083 A 
ATOM     55  H20 MOL d          44.407  17.497   2.388  0.00  0.00     0.083 H 
ATOM     56  C56 MOL d          45.730  15.751   5.147  0.00  0.00    -0.082 A 
ATOM     57  H21 MOL d          44.574  17.598   4.910  0.00  0.00     0.083 H 
ATOM     58  C57 MOL d          46.399  14.673   4.439  0.00  0.00    -0.076 A 
ATOM     59  H22 MOL d          45.744  15.790   6.230  0.00  0.00     0.083 H 
ATOM     60  H23 MOL d          46.933  13.897   4.974  0.00  0.00     0.084 H 
ENDBRANCH  47  50
ENDBRANCH  44  47
ENDBRANCH   4  44
TORSDOF 10
ENDMDL
MODEL 6
REMARK VINA RESULT:      -6.3      3.710     12.568
REMARK  10 active torsions:
REMARK  status: ('A' for Active; 'I' for Inactive)
REMARK    1  A    between atoms: C2_2  and  C6_6 
REMARK    2  A    between atoms: C3_3  and  O20_16 
REMARK    3  A    between atoms: C5_5  and  C9_9 
REMARK    4  A    between atoms: C11_11  and  N29_21 
REMARK    5  A    between atoms: O20_16  and  C21_17 
REMARK    6  A    between atoms: C21_17  and  C22_18 
REMARK    7  A    between atoms: N29_21  and  C30_22 
REMARK    8  A    between atoms: N33_25  and  S46_28 
REMARK    9  A    between atoms: S46_28  and  C49_31 
REMARK   10  A    between atoms: C49_31  and  C50_32 
ROOT
ATOM      1  C30 MOL d          48.825   8.773   1.470  0.00  0.00     0.012 C 
ATOM      2  C31 MOL d          47.985   8.519   0.218  0.00  0.00    -0.031 C 
ATOM      3  C32 MOL d          47.290   9.757  -0.299  0.00  0.00     0.007 C 
ATOM      4  N33 MOL d          46.605  10.376   0.837  0.00  0.00    -0.310 N 
ATOM      5  C34 MOL d          47.328  10.728   2.061  0.00  0.00     0.007 C 
ATOM      6  C35 MOL d          48.034   9.493   2.559  0.00  0.00    -0.031 C 
ATOM      7  H8  MOL d          49.689   9.397   1.198  0.00  0.00     0.072 H 
ATOM      8  H9  MOL d          47.222   7.764   0.457  0.00  0.00     0.038 H 
ATOM      9  H10 MOL d          48.646   8.133  -0.573  0.00  0.00     0.038 H 
ATOM     10  H11 MOL d          46.560   9.483  -1.074  0.00  0.00     0.065 H 
ATOM     11  H12 MOL d          48.028  10.455  -0.720  0.00  0.00     0.065 H 
ATOM     12  H13 MOL d          46.620  11.085   2.823  0.00  0.00     0.065 H 
ATOM     13  H14 MOL d          48.064  11.517   1.845  0.00  0.00     0.065 H 
ATOM     14  H15 MOL d          48.728   9.787   3.360  0.00  0.00     0.038 H 
ATOM     15  H16 MOL d          47.282   8.800   2.962  0.00  0.00     0.038 H 
ENDROOT
BRANCH   1  16
ATOM     16  N29 MOL d          49.289   7.508   1.953  0.00  0.00    -0.385 N 
ATOM     17  H7  MOL d          48.854   6.650   1.588  0.00  0.00     0.160 HD
BRANCH  16  18
ATOM     18  C11 MOL d          50.282   7.395   2.875  0.00  0.00     0.029 A 
ATOM     19  C10 MOL d          50.678   6.044   3.134  0.00  0.00    -0.046 A 
ATOM     20  C9  MOL d          51.726   5.797   4.112  0.00  0.00    -0.015 A 
ATOM     21  H1  MOL d          50.205   5.221   2.612  0.00  0.00     0.088 H 
ATOM     22  C14 MOL d          52.392   6.910   4.778  0.00  0.00    -0.072 A 
ATOM     23  C13 MOL d          51.996   8.268   4.538  0.00  0.00    -0.080 A 
ATOM     24  H4  MOL d          53.203   6.708   5.468  0.00  0.00     0.084 H 
ATOM     25  C12 MOL d          50.938   8.501   3.570  0.00  0.00    -0.058 A 
ATOM     26  H3  MOL d          52.469   9.091   5.061  0.00  0.00     0.083 H 
ATOM     27  H2  MOL d          50.627   9.518   3.359  0.00  0.00     0.086 H 
BRANCH  20  28
ATOM     28  C5  MOL d          52.139   4.430   4.488  0.00  0.00     0.036 A 
ATOM     29  S1  MOL d          51.370   3.617   5.904  0.00  0.00    -0.078 SA
ATOM     30  C2  MOL d          52.315   2.119   5.656  0.00  0.00     0.117 A 
ATOM     31  C3  MOL d          53.116   2.253   4.613  0.00  0.00     0.112 A 
ATOM     32  C4  MOL d          52.982   3.548   3.928  0.00  0.00     0.064 A 
ATOM     33 BR19 MOL d          53.879   3.765   2.311  0.00  0.00    -0.047 Br
BRANCH  30  34
ATOM     34  C6  MOL d          52.225   1.047   6.624  0.00  0.00     0.219 C 
ATOM     35  O7  MOL d          51.041   0.714   6.844  0.00  0.00    -0.643 OA
ATOM     36  O8  MOL d          53.212   0.520   7.183  0.00  0.00    -0.643 OA
ENDBRANCH  30  34
BRANCH  31  37
ATOM     37  O20 MOL d          53.883   1.250   4.211  0.00  0.00    -0.338 OA
BRANCH  37  38
ATOM     38  C21 MOL d          53.206   0.084   3.791  0.00  0.00     0.106 C 
ATOM     39  H5  MOL d          52.278  -0.048   4.367  0.00  0.00     0.091 H 
ATOM     40  H6  MOL d          53.848  -0.800   3.923  0.00  0.00     0.091 H 
BRANCH  38  41
ATOM     41  C22 MOL d          52.901   0.283   2.373  0.00  0.00     0.198 C 
ATOM     42  O25 MOL d          51.713   0.541   2.109  0.00  0.00    -0.646 OA
ATOM     43  O26 MOL d          53.812   0.191   1.519  0.00  0.00    -0.646 OA
ENDBRANCH  38  41
ENDBRANCH  37  38
ENDBRANCH  31  37
ENDBRANCH  20  28
ENDBRANCH  16  18
ENDBRANCH   1  16
BRANCH   4  44
ATOM     44  S46 MOL d          45.168  11.258   0.559  0.00  0.00     0.232 S 
ATOM     45  O47 MOL d          44.533  11.384   1.850  0.00  0.00    -0.205 OA
ATOM     46  O48 MOL d          44.480  10.573  -0.520  0.00  0.00    -0.205 OA
BRANCH  44  47
ATOM     47  C49 MOL d          45.822  12.885   0.125  0.00  0.00     0.070 C 
ATOM     48  H17 MOL d          45.321  13.256  -0.782  0.00  0.00     0.066 H 
ATOM     49  H18 MOL d          46.904  12.812  -0.058  0.00  0.00     0.066 H 
BRANCH  47  50
ATOM     50  C50 MOL d          45.565  13.826   1.264  0.00  0.00    -0.043 A 
ATOM     51  C53 MOL d          46.580  13.880   2.297  0.00  0.00    -0.076 A 
ATOM     52  C54 MOL d          46.408  14.861   3.347  0.00  0.00    -0.082 A 
ATOM     53  H19 MOL d          47.433  13.212   2.285  0.00  0.00     0.084 H 
ATOM     54  C55 MOL d          45.223  15.717   3.352  0.00  0.00    -0.083 A 
ATOM     55  H20 MOL d          47.155  14.962   4.126  0.00  0.00     0.083 H 
ATOM     56  C56 MOL d          44.223  15.660   2.302  0.00  0.00    -0.082 A 
ATOM     57  H21 MOL d          45.087  16.417   4.168  0.00  0.00     0.083 H 
ATOM     58  C57 MOL d          44.381  14.690   1.232  0.00  0.00    -0.076 A 
ATOM     59  H22 MOL d          43.371  16.330   2.317  0.00  0.00     0.083 H 
ATOM     60  H23 MOL d          43.649  14.608   0.437  0.00  0.00     0.084 H 
ENDBRANCH  47  50
ENDBRANCH  44  47
ENDBRANCH   4  44
TORSDOF 10
ENDMDL
MODEL 7
REMARK VINA RESULT:      -6.1      3.606     12.393
REMARK  10 active torsions:
REMARK  status: ('A' for Active; 'I' for Inactive)
REMARK    1  A    between atoms: C2_2  and  C6_6 
REMARK    2  A    between atoms: C3_3  and  O20_16 
REMARK    3  A    between atoms: C5_5  and  C9_9 
REMARK    4  A    between atoms: C11_11  and  N29_21 
REMARK    5  A    between atoms: O20_16  and  C21_17 
REMARK    6  A    between atoms: C21_17  and  C22_18 
REMARK    7  A    between atoms: N29_21  and  C30_22 
REMARK    8  A    between atoms: N33_25  and  S46_28 
REMARK    9  A    between atoms: S46_28  and  C49_31 
REMARK   10  A    between atoms: C49_31  and  C50_32 
ROOT
ATOM      1  C30 MOL d          49.011   9.423   1.368  0.00  0.00     0.012 C 
ATOM      2  C31 MOL d          48.558   9.779  -0.048  0.00  0.00    -0.031 C 
ATOM      3  C32 MOL d          47.708  11.028  -0.109  0.00  0.00     0.007 C 
ATOM      4  N33 MOL d          46.658  10.888   0.901  0.00  0.00    -0.310 N 
ATOM      5  C34 MOL d          46.984  10.617   2.304  0.00  0.00     0.007 C 
ATOM      6  C35 MOL d          47.846   9.383   2.354  0.00  0.00    -0.031 C 
ATOM      7  H8  MOL d          49.731  10.180   1.712  0.00  0.00     0.072 H 
ATOM      8  H9  MOL d          47.972   8.939  -0.449  0.00  0.00     0.038 H 
ATOM      9  H10 MOL d          49.451   9.934  -0.672  0.00  0.00     0.038 H 
ATOM     10  H11 MOL d          47.259  11.129  -1.107  0.00  0.00     0.065 H 
ATOM     11  H12 MOL d          48.324  11.912   0.108  0.00  0.00     0.065 H 
ATOM     12  H13 MOL d          46.059  10.450   2.876  0.00  0.00     0.065 H 
ATOM     13  H14 MOL d          47.530  11.471   2.731  0.00  0.00     0.065 H 
ATOM     14  H15 MOL d          48.251   9.281   3.372  0.00  0.00     0.038 H 
ATOM     15  H16 MOL d          47.220   8.510   2.120  0.00  0.00     0.038 H 
ENDROOT
BRANCH   1  16
ATOM     16  N29 MOL d          49.656   8.146   1.316  0.00  0.00    -0.385 N 
ATOM     17  H7  MOL d          49.557   7.577   0.463  0.00  0.00     0.160 HD
BRANCH  16  18
ATOM     18  C11 MOL d          50.394   7.654   2.347  0.00  0.00     0.029 A 
ATOM     19  C10 MOL d          50.392   6.225   2.428  0.00  0.00    -0.046 A 
ATOM     20  C9  MOL d          51.139   5.584   3.498  0.00  0.00    -0.015 A 
ATOM     21  H1  MOL d          49.843   5.632   1.706  0.00  0.00     0.088 H 
ATOM     22  C14 MOL d          51.914   6.383   4.440  0.00  0.00    -0.072 A 
ATOM     23  C13 MOL d          51.913   7.817   4.378  0.00  0.00    -0.080 A 
ATOM     24  H4  MOL d          52.501   5.885   5.202  0.00  0.00     0.084 H 
ATOM     25  C12 MOL d          51.151   8.446   3.314  0.00  0.00    -0.058 A 
ATOM     26  H3  MOL d          52.462   8.410   5.102  0.00  0.00     0.083 H 
ATOM     27  H2  MOL d          51.144   9.528   3.235  0.00  0.00     0.086 H 
BRANCH  20  28
ATOM     28  C5  MOL d          51.126   4.120   3.694  0.00  0.00     0.036 A 
ATOM     29  S1  MOL d          52.468   3.324   4.602  0.00  0.00    -0.078 SA
ATOM     30  C2  MOL d          51.721   1.707   4.440  0.00  0.00     0.117 A 
ATOM     31  C3  MOL d          50.586   1.794   3.768  0.00  0.00     0.112 A 
ATOM     32  C4  MOL d          50.232   3.169   3.384  0.00  0.00     0.064 A 
ATOM     33 BR19 MOL d          48.546   3.450   2.643  0.00  0.00    -0.047 Br
BRANCH  30  34
ATOM     34  C6  MOL d          52.438   0.537   4.899  0.00  0.00     0.219 C 
ATOM     35  O7  MOL d          53.058  -0.025   3.971  0.00  0.00    -0.643 OA
ATOM     36  O8  MOL d          52.433   0.128   6.081  0.00  0.00    -0.643 OA
ENDBRANCH  30  34
BRANCH  31  37
ATOM     37  O20 MOL d          49.833   0.723   3.562  0.00  0.00    -0.338 OA
BRANCH  37  38
ATOM     38  C21 MOL d          48.928   0.396   4.596  0.00  0.00     0.106 C 
ATOM     39  H5  MOL d          48.819   1.243   5.290  0.00  0.00     0.091 H 
ATOM     40  H6  MOL d          49.282  -0.486   5.149  0.00  0.00     0.091 H 
BRANCH  38  41
ATOM     41  C22 MOL d          47.652   0.108   3.940  0.00  0.00     0.198 C 
ATOM     42  O25 MOL d          46.674  -0.025   4.699  0.00  0.00    -0.646 OA
ATOM     43  O26 MOL d          47.598   0.012   2.693  0.00  0.00    -0.646 OA
ENDBRANCH  38  41
ENDBRANCH  37  38
ENDBRANCH  31  37
ENDBRANCH  20  28
ENDBRANCH  16  18
ENDBRANCH   1  16
BRANCH   4  44
ATOM     44  S46 MOL d          45.146  11.636   0.635  0.00  0.00     0.232 S 
ATOM     45  O47 MOL d          44.518  11.720   1.934  0.00  0.00    -0.205 OA
ATOM     46  O48 MOL d          44.507  10.881  -0.427  0.00  0.00    -0.205 OA
BRANCH  44  47
ATOM     47  C49 MOL d          45.647  13.310   0.175  0.00  0.00     0.070 C 
ATOM     48  H17 MOL d          45.013  13.673  -0.647  0.00  0.00     0.066 H 
ATOM     49  H18 MOL d          46.698  13.306  -0.147  0.00  0.00     0.066 H 
BRANCH  47  50
ATOM     50  C50 MOL d          45.488  14.205   1.368  0.00  0.00    -0.043 A 
ATOM     51  C53 MOL d          46.552  14.161   2.352  0.00  0.00    -0.076 A 
ATOM     52  C54 MOL d          46.475  15.097   3.454  0.00  0.00    -0.082 A 
ATOM     53  H19 MOL d          47.370  13.457   2.267  0.00  0.00     0.084 H 
ATOM     54  C55 MOL d          45.333  16.004   3.557  0.00  0.00    -0.083 A 
ATOM     55  H20 MOL d          47.261  15.125   4.199  0.00  0.00     0.083 H 
ATOM     56  C56 MOL d          44.284  16.044   2.555  0.00  0.00    -0.082 A 
ATOM     57  H21 MOL d          45.269  16.669   4.410  0.00  0.00     0.083 H 
ATOM     58  C57 MOL d          44.346  15.121   1.434  0.00  0.00    -0.076 A 
ATOM     59  H22 MOL d          43.467  16.750   2.643  0.00  0.00     0.083 H 
ATOM     60  H23 MOL d          43.575  15.112   0.673  0.00  0.00     0.084 H 
ENDBRANCH  47  50
ENDBRANCH  44  47
ENDBRANCH   4  44
TORSDOF 10
ENDMDL
MODEL 8
REMARK VINA RESULT:      -5.9      5.037     11.567
REMARK  10 active torsions:
REMARK  status: ('A' for Active; 'I' for Inactive)
REMARK    1  A    between atoms: C2_2  and  C6_6 
REMARK    2  A    between atoms: C3_3  and  O20_16 
REMARK    3  A    between atoms: C5_5  and  C9_9 
REMARK    4  A    between atoms: C11_11  and  N29_21 
REMARK    5  A    between atoms: O20_16  and  C21_17 
REMARK    6  A    between atoms: C21_17  and  C22_18 
REMARK    7  A    between atoms: N29_21  and  C30_22 
REMARK    8  A    between atoms: N33_25  and  S46_28 
REMARK    9  A    between atoms: S46_28  and  C49_31 
REMARK   10  A    between atoms: C49_31  and  C50_32 
ROOT
ATOM      1  C30 MOL d          51.079   7.399   3.998  0.00  0.00     0.012 C 
ATOM      2  C31 MOL d          51.448   7.156   2.534  0.00  0.00    -0.031 C 
ATOM      3  C32 MOL d          50.751   8.095   1.576  0.00  0.00     0.007 C 
ATOM      4  N33 MOL d          49.325   8.073   1.907  0.00  0.00    -0.310 N 
ATOM      5  C34 MOL d          48.855   8.362   3.264  0.00  0.00     0.007 C 
ATOM      6  C35 MOL d          49.567   7.435   4.214  0.00  0.00    -0.031 C 
ATOM      7  H8  MOL d          51.498   8.366   4.314  0.00  0.00     0.072 H 
ATOM      8  H9  MOL d          51.174   6.124   2.272  0.00  0.00     0.038 H 
ATOM      9  H10 MOL d          52.535   7.287   2.422  0.00  0.00     0.038 H 
ATOM     10  H11 MOL d          50.902   7.758   0.541  0.00  0.00     0.065 H 
ATOM     11  H12 MOL d          51.148   9.114   1.692  0.00  0.00     0.065 H 
ATOM     12  H13 MOL d          47.769   8.195   3.325  0.00  0.00     0.065 H 
ATOM     13  H14 MOL d          49.081   9.407   3.522  0.00  0.00     0.065 H 
ATOM     14  H15 MOL d          49.369   7.768   5.242  0.00  0.00     0.038 H 
ATOM     15  H16 MOL d          49.171   6.419   4.074  0.00  0.00     0.038 H 
ENDROOT
BRANCH   1  16
ATOM     16  N29 MOL d          51.663   6.352   4.779  0.00  0.00    -0.385 N 
ATOM     17  H7  MOL d          51.947   6.557   5.747  0.00  0.00     0.160 HD
BRANCH  16  18
ATOM     18  C11 MOL d          51.860   5.097   4.293  0.00  0.00     0.029 A 
ATOM     19  C10 MOL d          50.666   4.472   3.810  0.00  0.00    -0.046 A 
ATOM     20  C9  MOL d          50.751   3.122   3.276  0.00  0.00    -0.015 A 
ATOM     21  H1  MOL d          49.718   4.994   3.841  0.00  0.00     0.088 H 
ATOM     22  C14 MOL d          52.037   2.439   3.193  0.00  0.00    -0.072 A 
ATOM     23  C13 MOL d          53.238   3.049   3.686  0.00  0.00    -0.080 A 
ATOM     24  H4  MOL d          52.087   1.452   2.749  0.00  0.00     0.084 H 
ATOM     25  C12 MOL d          53.138   4.392   4.231  0.00  0.00    -0.058 A 
ATOM     26  H3  MOL d          54.187   2.526   3.655  0.00  0.00     0.083 H 
ATOM     27  H2  MOL d          54.033   4.883   4.598  0.00  0.00     0.086 H 
BRANCH  20  28
ATOM     28  C5  MOL d          49.555   2.381   2.827  0.00  0.00     0.036 A 
ATOM     29  S1  MOL d          49.198   2.236   1.063  0.00  0.00    -0.078 SA
ATOM     30  C2  MOL d          47.744   1.238   1.361  0.00  0.00     0.117 A 
ATOM     31  C3  MOL d          47.574   1.055   2.659  0.00  0.00     0.112 A 
ATOM     32  C4  MOL d          48.626   1.669   3.484  0.00  0.00     0.064 A 
ATOM     33 BR19 MOL d          48.629   1.282   5.305  0.00  0.00    -0.047 Br
BRANCH  30  34
ATOM     34  C6  MOL d          46.886   0.875   0.254  0.00  0.00     0.219 C 
ATOM     35  O7  MOL d          47.396  -0.013  -0.462  0.00  0.00    -0.643 OA
ATOM     36  O8  MOL d          45.769   1.393   0.031  0.00  0.00    -0.643 OA
ENDBRANCH  30  34
BRANCH  31  37
ATOM     37  O20 MOL d          46.581   0.307   3.117  0.00  0.00    -0.338 OA
BRANCH  37  38
ATOM     38  C21 MOL d          45.661   0.957   3.969  0.00  0.00     0.106 C 
ATOM     39  H5  MOL d          45.870   2.037   4.006  0.00  0.00     0.091 H 
ATOM     40  H6  MOL d          45.719   0.539   4.985  0.00  0.00     0.091 H 
BRANCH  38  41
ATOM     41  C22 MOL d          44.337   0.715   3.395  0.00  0.00     0.198 C 
ATOM     42  O25 MOL d          43.384   1.246   3.994  0.00  0.00    -0.646 OA
ATOM     43  O26 MOL d          44.221   0.012   2.365  0.00  0.00    -0.646 OA
ENDBRANCH  38  41
ENDBRANCH  37  38
ENDBRANCH  31  37
ENDBRANCH  20  28
ENDBRANCH  16  18
ENDBRANCH   1  16
BRANCH   4  44
ATOM     44  S46 MOL d          48.182   8.338   0.666  0.00  0.00     0.232 S 
ATOM     45  O47 MOL d          46.888   8.149   1.281  0.00  0.00    -0.205 OA
ATOM     46  O48 MOL d          48.585   7.490  -0.440  0.00  0.00    -0.205 OA
BRANCH  44  47
ATOM     47  C49 MOL d          48.376  10.110   0.369  0.00  0.00     0.070 C 
ATOM     48  H17 MOL d          48.656  10.281  -0.682  0.00  0.00     0.066 H 
ATOM     49  H18 MOL d          49.161  10.511   1.027  0.00  0.00     0.066 H 
BRANCH  47  50
ATOM     50  C50 MOL d          47.075  10.793   0.662  0.00  0.00    -0.043 A 
ATOM     51  C53 MOL d          47.034  11.620   1.852  0.00  0.00    -0.076 A 
ATOM     52  C54 MOL d          45.824  12.377   2.093  0.00  0.00    -0.082 A 
ATOM     53  H19 MOL d          47.874  11.668   2.534  0.00  0.00     0.084 H 
ATOM     54  C55 MOL d          44.695  12.254   1.173  0.00  0.00    -0.083 A 
ATOM     55  H20 MOL d          45.756  13.034   2.953  0.00  0.00     0.083 H 
ATOM     56  C56 MOL d          44.757  11.432  -0.021  0.00  0.00    -0.082 A 
ATOM     57  H21 MOL d          43.782  12.795   1.391  0.00  0.00     0.083 H 
ATOM     58  C57 MOL d          45.966  10.672  -0.290  0.00  0.00    -0.076 A 
ATOM     59  H22 MOL d          43.915  11.386  -0.702  0.00  0.00     0.083 H 
ATOM     60  H23 MOL d          46.046  10.037  -1.165  0.00  0.00     0.084 H 
ENDBRANCH  47  50
ENDBRANCH  44  47
ENDBRANCH   4  44
TORSDOF 10
ENDMDL
