MODEL 1
REMARK VINA RESULT:      -8.6      0.000      0.000
REMARK  6 active torsions:
REMARK  status: ('A' for Active; 'I' for Inactive)
REMARK    1  A    between atoms: N16_6  and  C12_7 
REMARK    2  A    between atoms: C9_12  and  N7_13 
REMARK    3  A    between atoms: N7_13  and  C4_14 
REMARK    4  A    between atoms: C6_19  and  C15_20 
REMARK    5  A    between atoms: N25_24  and  C29_25 
REMARK    6  A    between atoms: C26_26  and  C27_27 
ROOT
ATOM      1  C12 Y8L d          21.661  25.287  28.864  0.00  0.00     0.030 A 
ATOM      2  C13 Y8L d          22.031  26.021  27.735  0.00  0.00    -0.055 A 
ATOM      3  C14 Y8L d          22.512  27.333  27.852  0.00  0.00    -0.054 A 
ATOM      4  C11 Y8L d          21.811  25.867  30.120  0.00  0.00    -0.055 A 
ATOM      5  C10 Y8L d          22.319  27.168  30.219  0.00  0.00    -0.054 A 
ATOM      6  C9  Y8L d          22.653  27.930  29.096  0.00  0.00     0.049 A 
ATOM      7  H11 Y8L d          21.945  25.571  26.752  0.00  0.00     0.087 H 
ATOM      8  H12 Y8L d          22.778  27.888  26.959  0.00  0.00     0.087 H 
ATOM      9  H13 Y8L d          21.536  25.317  31.013  0.00  0.00     0.087 H 
ATOM     10  H14 Y8L d          22.458  27.601  31.203  0.00  0.00     0.087 H 
ENDROOT
BRANCH   6  11
ATOM     11  N7  Y8L d          23.137  29.173  29.282  0.00  0.00    -0.188 N 
ATOM     12  H15 Y8L d          22.674  29.737  30.009  0.00  0.00     0.184 HD
BRANCH  11  13
ATOM     13  C4  Y8L d          24.156  29.765  28.629  0.00  0.00     0.727 A 
ATOM     14  N5  Y8L d          24.993  29.135  27.777  0.00  0.00    -0.061 NA
ATOM     15  C6  Y8L d          26.006  29.781  27.164  0.00  0.00     0.096 A 
ATOM     16  C1  Y8L d          26.122  31.159  27.351  0.00  0.00    -0.036 A 
ATOM     17  C2  Y8L d          25.226  31.797  28.191  0.00  0.00     0.023 A 
ATOM     18  H17 Y8L d          26.901  31.720  26.848  0.00  0.00     0.089 H 
ATOM     19  N3  Y8L d          24.275  31.097  28.789  0.00  0.00    -0.075 NA
ATOM     20  H16 Y8L d          25.303  32.865  28.359  0.00  0.00     0.115 H 
BRANCH  15  21
ATOM     21  C15 Y8L d          26.864  29.143  26.253  0.00  0.00     0.062 A 
ATOM     22  S23 Y8L d          26.765  27.509  25.719  0.00  0.00    -0.025 SA
ATOM     23  C24 Y8L d          28.196  27.595  24.817  0.00  0.00     0.291 A 
ATOM     24  O28 Y8L d          28.666  26.694  24.127  0.00  0.00    -0.259 OA
ATOM     25  N25 Y8L d          28.704  28.827  24.895  0.00  0.00    -0.316 N 
ATOM     26  C26 Y8L d          28.018  29.685  25.663  0.00  0.00     0.030 A 
BRANCH  25  27
ATOM     27  C29 Y8L d          29.950  29.211  24.173  0.00  0.00    -0.011 C 
ATOM     28  H18 Y8L d          29.990  30.305  24.066  0.00  0.00     0.057 H 
ATOM     29  H19 Y8L d          29.955  28.744  23.176  0.00  0.00     0.057 H 
ATOM     30  H20 Y8L d          30.825  28.866  24.743  0.00  0.00     0.057 H 
ENDBRANCH  25  27
BRANCH  26  31
ATOM     31  C27 Y8L d          28.478  31.134  25.842  0.00  0.00    -0.036 C 
ATOM     32  H21 Y8L d          29.383  31.309  25.243  0.00  0.00     0.035 H 
ATOM     33  H22 Y8L d          28.699  31.320  26.904  0.00  0.00     0.035 H 
ATOM     34  H23 Y8L d          27.681  31.816  25.509  0.00  0.00     0.035 H 
ENDBRANCH  26  31
ENDBRANCH  15  21
ENDBRANCH  11  13
ENDBRANCH   6  11
BRANCH   1  35
ATOM     35  N16 Y8L d          21.129  23.984  28.741  0.00  0.00    -0.378 N 
ATOM     36  C17 Y8L d          20.736  23.504  27.401  0.00  0.00     0.018 C 
ATOM     37  C18 Y8L d          19.811  22.273  27.384  0.00  0.00     0.096 C 
ATOM     38  H1  Y8L d          20.217  24.326  26.886  0.00  0.00     0.066 H 
ATOM     39  H2  Y8L d          21.653  23.247  26.850  0.00  0.00     0.066 H 
ATOM     40  N19 Y8L d          19.491  21.786  28.735  0.00  0.00    -0.072 N 
ATOM     41  H3  Y8L d          20.310  21.465  26.828  0.00  0.00     0.078 H 
ATOM     42  H4  Y8L d          18.873  22.544  26.876  0.00  0.00     0.078 H 
ATOM     43  C20 Y8L d          20.732  21.665  29.487  0.00  0.00     0.096 C 
ATOM     44  H5  Y8L d          19.040  20.886  28.674  0.00  0.00     0.277 HD
ATOM     45  H6  Y8L d          18.875  22.439  29.195  0.00  0.00     0.277 HD
ATOM     46  C21 Y8L d          21.175  23.070  29.895  0.00  0.00     0.018 C 
ATOM     47  H7  Y8L d          21.504  21.198  28.860  0.00  0.00     0.078 H 
ATOM     48  H8  Y8L d          20.566  21.050  30.385  0.00  0.00     0.078 H 
ATOM     49  H9  Y8L d          22.205  23.026  30.281  0.00  0.00     0.066 H 
ATOM     50  H10 Y8L d          20.505  23.447  30.682  0.00  0.00     0.066 H 
ENDBRANCH   1  35
TORSDOF 6
ENDMDL
MODEL 2
REMARK VINA RESULT:      -8.2      3.320      8.490
REMARK  6 active torsions:
REMARK  status: ('A' for Active; 'I' for Inactive)
REMARK    1  A    between atoms: N16_6  and  C12_7 
REMARK    2  A    between atoms: C9_12  and  N7_13 
REMARK    3  A    between atoms: N7_13  and  C4_14 
REMARK    4  A    between atoms: C6_19  and  C15_20 
REMARK    5  A    between atoms: N25_24  and  C29_25 
REMARK    6  A    between atoms: C26_26  and  C27_27 
ROOT
ATOM      1  C12 Y8L d          25.509  29.108  27.435  0.00  0.00     0.030 A 
ATOM      2  C13 Y8L d          24.620  29.795  28.265  0.00  0.00    -0.055 A 
ATOM      3  C14 Y8L d          23.447  29.183  28.731  0.00  0.00    -0.054 A 
ATOM      4  C11 Y8L d          25.230  27.786  27.102  0.00  0.00    -0.055 A 
ATOM      5  C10 Y8L d          24.069  27.183  27.600  0.00  0.00    -0.054 A 
ATOM      6  C9  Y8L d          23.149  27.870  28.396  0.00  0.00     0.049 A 
ATOM      7  H11 Y8L d          24.839  30.817  28.553  0.00  0.00     0.087 H 
ATOM      8  H12 Y8L d          22.766  29.742  29.361  0.00  0.00     0.087 H 
ATOM      9  H13 Y8L d          25.907  27.228  26.464  0.00  0.00     0.087 H 
ATOM     10  H14 Y8L d          23.875  26.144  27.358  0.00  0.00     0.087 H 
ENDROOT
BRANCH   6  11
ATOM     11  N7  Y8L d          22.059  27.213  28.834  0.00  0.00    -0.188 N 
ATOM     12  H15 Y8L d          21.270  27.798  29.145  0.00  0.00     0.184 HD
BRANCH  11  13
ATOM     13  C4  Y8L d          21.877  25.881  28.912  0.00  0.00     0.727 A 
ATOM     14  N5  Y8L d          21.561  25.085  27.869  0.00  0.00    -0.061 NA
ATOM     15  C6  Y8L d          21.376  23.757  28.014  0.00  0.00     0.096 A 
ATOM     16  C1  Y8L d          21.617  23.188  29.266  0.00  0.00    -0.036 A 
ATOM     17  C2  Y8L d          21.988  24.013  30.314  0.00  0.00     0.023 A 
ATOM     18  H17 Y8L d          21.515  22.120  29.414  0.00  0.00     0.089 H 
ATOM     19  N3  Y8L d          22.117  25.315  30.110  0.00  0.00    -0.075 NA
ATOM     20  H16 Y8L d          22.171  23.594  31.297  0.00  0.00     0.115 H 
BRANCH  15  21
ATOM     21  C15 Y8L d          21.077  22.915  26.930  0.00  0.00     0.062 A 
ATOM     22  S23 Y8L d          19.523  22.319  26.490  0.00  0.00    -0.025 SA
ATOM     23  C24 Y8L d          20.122  21.342  25.244  0.00  0.00     0.291 A 
ATOM     24  O28 Y8L d          19.447  20.653  24.482  0.00  0.00    -0.259 OA
ATOM     25  N25 Y8L d          21.445  21.493  25.149  0.00  0.00    -0.316 N 
ATOM     26  C26 Y8L d          21.994  22.326  26.044  0.00  0.00     0.030 A 
BRANCH  25  27
ATOM     27  C29 Y8L d          22.246  20.777  24.117  0.00  0.00    -0.011 C 
ATOM     28  H18 Y8L d          23.318  20.895  24.337  0.00  0.00     0.057 H 
ATOM     29  H19 Y8L d          22.027  21.200  23.125  0.00  0.00     0.057 H 
ATOM     30  H20 Y8L d          21.986  19.709  24.126  0.00  0.00     0.057 H 
ENDBRANCH  25  27
BRANCH  26  31
ATOM     31  C27 Y8L d          23.500  22.602  26.054  0.00  0.00    -0.036 C 
ATOM     32  H21 Y8L d          23.734  23.386  25.319  0.00  0.00     0.035 H 
ATOM     33  H22 Y8L d          24.044  21.682  25.793  0.00  0.00     0.035 H 
ATOM     34  H23 Y8L d          23.805  22.936  27.056  0.00  0.00     0.035 H 
ENDBRANCH  26  31
ENDBRANCH  15  21
ENDBRANCH  11  13
ENDBRANCH   6  11
BRANCH   1  35
ATOM     35  N16 Y8L d          26.664  29.742  26.925  0.00  0.00    -0.378 N 
ATOM     36  C17 Y8L d          27.545  28.982  26.017  0.00  0.00     0.018 C 
ATOM     37  C18 Y8L d          28.958  29.564  25.825  0.00  0.00     0.096 C 
ATOM     38  H1  Y8L d          27.649  27.963  26.419  0.00  0.00     0.066 H 
ATOM     39  H2  Y8L d          27.060  28.938  25.031  0.00  0.00     0.066 H 
ATOM     40  N19 Y8L d          29.171  30.801  26.591  0.00  0.00    -0.072 N 
ATOM     41  H3  Y8L d          29.108  29.781  24.757  0.00  0.00     0.078 H 
ATOM     42  H4  Y8L d          29.695  28.815  26.153  0.00  0.00     0.078 H 
ATOM     43  C20 Y8L d          28.052  31.698  26.338  0.00  0.00     0.096 C 
ATOM     44  H5  Y8L d          30.031  31.239  26.299  0.00  0.00     0.277 HD
ATOM     45  H6  Y8L d          29.221  30.587  27.575  0.00  0.00     0.277 HD
ATOM     46  C21 Y8L d          26.849  31.189  27.134  0.00  0.00     0.018 C 
ATOM     47  H7  Y8L d          27.813  31.702  25.265  0.00  0.00     0.078 H 
ATOM     48  H8  Y8L d          28.309  32.717  26.662  0.00  0.00     0.078 H 
ATOM     49  H9  Y8L d          25.945  31.721  26.803  0.00  0.00     0.066 H 
ATOM     50  H10 Y8L d          27.017  31.381  28.204  0.00  0.00     0.066 H 
ENDBRANCH   1  35
TORSDOF 6
ENDMDL
MODEL 3
REMARK VINA RESULT:      -7.7      2.376      8.402
REMARK  6 active torsions:
REMARK  status: ('A' for Active; 'I' for Inactive)
REMARK    1  A    between atoms: N16_6  and  C12_7 
REMARK    2  A    between atoms: C9_12  and  N7_13 
REMARK    3  A    between atoms: N7_13  and  C4_14 
REMARK    4  A    between atoms: C6_19  and  C15_20 
REMARK    5  A    between atoms: N25_24  and  C29_25 
REMARK    6  A    between atoms: C26_26  and  C27_27 
ROOT
ATOM      1  C12 Y8L d          26.213  29.540  27.096  0.00  0.00     0.030 A 
ATOM      2  C13 Y8L d          25.528  30.465  27.888  0.00  0.00    -0.055 A 
ATOM      3  C14 Y8L d          24.328  30.121  28.526  0.00  0.00    -0.054 A 
ATOM      4  C11 Y8L d          25.700  28.252  26.975  0.00  0.00    -0.055 A 
ATOM      5  C10 Y8L d          24.515  27.919  27.642  0.00  0.00    -0.054 A 
ATOM      6  C9  Y8L d          23.798  28.845  28.404  0.00  0.00     0.049 A 
ATOM      7  H11 Y8L d          25.931  31.464  28.012  0.00  0.00     0.087 H 
ATOM      8  H12 Y8L d          23.808  30.862  29.123  0.00  0.00     0.087 H 
ATOM      9  H13 Y8L d          26.214  27.513  26.370  0.00  0.00     0.087 H 
ATOM     10  H14 Y8L d          24.139  26.905  27.565  0.00  0.00     0.087 H 
ENDROOT
BRANCH   6  11
ATOM     11  N7  Y8L d          22.668  28.440  29.014  0.00  0.00    -0.188 N 
ATOM     12  H15 Y8L d          22.038  29.186  29.345  0.00  0.00     0.184 HD
BRANCH  11  13
ATOM     13  C4  Y8L d          22.264  27.177  29.243  0.00  0.00     0.727 A 
ATOM     14  N5  Y8L d          22.285  26.185  28.327  0.00  0.00    -0.061 NA
ATOM     15  C6  Y8L d          21.852  24.940  28.612  0.00  0.00     0.096 A 
ATOM     16  C1  Y8L d          21.464  24.658  29.922  0.00  0.00    -0.036 A 
ATOM     17  C2  Y8L d          21.494  25.675  30.861  0.00  0.00     0.023 A 
ATOM     18  H17 Y8L d          21.144  23.661  30.200  0.00  0.00     0.089 H 
ATOM     19  N3  Y8L d          21.898  26.885  30.505  0.00  0.00    -0.075 NA
ATOM     20  H16 Y8L d          21.189  25.481  31.883  0.00  0.00     0.115 H 
BRANCH  15  21
ATOM     21  C15 Y8L d          21.897  23.894  27.675  0.00  0.00     0.062 A 
ATOM     22  S23 Y8L d          23.092  23.653  26.460  0.00  0.00    -0.025 SA
ATOM     23  C24 Y8L d          22.294  22.327  25.773  0.00  0.00     0.291 A 
ATOM     24  O28 Y8L d          22.701  21.651  24.831  0.00  0.00    -0.259 OA
ATOM     25  N25 Y8L d          21.183  22.062  26.466  0.00  0.00    -0.316 N 
ATOM     26  C26 Y8L d          20.934  22.887  27.491  0.00  0.00     0.030 A 
BRANCH  25  27
ATOM     27  C29 Y8L d          20.289  20.924  26.111  0.00  0.00    -0.011 C 
ATOM     28  H18 Y8L d          20.307  20.177  26.918  0.00  0.00     0.057 H 
ATOM     29  H19 Y8L d          20.638  20.460  25.176  0.00  0.00     0.057 H 
ATOM     30  H20 Y8L d          19.262  21.293  25.976  0.00  0.00     0.057 H 
ENDBRANCH  25  27
BRANCH  26  31
ATOM     31  C27 Y8L d          19.700  22.703  28.378  0.00  0.00    -0.036 C 
ATOM     32  H21 Y8L d          19.227  23.680  28.555  0.00  0.00     0.035 H 
ATOM     33  H22 Y8L d          20.002  22.263  29.340  0.00  0.00     0.035 H 
ATOM     34  H23 Y8L d          18.984  22.034  27.877  0.00  0.00     0.035 H 
ENDBRANCH  26  31
ENDBRANCH  15  21
ENDBRANCH  11  13
ENDBRANCH   6  11
BRANCH   1  35
ATOM     35  N16 Y8L d          27.395  29.903  26.413  0.00  0.00    -0.378 N 
ATOM     36  C17 Y8L d          27.930  31.265  26.600  0.00  0.00     0.018 C 
ATOM     37  C18 Y8L d          28.956  31.724  25.547  0.00  0.00     0.096 C 
ATOM     38  H1  Y8L d          27.084  31.968  26.578  0.00  0.00     0.066 H 
ATOM     39  H2  Y8L d          28.416  31.307  27.586  0.00  0.00     0.066 H 
ATOM     40  N19 Y8L d          29.226  30.694  24.532  0.00  0.00    -0.072 N 
ATOM     41  H3  Y8L d          29.899  31.970  26.057  0.00  0.00     0.078 H 
ATOM     42  H4  Y8L d          28.567  32.622  25.043  0.00  0.00     0.078 H 
ATOM     43  C20 Y8L d          29.501  29.437  25.213  0.00  0.00     0.096 C 
ATOM     44  H5  Y8L d          30.024  30.963  23.977  0.00  0.00     0.277 HD
ATOM     45  H6  Y8L d          28.422  30.588  23.933  0.00  0.00     0.277 HD
ATOM     46  C21 Y8L d          28.172  28.867  25.709  0.00  0.00     0.018 C 
ATOM     47  H7  Y8L d          30.172  29.614  26.066  0.00  0.00     0.078 H 
ATOM     48  H8  Y8L d          29.974  28.730  24.515  0.00  0.00     0.078 H 
ATOM     49  H9  Y8L d          28.371  28.034  26.399  0.00  0.00     0.066 H 
ATOM     50  H10 Y8L d          27.592  28.501  24.849  0.00  0.00     0.066 H 
ENDBRANCH   1  35
TORSDOF 6
ENDMDL
MODEL 4
REMARK VINA RESULT:      -7.6      3.851      8.730
REMARK  6 active torsions:
REMARK  status: ('A' for Active; 'I' for Inactive)
REMARK    1  A    between atoms: N16_6  and  C12_7 
REMARK    2  A    between atoms: C9_12  and  N7_13 
REMARK    3  A    between atoms: N7_13  and  C4_14 
REMARK    4  A    between atoms: C6_19  and  C15_20 
REMARK    5  A    between atoms: N25_24  and  C29_25 
REMARK    6  A    between atoms: C26_26  and  C27_27 
ROOT
ATOM      1  C12 Y8L d          26.321  28.878  26.350  0.00  0.00     0.030 A 
ATOM      2  C13 Y8L d          26.049  28.647  25.000  0.00  0.00    -0.055 A 
ATOM      3  C14 Y8L d          26.197  27.369  24.441  0.00  0.00    -0.054 A 
ATOM      4  C11 Y8L d          26.713  27.806  27.148  0.00  0.00    -0.055 A 
ATOM      5  C10 Y8L d          26.828  26.532  26.578  0.00  0.00    -0.054 A 
ATOM      6  C9  Y8L d          26.599  26.295  25.220  0.00  0.00     0.049 A 
ATOM      7  H11 Y8L d          25.718  29.468  24.374  0.00  0.00     0.087 H 
ATOM      8  H12 Y8L d          25.994  27.220  23.387  0.00  0.00     0.087 H 
ATOM      9  H13 Y8L d          26.926  27.957  28.200  0.00  0.00     0.087 H 
ATOM     10  H14 Y8L d          27.106  25.699  27.214  0.00  0.00     0.087 H 
ENDROOT
BRANCH   6  11
ATOM     11  N7  Y8L d          26.731  25.038  24.755  0.00  0.00    -0.188 N 
ATOM     12  H15 Y8L d          27.618  24.821  24.277  0.00  0.00     0.184 HD
BRANCH  11  13
ATOM     13  C4  Y8L d          25.841  24.032  24.842  0.00  0.00     0.727 A 
ATOM     14  N5  Y8L d          24.673  24.093  25.517  0.00  0.00    -0.061 NA
ATOM     15  C6  Y8L d          23.829  23.043  25.580  0.00  0.00     0.096 A 
ATOM     16  C1  Y8L d          24.138  21.900  24.842  0.00  0.00    -0.036 A 
ATOM     17  C2  Y8L d          25.316  21.872  24.116  0.00  0.00     0.023 A 
ATOM     18  H17 Y8L d          23.467  21.049  24.837  0.00  0.00     0.089 H 
ATOM     19  N3  Y8L d          26.118  22.925  24.125  0.00  0.00    -0.075 NA
ATOM     20  H16 Y8L d          25.581  20.991  23.542  0.00  0.00     0.115 H 
BRANCH  15  21
ATOM     21  C15 Y8L d          22.598  23.107  26.254  0.00  0.00     0.062 A 
ATOM     22  S23 Y8L d          21.427  21.851  26.377  0.00  0.00    -0.025 SA
ATOM     23  C24 Y8L d          20.300  22.822  27.185  0.00  0.00     0.291 A 
ATOM     24  O28 Y8L d          19.204  22.456  27.605  0.00  0.00    -0.259 OA
ATOM     25  N25 Y8L d          20.812  24.040  27.381  0.00  0.00    -0.316 N 
ATOM     26  C26 Y8L d          22.043  24.231  26.889  0.00  0.00     0.030 A 
BRANCH  25  27
ATOM     27  C29 Y8L d          20.056  25.105  28.099  0.00  0.00    -0.011 C 
ATOM     28  H18 Y8L d          19.008  24.793  28.219  0.00  0.00     0.057 H 
ATOM     29  H19 Y8L d          20.096  26.038  27.517  0.00  0.00     0.057 H 
ATOM     30  H20 Y8L d          20.504  25.269  29.089  0.00  0.00     0.057 H 
ENDBRANCH  25  27
BRANCH  26  31
ATOM     31  C27 Y8L d          22.761  25.575  27.042  0.00  0.00    -0.036 C 
ATOM     32  H21 Y8L d          22.813  26.077  26.065  0.00  0.00     0.035 H 
ATOM     33  H22 Y8L d          23.780  25.406  27.422  0.00  0.00     0.035 H 
ATOM     34  H23 Y8L d          22.206  26.209  27.750  0.00  0.00     0.035 H 
ENDBRANCH  26  31
ENDBRANCH  15  21
ENDBRANCH  11  13
ENDBRANCH   6  11
BRANCH   1  35
ATOM     35  N16 Y8L d          26.221  30.175  26.901  0.00  0.00    -0.378 N 
ATOM     36  C17 Y8L d          25.457  30.355  28.151  0.00  0.00     0.018 C 
ATOM     37  C18 Y8L d          25.047  31.804  28.473  0.00  0.00     0.096 C 
ATOM     38  H1  Y8L d          24.540  29.752  28.078  0.00  0.00     0.066 H 
ATOM     39  H2  Y8L d          26.074  29.984  28.983  0.00  0.00     0.066 H 
ATOM     40  N19 Y8L d          25.511  32.764  27.459  0.00  0.00    -0.072 N 
ATOM     41  H3  Y8L d          25.479  32.085  29.445  0.00  0.00     0.078 H 
ATOM     42  H4  Y8L d          23.949  31.856  28.531  0.00  0.00     0.078 H 
ATOM     43  C20 Y8L d          26.925  32.521  27.208  0.00  0.00     0.096 C 
ATOM     44  H5  Y8L d          25.382  33.705  27.796  0.00  0.00     0.277 HD
ATOM     45  H6  Y8L d          24.987  32.637  26.607  0.00  0.00     0.277 HD
ATOM     46  C21 Y8L d          27.042  31.264  26.345  0.00  0.00     0.018 C 
ATOM     47  H7  Y8L d          27.452  32.369  28.161  0.00  0.00     0.078 H 
ATOM     48  H8  Y8L d          27.363  33.380  26.678  0.00  0.00     0.078 H 
ATOM     49  H9  Y8L d          28.094  30.944  26.314  0.00  0.00     0.066 H 
ATOM     50  H10 Y8L d          26.698  31.492  25.325  0.00  0.00     0.066 H 
ENDBRANCH   1  35
TORSDOF 6
ENDMDL
MODEL 5
REMARK VINA RESULT:      -7.5      2.561      4.002
REMARK  6 active torsions:
REMARK  status: ('A' for Active; 'I' for Inactive)
REMARK    1  A    between atoms: N16_6  and  C12_7 
REMARK    2  A    between atoms: C9_12  and  N7_13 
REMARK    3  A    between atoms: N7_13  and  C4_14 
REMARK    4  A    between atoms: C6_19  and  C15_20 
REMARK    5  A    between atoms: N25_24  and  C29_25 
REMARK    6  A    between atoms: C26_26  and  C27_27 
ROOT
ATOM      1  C12 Y8L d          21.929  24.578  28.053  0.00  0.00     0.030 A 
ATOM      2  C13 Y8L d          22.379  23.637  27.125  0.00  0.00    -0.055 A 
ATOM      3  C14 Y8L d          23.178  24.019  26.038  0.00  0.00    -0.054 A 
ATOM      4  C11 Y8L d          22.316  25.906  27.902  0.00  0.00    -0.055 A 
ATOM      5  C10 Y8L d          23.137  26.265  26.826  0.00  0.00    -0.054 A 
ATOM      6  C9  Y8L d          23.561  25.341  25.866  0.00  0.00     0.049 A 
ATOM      7  H11 Y8L d          22.106  22.594  27.246  0.00  0.00     0.087 H 
ATOM      8  H12 Y8L d          23.502  23.272  25.322  0.00  0.00     0.087 H 
ATOM      9  H13 Y8L d          21.985  26.657  28.612  0.00  0.00     0.087 H 
ATOM     10  H14 Y8L d          23.457  27.296  26.734  0.00  0.00     0.087 H 
ENDROOT
BRANCH   6  11
ATOM     11  N7  Y8L d          24.351  25.771  24.865  0.00  0.00    -0.188 N 
ATOM     12  H15 Y8L d          23.945  25.733  23.918  0.00  0.00     0.184 HD
BRANCH  11  13
ATOM     13  C4  Y8L d          25.608  26.243  24.954  0.00  0.00     0.727 A 
ATOM     14  N5  Y8L d          25.933  27.547  25.090  0.00  0.00    -0.061 NA
ATOM     15  C6  Y8L d          27.215  27.960  25.158  0.00  0.00     0.096 A 
ATOM     16  C1  Y8L d          28.221  26.994  25.185  0.00  0.00    -0.036 A 
ATOM     17  C2  Y8L d          27.868  25.659  25.093  0.00  0.00     0.023 A 
ATOM     18  H17 Y8L d          29.261  27.284  25.276  0.00  0.00     0.089 H 
ATOM     19  N3  Y8L d          26.591  25.323  24.993  0.00  0.00    -0.075 NA
ATOM     20  H16 Y8L d          28.634  24.892  25.103  0.00  0.00     0.115 H 
BRANCH  15  21
ATOM     21  C15 Y8L d          27.562  29.311  25.330  0.00  0.00     0.062 A 
ATOM     22  S23 Y8L d          28.801  30.167  24.497  0.00  0.00    -0.025 SA
ATOM     23  C24 Y8L d          28.595  31.582  25.404  0.00  0.00     0.291 A 
ATOM     24  O28 Y8L d          29.204  32.636  25.241  0.00  0.00    -0.259 OA
ATOM     25  N25 Y8L d          27.600  31.414  26.279  0.00  0.00    -0.316 N 
ATOM     26  C26 Y8L d          27.026  30.204  26.272  0.00  0.00     0.030 A 
BRANCH  25  27
ATOM     27  C29 Y8L d          27.169  32.506  27.197  0.00  0.00    -0.011 C 
ATOM     28  H18 Y8L d          26.727  32.069  28.105  0.00  0.00     0.057 H 
ATOM     29  H19 Y8L d          26.421  33.136  26.692  0.00  0.00     0.057 H 
ATOM     30  H20 Y8L d          28.039  33.119  27.472  0.00  0.00     0.057 H 
ENDBRANCH  25  27
BRANCH  26  31
ATOM     31  C27 Y8L d          25.869  29.867  27.217  0.00  0.00    -0.036 C 
ATOM     32  H21 Y8L d          25.049  30.583  27.063  0.00  0.00     0.035 H 
ATOM     33  H22 Y8L d          26.217  29.928  28.259  0.00  0.00     0.035 H 
ATOM     34  H23 Y8L d          25.510  28.848  27.010  0.00  0.00     0.035 H 
ENDBRANCH  26  31
ENDBRANCH  15  21
ENDBRANCH  11  13
ENDBRANCH   6  11
BRANCH   1  35
ATOM     35  N16 Y8L d          21.083  24.200  29.119  0.00  0.00    -0.378 N 
ATOM     36  C17 Y8L d          21.505  23.093  29.999  0.00  0.00     0.018 C 
ATOM     37  C18 Y8L d          20.392  22.473  30.864  0.00  0.00     0.096 C 
ATOM     38  H1  Y8L d          21.926  22.298  29.366  0.00  0.00     0.066 H 
ATOM     39  H2  Y8L d          22.285  23.475  30.674  0.00  0.00     0.066 H 
ATOM     40  N19 Y8L d          19.086  23.118  30.655  0.00  0.00    -0.072 N 
ATOM     41  H3  Y8L d          20.669  22.576  31.923  0.00  0.00     0.078 H 
ATOM     42  H4  Y8L d          20.302  21.406  30.610  0.00  0.00     0.078 H 
ATOM     43  C20 Y8L d          19.264  24.560  30.750  0.00  0.00     0.096 C 
ATOM     44  H5  Y8L d          18.437  22.808  31.361  0.00  0.00     0.277 HD
ATOM     45  H6  Y8L d          18.730  22.877  29.743  0.00  0.00     0.277 HD
ATOM     46  C21 Y8L d          19.920  25.041  29.454  0.00  0.00     0.018 C 
ATOM     47  H7  Y8L d          19.911  24.801  31.606  0.00  0.00     0.078 H 
ATOM     48  H8  Y8L d          18.287  25.049  30.878  0.00  0.00     0.078 H 
ATOM     49  H9  Y8L d          20.251  26.082  29.582  0.00  0.00     0.066 H 
ATOM     50  H10 Y8L d          19.186  24.987  28.636  0.00  0.00     0.066 H 
ENDBRANCH   1  35
TORSDOF 6
ENDMDL
MODEL 6
REMARK VINA RESULT:      -7.5      3.053      5.166
REMARK  6 active torsions:
REMARK  status: ('A' for Active; 'I' for Inactive)
REMARK    1  A    between atoms: N16_6  and  C12_7 
REMARK    2  A    between atoms: C9_12  and  N7_13 
REMARK    3  A    between atoms: N7_13  and  C4_14 
REMARK    4  A    between atoms: C6_19  and  C15_20 
REMARK    5  A    between atoms: N25_24  and  C29_25 
REMARK    6  A    between atoms: C26_26  and  C27_27 
ROOT
ATOM      1  C12 Y8L d          23.957  23.586  25.259  0.00  0.00     0.030 A 
ATOM      2  C13 Y8L d          25.035  22.849  24.764  0.00  0.00    -0.055 A 
ATOM      3  C14 Y8L d          26.219  23.483  24.359  0.00  0.00    -0.054 A 
ATOM      4  C11 Y8L d          24.087  24.966  25.377  0.00  0.00    -0.055 A 
ATOM      5  C10 Y8L d          25.286  25.579  24.994  0.00  0.00    -0.054 A 
ATOM      6  C9  Y8L d          26.358  24.859  24.458  0.00  0.00     0.049 A 
ATOM      7  H11 Y8L d          24.957  21.770  24.692  0.00  0.00     0.087 H 
ATOM      8  H12 Y8L d          27.035  22.890  23.964  0.00  0.00     0.087 H 
ATOM      9  H13 Y8L d          23.267  25.562  25.763  0.00  0.00     0.087 H 
ATOM     10  H14 Y8L d          25.388  26.651  25.117  0.00  0.00     0.087 H 
ENDROOT
BRANCH   6  11
ATOM     11  N7  Y8L d          27.476  25.527  24.117  0.00  0.00    -0.188 N 
ATOM     12  H15 Y8L d          28.141  25.023  23.514  0.00  0.00     0.184 HD
BRANCH  11  13
ATOM     13  C4  Y8L d          27.827  26.778  24.472  0.00  0.00     0.727 A 
ATOM     14  N5  Y8L d          27.069  27.607  25.222  0.00  0.00    -0.061 NA
ATOM     15  C6  Y8L d          27.469  28.856  25.532  0.00  0.00     0.096 A 
ATOM     16  C1  Y8L d          28.748  29.257  25.141  0.00  0.00    -0.036 A 
ATOM     17  C2  Y8L d          29.531  28.378  24.415  0.00  0.00     0.023 A 
ATOM     18  H17 Y8L d          29.121  30.241  25.403  0.00  0.00     0.089 H 
ATOM     19  N3  Y8L d          29.062  27.176  24.114  0.00  0.00    -0.075 NA
ATOM     20  H16 Y8L d          30.524  28.671  24.093  0.00  0.00     0.115 H 
BRANCH  15  21
ATOM     21  C15 Y8L d          26.702  29.716  26.336  0.00  0.00     0.062 A 
ATOM     22  S23 Y8L d          26.867  31.424  26.464  0.00  0.00    -0.025 SA
ATOM     23  C24 Y8L d          25.704  31.562  27.687  0.00  0.00     0.291 A 
ATOM     24  O28 Y8L d          25.322  32.610  28.202  0.00  0.00    -0.259 OA
ATOM     25  N25 Y8L d          25.190  30.359  27.957  0.00  0.00    -0.316 N 
ATOM     26  C26 Y8L d          25.707  29.342  27.255  0.00  0.00     0.030 A 
BRANCH  25  27
ATOM     27  C29 Y8L d          24.117  30.174  28.974  0.00  0.00    -0.011 C 
ATOM     28  H18 Y8L d          23.574  31.121  29.112  0.00  0.00     0.057 H 
ATOM     29  H19 Y8L d          24.567  29.867  29.931  0.00  0.00     0.057 H 
ATOM     30  H20 Y8L d          23.417  29.397  28.632  0.00  0.00     0.057 H 
ENDBRANCH  25  27
BRANCH  26  31
ATOM     31  C27 Y8L d          25.213  27.906  27.454  0.00  0.00    -0.036 C 
ATOM     32  H21 Y8L d          25.321  27.348  26.513  0.00  0.00     0.035 H 
ATOM     33  H22 Y8L d          24.154  27.921  27.751  0.00  0.00     0.035 H 
ATOM     34  H23 Y8L d          25.809  27.419  28.240  0.00  0.00     0.035 H 
ENDBRANCH  26  31
ENDBRANCH  15  21
ENDBRANCH  11  13
ENDBRANCH   6  11
BRANCH   1  35
ATOM     35  N16 Y8L d          22.748  22.951  25.619  0.00  0.00    -0.378 N 
ATOM     36  C17 Y8L d          22.391  21.681  24.956  0.00  0.00     0.018 C 
ATOM     37  C18 Y8L d          20.915  21.260  25.083  0.00  0.00     0.096 C 
ATOM     38  H1  Y8L d          22.624  21.780  23.886  0.00  0.00     0.066 H 
ATOM     39  H2  Y8L d          23.010  20.884  25.394  0.00  0.00     0.066 H 
ATOM     40  N19 Y8L d          20.117  22.217  25.866  0.00  0.00    -0.072 N 
ATOM     41  H3  Y8L d          20.870  20.278  25.577  0.00  0.00     0.078 H 
ATOM     42  H4  Y8L d          20.482  21.183  24.074  0.00  0.00     0.078 H 
ATOM     43  C20 Y8L d          20.828  22.503  27.105  0.00  0.00     0.096 C 
ATOM     44  H5  Y8L d          19.216  21.817  26.076  0.00  0.00     0.277 HD
ATOM     45  H6  Y8L d          19.994  23.067  25.339  0.00  0.00     0.277 HD
ATOM     46  C21 Y8L d          21.985  23.448  26.778  0.00  0.00     0.018 C 
ATOM     47  H7  Y8L d          21.218  21.570  27.535  0.00  0.00     0.078 H 
ATOM     48  H8  Y8L d          20.146  22.983  27.824  0.00  0.00     0.078 H 
ATOM     49  H9  Y8L d          22.654  23.514  27.649  0.00  0.00     0.066 H 
ATOM     50  H10 Y8L d          21.584  24.445  26.546  0.00  0.00     0.066 H 
ENDBRANCH   1  35
TORSDOF 6
ENDMDL
MODEL 7
REMARK VINA RESULT:      -6.9      3.076      7.772
REMARK  6 active torsions:
REMARK  status: ('A' for Active; 'I' for Inactive)
REMARK    1  A    between atoms: N16_6  and  C12_7 
REMARK    2  A    between atoms: C9_12  and  N7_13 
REMARK    3  A    between atoms: N7_13  and  C4_14 
REMARK    4  A    between atoms: C6_19  and  C15_20 
REMARK    5  A    between atoms: N25_24  and  C29_25 
REMARK    6  A    between atoms: C26_26  and  C27_27 
ROOT
ATOM      1  C12 Y8L d          25.387  29.444  27.755  0.00  0.00     0.030 A 
ATOM      2  C13 Y8L d          24.546  30.072  28.676  0.00  0.00    -0.055 A 
ATOM      3  C14 Y8L d          23.433  29.405  29.210  0.00  0.00    -0.054 A 
ATOM      4  C11 Y8L d          25.124  28.125  27.397  0.00  0.00    -0.055 A 
ATOM      5  C10 Y8L d          24.024  27.467  27.962  0.00  0.00    -0.054 A 
ATOM      6  C9  Y8L d          23.150  28.096  28.852  0.00  0.00     0.049 A 
ATOM      7  H11 Y8L d          24.756  31.090  28.983  0.00  0.00     0.087 H 
ATOM      8  H12 Y8L d          22.787  29.921  29.911  0.00  0.00     0.087 H 
ATOM      9  H13 Y8L d          25.764  27.612  26.688  0.00  0.00     0.087 H 
ATOM     10  H14 Y8L d          23.844  26.430  27.699  0.00  0.00     0.087 H 
ENDROOT
BRANCH   6  11
ATOM     11  N7  Y8L d          22.118  27.388  29.350  0.00  0.00    -0.188 N 
ATOM     12  H15 Y8L d          21.690  27.754  30.213  0.00  0.00     0.184 HD
BRANCH  11  13
ATOM     13  C4  Y8L d          21.580  26.259  28.853  0.00  0.00     0.727 A 
ATOM     14  N5  Y8L d          22.186  25.444  27.963  0.00  0.00    -0.061 NA
ATOM     15  C6  Y8L d          21.588  24.333  27.489  0.00  0.00     0.096 A 
ATOM     16  C1  Y8L d          20.345  23.975  28.014  0.00  0.00    -0.036 A 
ATOM     17  C2  Y8L d          19.759  24.797  28.961  0.00  0.00     0.023 A 
ATOM     18  H17 Y8L d          19.848  23.070  27.685  0.00  0.00     0.089 H 
ATOM     19  N3  Y8L d          20.386  25.893  29.357  0.00  0.00    -0.075 NA
ATOM     20  H16 Y8L d          18.790  24.544  29.376  0.00  0.00     0.115 H 
BRANCH  15  21
ATOM     21  C15 Y8L d          22.222  23.462  26.586  0.00  0.00     0.062 A 
ATOM     22  S23 Y8L d          21.872  21.794  26.349  0.00  0.00    -0.025 SA
ATOM     23  C24 Y8L d          23.145  21.562  25.257  0.00  0.00     0.291 A 
ATOM     24  O28 Y8L d          23.406  20.516  24.667  0.00  0.00    -0.259 OA
ATOM     25  N25 Y8L d          23.785  22.718  25.060  0.00  0.00    -0.316 N 
ATOM     26  C26 Y8L d          23.320  23.760  25.762  0.00  0.00     0.030 A 
BRANCH  25  27
ATOM     27  C29 Y8L d          24.937  22.828  24.120  0.00  0.00    -0.011 C 
ATOM     28  H18 Y8L d          24.638  22.458  23.129  0.00  0.00     0.057 H 
ATOM     29  H19 Y8L d          25.777  22.225  24.498  0.00  0.00     0.057 H 
ATOM     30  H20 Y8L d          25.246  23.880  24.041  0.00  0.00     0.057 H 
ENDBRANCH  25  27
BRANCH  26  31
ATOM     31  C27 Y8L d          23.951  25.149  25.635  0.00  0.00    -0.036 C 
ATOM     32  H21 Y8L d          24.708  25.137  24.837  0.00  0.00     0.035 H 
ATOM     33  H22 Y8L d          24.427  25.424  26.588  0.00  0.00     0.035 H 
ATOM     34  H23 Y8L d          23.171  25.885  25.389  0.00  0.00     0.035 H 
ENDBRANCH  26  31
ENDBRANCH  15  21
ENDBRANCH  11  13
ENDBRANCH   6  11
BRANCH   1  35
ATOM     35  N16 Y8L d          26.478  30.132  27.179  0.00  0.00    -0.378 N 
ATOM     36  C17 Y8L d          27.518  29.352  26.481  0.00  0.00     0.018 C 
ATOM     37  C18 Y8L d          28.848  30.090  26.238  0.00  0.00     0.096 C 
ATOM     38  H1  Y8L d          27.731  28.456  27.083  0.00  0.00     0.066 H 
ATOM     39  H2  Y8L d          27.115  29.049  25.503  0.00  0.00     0.066 H 
ATOM     40  N19 Y8L d          28.833  31.468  26.750  0.00  0.00    -0.072 N 
ATOM     41  H3  Y8L d          29.043  30.119  25.156  0.00  0.00     0.078 H 
ATOM     42  H4  Y8L d          29.655  29.535  26.741  0.00  0.00     0.078 H 
ATOM     43  C20 Y8L d          27.623  32.124  26.274  0.00  0.00     0.096 C 
ATOM     44  H5  Y8L d          29.644  31.965  26.414  0.00  0.00     0.277 HD
ATOM     45  H6  Y8L d          28.841  31.457  27.758  0.00  0.00     0.277 HD
ATOM     46  C21 Y8L d          26.447  31.604  27.103  0.00  0.00     0.018 C 
ATOM     47  H7  Y8L d          27.463  31.887  25.212  0.00  0.00     0.078 H 
ATOM     48  H8  Y8L d          27.714  33.213  26.399  0.00  0.00     0.078 H 
ATOM     49  H9  Y8L d          25.505  31.922  26.633  0.00  0.00     0.066 H 
ATOM     50  H10 Y8L d          26.510  32.020  28.119  0.00  0.00     0.066 H 
ENDBRANCH   1  35
TORSDOF 6
ENDMDL
MODEL 8
REMARK VINA RESULT:      -6.2      3.603      9.191
REMARK  6 active torsions:
REMARK  status: ('A' for Active; 'I' for Inactive)
REMARK    1  A    between atoms: N16_6  and  C12_7 
REMARK    2  A    between atoms: C9_12  and  N7_13 
REMARK    3  A    between atoms: N7_13  and  C4_14 
REMARK    4  A    between atoms: C6_19  and  C15_20 
REMARK    5  A    between atoms: N25_24  and  C29_25 
REMARK    6  A    between atoms: C26_26  and  C27_27 
ROOT
ATOM      1  C12 Y8L d          26.790  28.401  25.687  0.00  0.00     0.030 A 
ATOM      2  C13 Y8L d          26.829  27.906  24.382  0.00  0.00    -0.055 A 
ATOM      3  C14 Y8L d          26.582  26.552  24.115  0.00  0.00    -0.054 A 
ATOM      4  C11 Y8L d          26.467  27.531  26.725  0.00  0.00    -0.055 A 
ATOM      5  C10 Y8L d          26.196  26.188  26.436  0.00  0.00    -0.054 A 
ATOM      6  C9  Y8L d          26.272  25.670  25.140  0.00  0.00     0.049 A 
ATOM      7  H11 Y8L d          27.053  28.579  23.562  0.00  0.00     0.087 H 
ATOM      8  H12 Y8L d          26.633  26.190  23.095  0.00  0.00     0.087 H 
ATOM      9  H13 Y8L d          26.425  27.890  27.747  0.00  0.00     0.087 H 
ATOM     10  H14 Y8L d          25.917  25.525  27.247  0.00  0.00     0.087 H 
ENDROOT
BRANCH   6  11
ATOM     11  N7  Y8L d          25.994  24.367  24.950  0.00  0.00    -0.188 N 
ATOM     12  H15 Y8L d          26.766  23.784  24.595  0.00  0.00     0.184 HD
BRANCH  11  13
ATOM     13  C4  Y8L d          24.826  23.735  25.170  0.00  0.00     0.727 A 
ATOM     14  N5  Y8L d          23.990  23.998  26.198  0.00  0.00    -0.061 NA
ATOM     15  C6  Y8L d          22.839  23.318  26.375  0.00  0.00     0.096 A 
ATOM     16  C1  Y8L d          22.466  22.385  25.406  0.00  0.00    -0.036 A 
ATOM     17  C2  Y8L d          23.311  22.162  24.333  0.00  0.00     0.023 A 
ATOM     18  H17 Y8L d          21.530  21.845  25.493  0.00  0.00     0.089 H 
ATOM     19  N3  Y8L d          24.445  22.840  24.239  0.00  0.00    -0.075 NA
ATOM     20  H16 Y8L d          23.046  21.436  23.573  0.00  0.00     0.115 H 
BRANCH  15  21
ATOM     21  C15 Y8L d          21.948  23.604  27.423  0.00  0.00     0.062 A 
ATOM     22  S23 Y8L d          20.832  24.913  27.496  0.00  0.00    -0.025 SA
ATOM     23  C24 Y8L d          20.338  24.556  29.076  0.00  0.00     0.291 A 
ATOM     24  O28 Y8L d          19.471  25.152  29.710  0.00  0.00    -0.259 OA
ATOM     25  N25 Y8L d          20.974  23.466  29.511  0.00  0.00    -0.316 N 
ATOM     26  C26 Y8L d          21.852  22.931  28.653  0.00  0.00     0.030 A 
BRANCH  25  27
ATOM     27  C29 Y8L d          20.718  22.894  30.864  0.00  0.00    -0.011 C 
ATOM     28  H18 Y8L d          20.644  21.800  30.791  0.00  0.00     0.057 H 
ATOM     29  H19 Y8L d          19.775  23.300  31.261  0.00  0.00     0.057 H 
ATOM     30  H20 Y8L d          21.545  23.162  31.537  0.00  0.00     0.057 H 
ENDBRANCH  25  27
BRANCH  26  31
ATOM     31  C27 Y8L d          22.652  21.675  29.012  0.00  0.00    -0.036 C 
ATOM     32  H21 Y8L d          23.493  21.564  28.313  0.00  0.00     0.035 H 
ATOM     33  H22 Y8L d          22.000  20.792  28.943  0.00  0.00     0.035 H 
ATOM     34  H23 Y8L d          23.038  21.768  30.038  0.00  0.00     0.035 H 
ENDBRANCH  26  31
ENDBRANCH  15  21
ENDBRANCH  11  13
ENDBRANCH   6  11
BRANCH   1  35
ATOM     35  N16 Y8L d          27.089  29.754  25.961  0.00  0.00    -0.378 N 
ATOM     36  C17 Y8L d          28.220  30.386  25.253  0.00  0.00     0.018 C 
ATOM     37  C18 Y8L d          28.740  31.697  25.872  0.00  0.00     0.096 C 
ATOM     38  H1  Y8L d          29.052  29.666  25.233  0.00  0.00     0.066 H 
ATOM     39  H2  Y8L d          27.898  30.602  24.223  0.00  0.00     0.066 H 
ATOM     40  N19 Y8L d          27.992  32.091  27.076  0.00  0.00    -0.072 N 
ATOM     41  H3  Y8L d          28.652  32.499  25.125  0.00  0.00     0.078 H 
ATOM     42  H4  Y8L d          29.798  31.563  26.143  0.00  0.00     0.078 H 
ATOM     43  C20 Y8L d          26.568  32.026  26.775  0.00  0.00     0.096 C 
ATOM     44  H5  Y8L d          28.242  33.032  27.339  0.00  0.00     0.277 HD
ATOM     45  H6  Y8L d          28.209  31.462  27.832  0.00  0.00     0.277 HD
ATOM     46  C21 Y8L d          26.153  30.554  26.770  0.00  0.00     0.018 C 
ATOM     47  H7  Y8L d          26.375  32.471  25.788  0.00  0.00     0.078 H 
ATOM     48  H8  Y8L d          25.999  32.572  27.542  0.00  0.00     0.078 H 
ATOM     49  H9  Y8L d          25.142  30.466  26.347  0.00  0.00     0.066 H 
ATOM     50  H10 Y8L d          26.153  30.175  27.803  0.00  0.00     0.066 H 
ENDBRANCH   1  35
TORSDOF 6
ENDMDL
