MODEL 1
REMARK VINA RESULT:      -7.9      0.000      0.000
REMARK  11 active torsions:
REMARK  status: ('A' for Active; 'I' for Inactive)
REMARK    1  A    between atoms: C2_1  and  C1_2 
REMARK    2  A    between atoms: C1_2  and  C3_3 
REMARK    3  A    between atoms: C3_3  and  C4_4 
REMARK       I    between atoms: C4_4  and  N1_6 
REMARK    4  A    between atoms: N1_6  and  C5_7 
REMARK    5  A    between atoms: C6_8  and  O2_9 
REMARK    6  A    between atoms: C7_10  and  O3_11 
REMARK    7  A    between atoms: C8_12  and  C9_13 
REMARK    8  A    between atoms: C9_13  and  O4_14 
REMARK    9  A    between atoms: N2_17  and  O6_18 
REMARK   10  A    between atoms: O6_18  and  C11_19 
REMARK       I    between atoms: C11_19  and  N3_21 
REMARK   11  A    between atoms: N3_21  and  C12_22 
ROOT
ATOM      1  C5  NP6 d          -8.160 -12.310   7.973  0.00  0.00     0.105 C 
ATOM      2  C6  NP6 d          -8.984 -11.890   9.203  0.00  0.00     0.089 C 
ATOM      3  C7  NP6 d          -8.132 -11.103  10.185  0.00  0.00     0.090 C 
ATOM      4  C8  NP6 d          -7.669  -9.824   9.490  0.00  0.00     0.094 C 
ATOM      5  O5  NP6 d          -6.866 -10.133   8.359  0.00  0.00    -0.324 OA
ATOM      6  C10 NP6 d          -6.950 -11.371   7.772  0.00  0.00     0.194 C 
ATOM      7  N2  NP6 d          -5.914 -11.753   7.027  0.00  0.00    -0.100 NA
ATOM      8  H9  NP6 d          -7.759 -13.314   8.174  0.00  0.00     0.090 H 
ATOM      9  H10 NP6 d          -9.818 -11.254   8.870  0.00  0.00     0.090 H 
ATOM     10  H12 NP6 d          -7.267 -11.705  10.499  0.00  0.00     0.091 H 
ATOM     11  H14 NP6 d          -8.575  -9.303   9.149  0.00  0.00     0.091 H 
ENDROOT
BRANCH   1  12
ATOM     12  N1  NP6 d          -9.017 -12.418   6.754  0.00  0.00    -0.346 N 
ATOM     13  C4  NP6 d          -9.926 -13.373   6.516  0.00  0.00     0.218 C 
ATOM     14  O1  NP6 d         -10.182 -14.306   7.284  0.00  0.00    -0.274 OA
ATOM     15  H8  NP6 d          -8.901 -11.715   6.053  0.00  0.00     0.163 HD
BRANCH  13  16
ATOM     16  C3  NP6 d         -10.656 -13.247   5.159  0.00  0.00     0.009 C 
ATOM     17  H6  NP6 d         -10.060 -13.733   4.373  0.00  0.00     0.047 H 
ATOM     18  H7  NP6 d         -11.641 -13.731   5.224  0.00  0.00     0.047 H 
BRANCH  16  19
ATOM     19  C1  NP6 d         -10.832 -11.773   4.829  0.00  0.00    -0.061 C 
ATOM     20  H4  NP6 d         -11.254 -11.263   5.707  0.00  0.00     0.033 H 
ATOM     21  H5  NP6 d          -9.847 -11.344   4.594  0.00  0.00     0.033 H 
BRANCH  19  22
ATOM     22  C2  NP6 d         -11.759 -11.547   3.641  0.00  0.00    -0.076 C 
ATOM     23  H1  NP6 d         -12.693 -11.080   3.988  0.00  0.00     0.027 H 
ATOM     24  H2  NP6 d         -11.987 -12.512   3.165  0.00  0.00     0.027 H 
ATOM     25  H3  NP6 d         -11.267 -10.886   2.912  0.00  0.00     0.027 H 
ENDBRANCH  19  22
ENDBRANCH  16  19
ENDBRANCH  13  16
ENDBRANCH   1  12
BRANCH   7  26
ATOM     26  O6  NP6 d          -4.830 -10.915   6.908  0.00  0.00    -0.153 OA
BRANCH  26  27
ATOM     27  C11 NP6 d          -3.882 -11.075   7.904  0.00  0.00     0.389 C 
ATOM     28  O7  NP6 d          -3.207 -12.111   7.946  0.00  0.00    -0.236 OA
ATOM     29  N3  NP6 d          -3.731 -10.057   8.786  0.00  0.00    -0.301 N 
ATOM     30  H18 NP6 d          -4.274  -9.241   8.589  0.00  0.00     0.171 HD
BRANCH  29  31
ATOM     31  C12 NP6 d          -2.955  -9.976   9.895  0.00  0.00     0.036 A 
ATOM     32  C13 NP6 d          -3.578 -10.105  11.142  0.00  0.00    -0.057 A 
ATOM     33  C14 NP6 d          -2.846 -10.056  12.334  0.00  0.00    -0.081 A 
ATOM     34  H19 NP6 d          -4.652 -10.246  11.185  0.00  0.00     0.086 H 
ATOM     35  C15 NP6 d          -1.458  -9.884  12.291  0.00  0.00    -0.083 A 
ATOM     36  H20 NP6 d          -3.353 -10.150  13.287  0.00  0.00     0.083 H 
ATOM     37  C16 NP6 d          -0.820  -9.776  11.053  0.00  0.00    -0.081 A 
ATOM     38  H21 NP6 d          -0.884  -9.833  13.209  0.00  0.00     0.083 H 
ATOM     39  C17 NP6 d          -1.561  -9.824   9.865  0.00  0.00    -0.057 A 
ATOM     40  H22 NP6 d           0.257  -9.656  11.012  0.00  0.00     0.083 H 
ATOM     41  H23 NP6 d          -1.051  -9.741   8.912  0.00  0.00     0.086 H 
ENDBRANCH  29  31
ENDBRANCH  26  27
ENDBRANCH   7  26
BRANCH   2  42
ATOM     42  O2  NP6 d          -9.508 -13.045   9.837  0.00  0.00    -0.390 OA
ATOM     43  H11 NP6 d         -10.208 -13.406   9.306  0.00  0.00     0.210 HD
ENDBRANCH   2  42
BRANCH   4  44
ATOM     44  C9  NP6 d          -6.852  -8.827  10.349  0.00  0.00     0.044 C 
ATOM     45  H15 NP6 d          -6.450  -8.037   9.699  0.00  0.00     0.078 H 
ATOM     46  H16 NP6 d          -6.022  -9.363  10.831  0.00  0.00     0.078 H 
BRANCH  44  47
ATOM     47  O4  NP6 d          -7.668  -8.235  11.352  0.00  0.00    -0.398 OA
ATOM     48  H17 NP6 d          -7.568  -8.716  12.166  0.00  0.00     0.209 HD
ENDBRANCH  44  47
ENDBRANCH   4  44
BRANCH   3  49
ATOM     49  O3  NP6 d          -8.908 -10.723  11.331  0.00  0.00    -0.390 OA
ATOM     50  H13 NP6 d          -8.697 -11.296  12.058  0.00  0.00     0.210 HD
ENDBRANCH   3  49
TORSDOF 11
ENDMDL
MODEL 2
REMARK VINA RESULT:      -7.4      2.893      4.368
REMARK  11 active torsions:
REMARK  status: ('A' for Active; 'I' for Inactive)
REMARK    1  A    between atoms: C2_1  and  C1_2 
REMARK    2  A    between atoms: C1_2  and  C3_3 
REMARK    3  A    between atoms: C3_3  and  C4_4 
REMARK       I    between atoms: C4_4  and  N1_6 
REMARK    4  A    between atoms: N1_6  and  C5_7 
REMARK    5  A    between atoms: C6_8  and  O2_9 
REMARK    6  A    between atoms: C7_10  and  O3_11 
REMARK    7  A    between atoms: C8_12  and  C9_13 
REMARK    8  A    between atoms: C9_13  and  O4_14 
REMARK    9  A    between atoms: N2_17  and  O6_18 
REMARK   10  A    between atoms: O6_18  and  C11_19 
REMARK       I    between atoms: C11_19  and  N3_21 
REMARK   11  A    between atoms: N3_21  and  C12_22 
ROOT
ATOM      1  C5  NP6 d          -8.386 -12.093   8.595  0.00  0.00     0.105 C 
ATOM      2  C6  NP6 d          -9.008 -10.864   9.280  0.00  0.00     0.089 C 
ATOM      3  C7  NP6 d          -8.015 -10.208  10.226  0.00  0.00     0.090 C 
ATOM      4  C8  NP6 d          -6.829  -9.716   9.399  0.00  0.00     0.094 C 
ATOM      5  O5  NP6 d          -6.177 -10.806   8.762  0.00  0.00    -0.324 OA
ATOM      6  C10 NP6 d          -6.845 -11.990   8.568  0.00  0.00     0.194 C 
ATOM      7  N2  NP6 d          -6.097 -13.076   8.378  0.00  0.00    -0.100 NA
ATOM      8  H9  NP6 d          -8.640 -12.973   9.205  0.00  0.00     0.090 H 
ATOM      9  H10 NP6 d          -9.294 -10.134   8.508  0.00  0.00     0.090 H 
ATOM     10  H12 NP6 d          -7.682 -10.933  10.983  0.00  0.00     0.091 H 
ATOM     11  H14 NP6 d          -7.237  -9.048   8.626  0.00  0.00     0.091 H 
ENDROOT
BRANCH   1  12
ATOM     12  N1  NP6 d          -8.974 -12.318   7.240  0.00  0.00    -0.346 N 
ATOM     13  C4  NP6 d          -9.751 -13.350   6.883  0.00  0.00     0.218 C 
ATOM     14  O1  NP6 d         -10.090 -14.267   7.637  0.00  0.00    -0.274 OA
ATOM     15  H8  NP6 d          -8.770 -11.638   6.537  0.00  0.00     0.163 HD
BRANCH  13  16
ATOM     16  C3  NP6 d         -10.204 -13.336   5.406  0.00  0.00     0.009 C 
ATOM     17  H6  NP6 d          -9.396 -13.724   4.768  0.00  0.00     0.047 H 
ATOM     18  H7  NP6 d         -11.098 -13.966   5.288  0.00  0.00     0.047 H 
BRANCH  16  19
ATOM     19  C1  NP6 d         -10.531 -11.907   5.002  0.00  0.00    -0.061 C 
ATOM     20  H4  NP6 d         -10.925 -11.374   5.880  0.00  0.00     0.033 H 
ATOM     21  H5  NP6 d          -9.607 -11.418   4.660  0.00  0.00     0.033 H 
BRANCH  19  22
ATOM     22  C2  NP6 d         -11.564 -11.837   3.884  0.00  0.00    -0.076 C 
ATOM     23  H1  NP6 d         -12.246 -10.993   4.069  0.00  0.00     0.027 H 
ATOM     24  H2  NP6 d         -12.138 -12.774   3.855  0.00  0.00     0.027 H 
ATOM     25  H3  NP6 d         -11.053 -11.690   2.921  0.00  0.00     0.027 H 
ENDBRANCH  19  22
ENDBRANCH  16  19
ENDBRANCH  13  16
ENDBRANCH   1  12
BRANCH   7  26
ATOM     26  O6  NP6 d          -4.727 -12.960   8.409  0.00  0.00    -0.153 OA
BRANCH  26  27
ATOM     27  C11 NP6 d          -4.136 -12.938   7.157  0.00  0.00     0.389 C 
ATOM     28  O7  NP6 d          -4.029 -11.867   6.548  0.00  0.00    -0.236 OA
ATOM     29  N3  NP6 d          -3.679 -14.116   6.667  0.00  0.00    -0.301 N 
ATOM     30  H18 NP6 d          -3.747 -14.891   7.295  0.00  0.00     0.171 HD
BRANCH  29  31
ATOM     31  C12 NP6 d          -3.145 -14.404   5.454  0.00  0.00     0.036 A 
ATOM     32  C13 NP6 d          -1.791 -14.116   5.249  0.00  0.00    -0.057 A 
ATOM     33  C14 NP6 d          -1.158 -14.403   4.034  0.00  0.00    -0.081 A 
ATOM     34  H19 NP6 d          -1.219 -13.660   6.050  0.00  0.00     0.086 H 
ATOM     35  C15 NP6 d          -1.882 -14.999   2.997  0.00  0.00    -0.083 A 
ATOM     36  H20 NP6 d          -0.110 -14.163   3.897  0.00  0.00     0.083 H 
ATOM     37  C16 NP6 d          -3.228 -15.313   3.194  0.00  0.00    -0.081 A 
ATOM     38  H21 NP6 d          -1.403 -15.215   2.048  0.00  0.00     0.083 H 
ATOM     39  C17 NP6 d          -3.855 -15.019   4.413  0.00  0.00    -0.057 A 
ATOM     40  H22 NP6 d          -3.793 -15.788   2.400  0.00  0.00     0.083 H 
ATOM     41  H23 NP6 d          -4.900 -15.271   4.552  0.00  0.00     0.086 H 
ENDBRANCH  29  31
ENDBRANCH  26  27
ENDBRANCH   7  26
BRANCH   2  42
ATOM     42  O2  NP6 d         -10.167 -11.258   9.996  0.00  0.00    -0.390 OA
ATOM     43  H11 NP6 d         -10.939 -11.063   9.479  0.00  0.00     0.210 HD
ENDBRANCH   2  42
BRANCH   4  44
ATOM     44  C9  NP6 d          -5.732  -8.934  10.162  0.00  0.00     0.044 C 
ATOM     45  H15 NP6 d          -6.028  -7.877  10.237  0.00  0.00     0.078 H 
ATOM     46  H16 NP6 d          -4.784  -9.010   9.609  0.00  0.00     0.078 H 
BRANCH  44  47
ATOM     47  O4  NP6 d          -5.551  -9.460  11.471  0.00  0.00    -0.398 OA
ATOM     48  H17 NP6 d          -6.209  -9.095  12.051  0.00  0.00     0.209 HD
ENDBRANCH  44  47
ENDBRANCH   4  44
BRANCH   3  49
ATOM     49  O3  NP6 d          -8.607  -9.068  10.865  0.00  0.00    -0.390 OA
ATOM     50  H13 NP6 d          -8.256  -8.273  10.481  0.00  0.00     0.210 HD
ENDBRANCH   3  49
TORSDOF 11
ENDMDL
MODEL 3
REMARK VINA RESULT:      -6.8      2.310      7.571
REMARK  11 active torsions:
REMARK  status: ('A' for Active; 'I' for Inactive)
REMARK    1  A    between atoms: C2_1  and  C1_2 
REMARK    2  A    between atoms: C1_2  and  C3_3 
REMARK    3  A    between atoms: C3_3  and  C4_4 
REMARK       I    between atoms: C4_4  and  N1_6 
REMARK    4  A    between atoms: N1_6  and  C5_7 
REMARK    5  A    between atoms: C6_8  and  O2_9 
REMARK    6  A    between atoms: C7_10  and  O3_11 
REMARK    7  A    between atoms: C8_12  and  C9_13 
REMARK    8  A    between atoms: C9_13  and  O4_14 
REMARK    9  A    between atoms: N2_17  and  O6_18 
REMARK   10  A    between atoms: O6_18  and  C11_19 
REMARK       I    between atoms: C11_19  and  N3_21 
REMARK   11  A    between atoms: N3_21  and  C12_22 
ROOT
ATOM      1  C5  NP6 d          -4.109 -11.406   9.472  0.00  0.00     0.105 C 
ATOM      2  C6  NP6 d          -2.741 -11.170   8.808  0.00  0.00     0.089 C 
ATOM      3  C7  NP6 d          -2.273 -12.415   8.070  0.00  0.00     0.090 C 
ATOM      4  C8  NP6 d          -3.274 -12.708   6.956  0.00  0.00     0.094 C 
ATOM      5  O5  NP6 d          -4.560 -12.974   7.497  0.00  0.00    -0.324 OA
ATOM      6  C10 NP6 d          -4.881 -12.538   8.759  0.00  0.00     0.194 C 
ATOM      7  N2  NP6 d          -5.888 -13.159   9.371  0.00  0.00    -0.100 NA
ATOM      8  H9  NP6 d          -3.920 -11.743  10.502  0.00  0.00     0.090 H 
ATOM      9  H10 NP6 d          -2.834 -10.347   8.085  0.00  0.00     0.090 H 
ATOM     10  H12 NP6 d          -2.212 -13.264   8.767  0.00  0.00     0.091 H 
ATOM     11  H14 NP6 d          -3.333 -11.802   6.335  0.00  0.00     0.091 H 
ENDROOT
BRANCH   1  12
ATOM     12  N1  NP6 d          -4.895 -10.139   9.565  0.00  0.00    -0.346 N 
ATOM     13  C4  NP6 d          -4.752  -9.194  10.504  0.00  0.00     0.218 C 
ATOM     14  O1  NP6 d          -3.939  -9.244  11.432  0.00  0.00    -0.274 OA
ATOM     15  H8  NP6 d          -5.590  -9.982   8.864  0.00  0.00     0.163 HD
BRANCH  13  16
ATOM     16  C3  NP6 d          -5.716  -7.994  10.365  0.00  0.00     0.009 C 
ATOM     17  H6  NP6 d          -5.863  -7.522  11.347  0.00  0.00     0.047 H 
ATOM     18  H7  NP6 d          -5.291  -7.259   9.666  0.00  0.00     0.047 H 
BRANCH  16  19
ATOM     19  C1  NP6 d          -7.050  -8.491   9.832  0.00  0.00    -0.061 C 
ATOM     20  H4  NP6 d          -7.496  -7.704   9.207  0.00  0.00     0.033 H 
ATOM     21  H5  NP6 d          -6.873  -9.388   9.220  0.00  0.00     0.033 H 
BRANCH  19  22
ATOM     22  C2  NP6 d          -8.029  -8.845  10.945  0.00  0.00    -0.076 C 
ATOM     23  H1  NP6 d          -7.762  -9.824  11.370  0.00  0.00     0.027 H 
ATOM     24  H2  NP6 d          -9.049  -8.887  10.537  0.00  0.00     0.027 H 
ATOM     25  H3  NP6 d          -7.981  -8.079  11.733  0.00  0.00     0.027 H 
ENDBRANCH  19  22
ENDBRANCH  16  19
ENDBRANCH  13  16
ENDBRANCH   1  12
BRANCH   7  26
ATOM     26  O6  NP6 d          -6.524 -14.197   8.729  0.00  0.00    -0.153 OA
BRANCH  26  27
ATOM     27  C11 NP6 d          -7.768 -13.866   8.221  0.00  0.00     0.389 C 
ATOM     28  O7  NP6 d          -8.789 -14.276   8.785  0.00  0.00    -0.236 OA
ATOM     29  N3  NP6 d          -7.798 -13.078   7.118  0.00  0.00    -0.301 N 
ATOM     30  H18 NP6 d          -6.907 -12.743   6.812  0.00  0.00     0.171 HD
BRANCH  29  31
ATOM     31  C12 NP6 d          -8.852 -12.676   6.366  0.00  0.00     0.036 A 
ATOM     32  C13 NP6 d          -9.140 -11.307   6.322  0.00  0.00    -0.057 A 
ATOM     33  C14 NP6 d         -10.197 -10.806   5.552  0.00  0.00    -0.081 A 
ATOM     34  H19 NP6 d          -8.532 -10.618   6.897  0.00  0.00     0.086 H 
ATOM     35  C15 NP6 d         -10.984 -11.684   4.798  0.00  0.00    -0.083 A 
ATOM     36  H20 NP6 d         -10.405  -9.743   5.540  0.00  0.00     0.083 H 
ATOM     37  C16 NP6 d         -10.694 -13.050   4.814  0.00  0.00    -0.081 A 
ATOM     38  H21 NP6 d         -11.811 -11.307   4.207  0.00  0.00     0.083 H 
ATOM     39  C17 NP6 d          -9.636 -13.542   5.591  0.00  0.00    -0.057 A 
ATOM     40  H22 NP6 d         -11.291 -13.734   4.222  0.00  0.00     0.083 H 
ATOM     41  H23 NP6 d          -9.421 -14.605   5.592  0.00  0.00     0.086 H 
ENDBRANCH  29  31
ENDBRANCH  26  27
ENDBRANCH   7  26
BRANCH   2  42
ATOM     42  O2  NP6 d          -1.791 -10.811   9.798  0.00  0.00    -0.390 OA
ATOM     43  H11 NP6 d          -0.917 -11.005   9.481  0.00  0.00     0.210 HD
ENDBRANCH   2  42
BRANCH   4  44
ATOM     44  C9  NP6 d          -2.938 -13.895   6.019  0.00  0.00     0.044 C 
ATOM     45  H15 NP6 d          -2.332 -13.530   5.177  0.00  0.00     0.078 H 
ATOM     46  H16 NP6 d          -3.874 -14.328   5.637  0.00  0.00     0.078 H 
BRANCH  44  47
ATOM     47  O4  NP6 d          -2.210 -14.899   6.715  0.00  0.00    -0.398 OA
ATOM     48  H17 NP6 d          -1.716 -15.420   6.092  0.00  0.00     0.209 HD
ENDBRANCH  44  47
ENDBRANCH   4  44
BRANCH   3  49
ATOM     49  O3  NP6 d          -0.993 -12.187   7.462  0.00  0.00    -0.390 OA
ATOM     50  H13 NP6 d          -0.321 -12.632   7.965  0.00  0.00     0.210 HD
ENDBRANCH   3  49
TORSDOF 11
ENDMDL
MODEL 4
REMARK VINA RESULT:      -6.5      2.178      2.920
REMARK  11 active torsions:
REMARK  status: ('A' for Active; 'I' for Inactive)
REMARK    1  A    between atoms: C2_1  and  C1_2 
REMARK    2  A    between atoms: C1_2  and  C3_3 
REMARK    3  A    between atoms: C3_3  and  C4_4 
REMARK       I    between atoms: C4_4  and  N1_6 
REMARK    4  A    between atoms: N1_6  and  C5_7 
REMARK    5  A    between atoms: C6_8  and  O2_9 
REMARK    6  A    between atoms: C7_10  and  O3_11 
REMARK    7  A    between atoms: C8_12  and  C9_13 
REMARK    8  A    between atoms: C9_13  and  O4_14 
REMARK    9  A    between atoms: N2_17  and  O6_18 
REMARK   10  A    between atoms: O6_18  and  C11_19 
REMARK       I    between atoms: C11_19  and  N3_21 
REMARK   11  A    between atoms: N3_21  and  C12_22 
ROOT
ATOM      1  C5  NP6 d          -8.158 -12.398   8.837  0.00  0.00     0.105 C 
ATOM      2  C6  NP6 d          -8.561 -11.108   9.572  0.00  0.00     0.089 C 
ATOM      3  C7  NP6 d          -7.553 -10.762  10.656  0.00  0.00     0.090 C 
ATOM      4  C8  NP6 d          -6.208 -10.499   9.983  0.00  0.00     0.094 C 
ATOM      5  O5  NP6 d          -5.750 -11.664   9.310  0.00  0.00    -0.324 OA
ATOM      6  C10 NP6 d          -6.639 -12.648   8.953  0.00  0.00     0.194 C 
ATOM      7  N2  NP6 d          -6.133 -13.861   8.732  0.00  0.00    -0.100 NA
ATOM      8  H9  NP6 d          -8.662 -13.235   9.341  0.00  0.00     0.090 H 
ATOM      9  H10 NP6 d          -8.597 -10.282   8.847  0.00  0.00     0.090 H 
ATOM     10  H12 NP6 d          -7.470 -11.593  11.372  0.00  0.00     0.091 H 
ATOM     11  H14 NP6 d          -6.374  -9.705   9.241  0.00  0.00     0.091 H 
ENDROOT
BRANCH   1  12
ATOM     12  N1  NP6 d          -8.636 -12.390   7.421  0.00  0.00    -0.346 N 
ATOM     13  C4  NP6 d          -9.573 -13.197   6.904  0.00  0.00     0.218 C 
ATOM     14  O1  NP6 d         -10.176 -14.068   7.539  0.00  0.00    -0.274 OA
ATOM     15  H8  NP6 d          -8.219 -11.724   6.804  0.00  0.00     0.163 HD
BRANCH  13  16
ATOM     16  C3  NP6 d          -9.856 -12.979   5.401  0.00  0.00     0.009 C 
ATOM     17  H6  NP6 d          -8.906 -12.949   4.847  0.00  0.00     0.047 H 
ATOM     18  H7  NP6 d         -10.477 -13.801   5.019  0.00  0.00     0.047 H 
BRANCH  16  19
ATOM     19  C1  NP6 d         -10.592 -11.660   5.224  0.00  0.00    -0.061 C 
ATOM     20  H4  NP6 d         -11.200 -11.472   6.120  0.00  0.00     0.033 H 
ATOM     21  H5  NP6 d          -9.850 -10.855   5.108  0.00  0.00     0.033 H 
BRANCH  19  22
ATOM     22  C2  NP6 d         -11.506 -11.660   4.005  0.00  0.00    -0.076 C 
ATOM     23  H1  NP6 d         -11.404 -12.617   3.470  0.00  0.00     0.027 H 
ATOM     24  H2  NP6 d         -11.224 -10.834   3.335  0.00  0.00     0.027 H 
ATOM     25  H3  NP6 d         -12.549 -11.529   4.328  0.00  0.00     0.027 H 
ENDBRANCH  19  22
ENDBRANCH  16  19
ENDBRANCH  13  16
ENDBRANCH   1  12
BRANCH   7  26
ATOM     26  O6  NP6 d          -4.782 -14.063   8.893  0.00  0.00    -0.153 OA
BRANCH  26  27
ATOM     27  C11 NP6 d          -4.003 -13.458   7.922  0.00  0.00     0.389 C 
ATOM     28  O7  NP6 d          -4.280 -13.617   6.727  0.00  0.00    -0.236 OA
ATOM     29  N3  NP6 d          -2.968 -12.692   8.346  0.00  0.00    -0.301 N 
ATOM     30  H18 NP6 d          -2.906 -12.574   9.337  0.00  0.00     0.171 HD
BRANCH  29  31
ATOM     31  C12 NP6 d          -2.003 -12.062   7.631  0.00  0.00     0.036 A 
ATOM     32  C13 NP6 d          -2.010 -10.662   7.613  0.00  0.00    -0.057 A 
ATOM     33  C14 NP6 d          -1.037  -9.935   6.918  0.00  0.00    -0.081 A 
ATOM     34  H19 NP6 d          -2.787 -10.129   8.149  0.00  0.00     0.086 H 
ATOM     35  C15 NP6 d          -0.024 -10.612   6.229  0.00  0.00    -0.083 A 
ATOM     36  H20 NP6 d          -1.067  -8.852   6.913  0.00  0.00     0.083 H 
ATOM     37  C16 NP6 d           0.009 -12.007   6.257  0.00  0.00    -0.081 A 
ATOM     38  H21 NP6 d           0.728 -10.058   5.679  0.00  0.00     0.083 H 
ATOM     39  C17 NP6 d          -0.972 -12.727   6.953  0.00  0.00    -0.057 A 
ATOM     40  H22 NP6 d           0.798 -12.538   5.737  0.00  0.00     0.083 H 
ATOM     41  H23 NP6 d          -0.933 -13.810   6.967  0.00  0.00     0.086 H 
ENDBRANCH  29  31
ENDBRANCH  26  27
ENDBRANCH   7  26
BRANCH   2  42
ATOM     42  O2  NP6 d          -9.847 -11.274  10.147  0.00  0.00    -0.390 OA
ATOM     43  H11 NP6 d         -10.142 -10.446  10.507  0.00  0.00     0.210 HD
ENDBRANCH   2  42
BRANCH   4  44
ATOM     44  C9  NP6 d          -5.051 -10.042  10.905  0.00  0.00     0.044 C 
ATOM     45  H15 NP6 d          -5.347 -10.186  11.955  0.00  0.00     0.078 H 
ATOM     46  H16 NP6 d          -4.846  -8.977  10.726  0.00  0.00     0.078 H 
BRANCH  44  47
ATOM     47  O4  NP6 d          -3.871 -10.793  10.648  0.00  0.00    -0.398 OA
ATOM     48  H17 NP6 d          -3.372 -10.371   9.959  0.00  0.00     0.209 HD
ENDBRANCH  44  47
ENDBRANCH   4  44
BRANCH   3  49
ATOM     49  O3  NP6 d          -7.942  -9.563  11.341  0.00  0.00    -0.390 OA
ATOM     50  H13 NP6 d          -8.606  -9.771  11.988  0.00  0.00     0.210 HD
ENDBRANCH   3  49
TORSDOF 11
ENDMDL
MODEL 5
REMARK VINA RESULT:      -6.4      2.489      6.935
REMARK  11 active torsions:
REMARK  status: ('A' for Active; 'I' for Inactive)
REMARK    1  A    between atoms: C2_1  and  C1_2 
REMARK    2  A    between atoms: C1_2  and  C3_3 
REMARK    3  A    between atoms: C3_3  and  C4_4 
REMARK       I    between atoms: C4_4  and  N1_6 
REMARK    4  A    between atoms: N1_6  and  C5_7 
REMARK    5  A    between atoms: C6_8  and  O2_9 
REMARK    6  A    between atoms: C7_10  and  O3_11 
REMARK    7  A    between atoms: C8_12  and  C9_13 
REMARK    8  A    between atoms: C9_13  and  O4_14 
REMARK    9  A    between atoms: N2_17  and  O6_18 
REMARK   10  A    between atoms: O6_18  and  C11_19 
REMARK       I    between atoms: C11_19  and  N3_21 
REMARK   11  A    between atoms: N3_21  and  C12_22 
ROOT
ATOM      1  C5  NP6 d          -3.606 -11.609   7.992  0.00  0.00     0.105 C 
ATOM      2  C6  NP6 d          -2.429 -11.848   8.954  0.00  0.00     0.089 C 
ATOM      3  C7  NP6 d          -2.624 -11.082  10.253  0.00  0.00     0.090 C 
ATOM      4  C8  NP6 d          -3.882 -11.618  10.933  0.00  0.00     0.094 C 
ATOM      5  O5  NP6 d          -5.024 -11.398  10.116  0.00  0.00    -0.324 OA
ATOM      6  C10 NP6 d          -4.876 -11.192   8.766  0.00  0.00     0.194 C 
ATOM      7  N2  NP6 d          -5.880 -10.580   8.140  0.00  0.00    -0.100 NA
ATOM      8  H9  NP6 d          -3.333 -10.765   7.342  0.00  0.00     0.090 H 
ATOM      9  H10 NP6 d          -2.371 -12.922   9.183  0.00  0.00     0.090 H 
ATOM     10  H12 NP6 d          -2.727 -10.007  10.044  0.00  0.00     0.091 H 
ATOM     11  H14 NP6 d          -3.739 -12.701  11.056  0.00  0.00     0.091 H 
ENDROOT
BRANCH   1  12
ATOM     12  N1  NP6 d          -3.832 -12.789   7.103  0.00  0.00    -0.346 N 
ATOM     13  C4  NP6 d          -4.185 -14.018   7.504  0.00  0.00     0.218 C 
ATOM     14  O1  NP6 d          -4.373 -14.345   8.680  0.00  0.00    -0.274 OA
ATOM     15  H8  NP6 d          -3.709 -12.648   6.121  0.00  0.00     0.163 HD
BRANCH  13  16
ATOM     16  C3  NP6 d          -4.331 -15.052   6.366  0.00  0.00     0.009 C 
ATOM     17  H6  NP6 d          -4.145 -16.062   6.759  0.00  0.00     0.047 H 
ATOM     18  H7  NP6 d          -5.347 -15.001   5.949  0.00  0.00     0.047 H 
BRANCH  16  19
ATOM     19  C1  NP6 d          -3.317 -14.734   5.277  0.00  0.00    -0.061 C 
ATOM     20  H4  NP6 d          -3.117 -13.653   5.287  0.00  0.00     0.033 H 
ATOM     21  H5  NP6 d          -2.387 -15.281   5.491  0.00  0.00     0.033 H 
BRANCH  19  22
ATOM     22  C2  NP6 d          -3.808 -15.128   3.889  0.00  0.00    -0.076 C 
ATOM     23  H1  NP6 d          -4.517 -14.370   3.523  0.00  0.00     0.027 H 
ATOM     24  H2  NP6 d          -4.308 -16.105   3.941  0.00  0.00     0.027 H 
ATOM     25  H3  NP6 d          -2.951 -15.190   3.202  0.00  0.00     0.027 H 
ENDBRANCH  19  22
ENDBRANCH  16  19
ENDBRANCH  13  16
ENDBRANCH   1  12
BRANCH   7  26
ATOM     26  O6  NP6 d          -6.976 -10.176   8.866  0.00  0.00    -0.153 OA
BRANCH  26  27
ATOM     27  C11 NP6 d          -8.181 -10.650   8.377  0.00  0.00     0.389 C 
ATOM     28  O7  NP6 d          -9.203 -10.552   9.067  0.00  0.00    -0.236 OA
ATOM     29  N3  NP6 d          -8.176 -11.192   7.135  0.00  0.00    -0.301 N 
ATOM     30  H18 NP6 d          -7.305 -11.131   6.649  0.00  0.00     0.171 HD
BRANCH  29  31
ATOM     31  C12 NP6 d          -9.174 -11.803   6.450  0.00  0.00     0.036 A 
ATOM     32  C13 NP6 d          -9.920 -11.033   5.550  0.00  0.00    -0.057 A 
ATOM     33  C14 NP6 d         -10.952 -11.593   4.788  0.00  0.00    -0.081 A 
ATOM     34  H19 NP6 d          -9.694  -9.978   5.442  0.00  0.00     0.086 H 
ATOM     35  C15 NP6 d         -11.248 -12.955   4.913  0.00  0.00    -0.083 A 
ATOM     36  H20 NP6 d         -11.520 -10.973   4.104  0.00  0.00     0.083 H 
ATOM     37  C16 NP6 d         -10.497 -13.741   5.789  0.00  0.00    -0.081 A 
ATOM     38  H21 NP6 d         -12.052 -13.395   4.334  0.00  0.00     0.083 H 
ATOM     39  C17 NP6 d          -9.468 -13.170   6.551  0.00  0.00    -0.057 A 
ATOM     40  H22 NP6 d         -10.711 -14.799   5.881  0.00  0.00     0.083 H 
ATOM     41  H23 NP6 d          -8.892 -13.794   7.225  0.00  0.00     0.086 H 
ENDBRANCH  29  31
ENDBRANCH  26  27
ENDBRANCH   7  26
BRANCH   2  42
ATOM     42  O2  NP6 d          -1.221 -11.442   8.332  0.00  0.00    -0.390 OA
ATOM     43  H11 NP6 d          -1.207 -11.755   7.436  0.00  0.00     0.210 HD
ENDBRANCH   2  42
BRANCH   4  44
ATOM     44  C9  NP6 d          -4.219 -11.029  12.325  0.00  0.00     0.044 C 
ATOM     45  H15 NP6 d          -3.599 -11.526  13.086  0.00  0.00     0.078 H 
ATOM     46  H16 NP6 d          -5.282 -11.208  12.544  0.00  0.00     0.078 H 
BRANCH  44  47
ATOM     47  O4  NP6 d          -3.966  -9.630  12.358  0.00  0.00    -0.398 OA
ATOM     48  H17 NP6 d          -4.029  -9.320  13.255  0.00  0.00     0.209 HD
ENDBRANCH  44  47
ENDBRANCH   4  44
BRANCH   3  49
ATOM     49  O3  NP6 d          -1.518 -11.306  11.138  0.00  0.00    -0.390 OA
ATOM     50  H13 NP6 d          -1.121 -12.146  10.942  0.00  0.00     0.210 HD
ENDBRANCH   3  49
TORSDOF 11
ENDMDL
MODEL 6
REMARK VINA RESULT:      -6.0      2.045      7.973
REMARK  11 active torsions:
REMARK  status: ('A' for Active; 'I' for Inactive)
REMARK    1  A    between atoms: C2_1  and  C1_2 
REMARK    2  A    between atoms: C1_2  and  C3_3 
REMARK    3  A    between atoms: C3_3  and  C4_4 
REMARK       I    between atoms: C4_4  and  N1_6 
REMARK    4  A    between atoms: N1_6  and  C5_7 
REMARK    5  A    between atoms: C6_8  and  O2_9 
REMARK    6  A    between atoms: C7_10  and  O3_11 
REMARK    7  A    between atoms: C8_12  and  C9_13 
REMARK    8  A    between atoms: C9_13  and  O4_14 
REMARK    9  A    between atoms: N2_17  and  O6_18 
REMARK   10  A    between atoms: O6_18  and  C11_19 
REMARK       I    between atoms: C11_19  and  N3_21 
REMARK   11  A    between atoms: N3_21  and  C12_22 
ROOT
ATOM      1  C5  NP6 d          -4.244 -11.423  11.164  0.00  0.00     0.105 C 
ATOM      2  C6  NP6 d          -3.503 -12.633  10.567  0.00  0.00     0.089 C 
ATOM      3  C7  NP6 d          -4.196 -13.126   9.306  0.00  0.00     0.090 C 
ATOM      4  C8  NP6 d          -4.145 -12.005   8.270  0.00  0.00     0.094 C 
ATOM      5  O5  NP6 d          -4.844 -10.860   8.738  0.00  0.00    -0.324 OA
ATOM      6  C10 NP6 d          -5.067 -10.691  10.082  0.00  0.00     0.194 C 
ATOM      7  N2  NP6 d          -6.061  -9.873  10.427  0.00  0.00    -0.100 NA
ATOM      8  H9  NP6 d          -4.958 -11.809  11.907  0.00  0.00     0.090 H 
ATOM      9  H10 NP6 d          -2.478 -12.330  10.310  0.00  0.00     0.090 H 
ATOM     10  H12 NP6 d          -5.238 -13.396   9.531  0.00  0.00     0.091 H 
ATOM     11  H14 NP6 d          -3.085 -11.743   8.139  0.00  0.00     0.091 H 
ENDROOT
BRANCH   1  12
ATOM     12  N1  NP6 d          -3.306 -10.515  11.891  0.00  0.00    -0.346 N 
ATOM     13  C4  NP6 d          -2.231  -9.913  11.366  0.00  0.00     0.218 C 
ATOM     14  O1  NP6 d          -1.865 -10.029  10.192  0.00  0.00    -0.274 OA
ATOM     15  H8  NP6 d          -3.499 -10.342  12.857  0.00  0.00     0.163 HD
BRANCH  13  16
ATOM     16  C3  NP6 d          -1.429  -9.041  12.358  0.00  0.00     0.009 C 
ATOM     17  H6  NP6 d          -1.958  -8.092  12.527  0.00  0.00     0.047 H 
ATOM     18  H7  NP6 d          -1.320  -9.575  13.314  0.00  0.00     0.047 H 
BRANCH  16  19
ATOM     19  C1  NP6 d          -0.055  -8.762  11.771  0.00  0.00    -0.061 C 
ATOM     20  H4  NP6 d           0.706  -8.976  12.536  0.00  0.00     0.033 H 
ATOM     21  H5  NP6 d           0.100  -9.423  10.906  0.00  0.00     0.033 H 
BRANCH  19  22
ATOM     22  C2  NP6 d           0.104  -7.317  11.315  0.00  0.00    -0.076 C 
ATOM     23  H1  NP6 d          -0.036  -7.259  10.225  0.00  0.00     0.027 H 
ATOM     24  H2  NP6 d           1.110  -6.958  11.576  0.00  0.00     0.027 H 
ATOM     25  H3  NP6 d          -0.650  -6.690  11.814  0.00  0.00     0.027 H 
ENDBRANCH  19  22
ENDBRANCH  16  19
ENDBRANCH  13  16
ENDBRANCH   1  12
BRANCH   7  26
ATOM     26  O6  NP6 d          -6.808  -9.274   9.439  0.00  0.00    -0.153 OA
BRANCH  26  27
ATOM     27  C11 NP6 d          -7.838 -10.062   8.956  0.00  0.00     0.389 C 
ATOM     28  O7  NP6 d          -8.760 -10.395   9.709  0.00  0.00    -0.236 OA
ATOM     29  N3  NP6 d          -7.785 -10.419   7.649  0.00  0.00    -0.301 N 
ATOM     30  H18 NP6 d          -7.034 -10.012   7.129  0.00  0.00     0.171 HD
BRANCH  29  31
ATOM     31  C12 NP6 d          -8.595 -11.243   6.939  0.00  0.00     0.036 A 
ATOM     32  C13 NP6 d          -9.560 -10.659   6.111  0.00  0.00    -0.057 A 
ATOM     33  C14 NP6 d         -10.421 -11.439   5.329  0.00  0.00    -0.081 A 
ATOM     34  H19 NP6 d          -9.644  -9.579   6.074  0.00  0.00     0.086 H 
ATOM     35  C15 NP6 d         -10.317 -12.834   5.360  0.00  0.00    -0.083 A 
ATOM     36  H20 NP6 d         -11.165 -10.963   4.701  0.00  0.00     0.083 H 
ATOM     37  C16 NP6 d          -9.343 -13.429   6.165  0.00  0.00    -0.081 A 
ATOM     38  H21 NP6 d         -10.986 -13.446   4.766  0.00  0.00     0.083 H 
ATOM     39  C17 NP6 d          -8.489 -12.641   6.947  0.00  0.00    -0.057 A 
ATOM     40  H22 NP6 d          -9.248 -14.509   6.185  0.00  0.00     0.083 H 
ATOM     41  H23 NP6 d          -7.736 -13.118   7.566  0.00  0.00     0.086 H 
ENDBRANCH  29  31
ENDBRANCH  26  27
ENDBRANCH   7  26
BRANCH   2  42
ATOM     42  O2  NP6 d          -3.451 -13.676  11.527  0.00  0.00    -0.390 OA
ATOM     43  H11 NP6 d          -2.712 -13.534  12.106  0.00  0.00     0.210 HD
ENDBRANCH   2  42
BRANCH   4  44
ATOM     44  C9  NP6 d          -4.723 -12.331   6.871  0.00  0.00     0.044 C 
ATOM     45  H15 NP6 d          -4.773 -11.406   6.277  0.00  0.00     0.078 H 
ATOM     46  H16 NP6 d          -5.734 -12.747   6.987  0.00  0.00     0.078 H 
BRANCH  44  47
ATOM     47  O4  NP6 d          -3.906 -13.277   6.192  0.00  0.00    -0.398 OA
ATOM     48  H17 NP6 d          -4.182 -14.156   6.424  0.00  0.00     0.209 HD
ENDBRANCH  44  47
ENDBRANCH   4  44
BRANCH   3  49
ATOM     49  O3  NP6 d          -3.502 -14.258   8.762  0.00  0.00    -0.390 OA
ATOM     50  H13 NP6 d          -3.963 -14.570   7.992  0.00  0.00     0.210 HD
ENDBRANCH   3  49
TORSDOF 11
ENDMDL
MODEL 7
REMARK VINA RESULT:      -5.9      2.221      4.743
REMARK  11 active torsions:
REMARK  status: ('A' for Active; 'I' for Inactive)
REMARK    1  A    between atoms: C2_1  and  C1_2 
REMARK    2  A    between atoms: C1_2  and  C3_3 
REMARK    3  A    between atoms: C3_3  and  C4_4 
REMARK       I    between atoms: C4_4  and  N1_6 
REMARK    4  A    between atoms: N1_6  and  C5_7 
REMARK    5  A    between atoms: C6_8  and  O2_9 
REMARK    6  A    between atoms: C7_10  and  O3_11 
REMARK    7  A    between atoms: C8_12  and  C9_13 
REMARK    8  A    between atoms: C9_13  and  O4_14 
REMARK    9  A    between atoms: N2_17  and  O6_18 
REMARK   10  A    between atoms: O6_18  and  C11_19 
REMARK       I    between atoms: C11_19  and  N3_21 
REMARK   11  A    between atoms: N3_21  and  C12_22 
ROOT
ATOM      1  C5  NP6 d          -8.447 -13.831   8.818  0.00  0.00     0.105 C 
ATOM      2  C6  NP6 d          -9.195 -14.438   7.618  0.00  0.00     0.089 C 
ATOM      3  C7  NP6 d         -10.109 -13.410   6.970  0.00  0.00     0.090 C 
ATOM      4  C8  NP6 d          -9.239 -12.275   6.435  0.00  0.00     0.094 C 
ATOM      5  O5  NP6 d          -8.541 -11.638   7.497  0.00  0.00    -0.324 OA
ATOM      6  C10 NP6 d          -8.347 -12.295   8.687  0.00  0.00     0.194 C 
ATOM      7  N2  NP6 d          -8.091 -11.540   9.754  0.00  0.00    -0.100 NA
ATOM      8  H9  NP6 d          -9.044 -14.040   9.717  0.00  0.00     0.090 H 
ATOM      9  H10 NP6 d          -8.458 -14.774   6.874  0.00  0.00     0.090 H 
ATOM     10  H12 NP6 d         -10.829 -13.029   7.709  0.00  0.00     0.091 H 
ATOM     11  H14 NP6 d          -8.506 -12.731   5.754  0.00  0.00     0.091 H 
ENDROOT
BRANCH   1  12
ATOM     12  N1  NP6 d          -7.117 -14.482   9.017  0.00  0.00    -0.346 N 
ATOM     13  C4  NP6 d          -5.984 -14.166   8.374  0.00  0.00     0.218 C 
ATOM     14  O1  NP6 d          -5.886 -13.282   7.518  0.00  0.00    -0.274 OA
ATOM     15  H8  NP6 d          -7.068 -15.219   9.690  0.00  0.00     0.163 HD
BRANCH  13  16
ATOM     16  C3  NP6 d          -4.758 -15.021   8.768  0.00  0.00     0.009 C 
ATOM     17  H6  NP6 d          -5.085 -15.876   9.377  0.00  0.00     0.047 H 
ATOM     18  H7  NP6 d          -4.257 -15.387   7.861  0.00  0.00     0.047 H 
BRANCH  16  19
ATOM     19  C1  NP6 d          -3.795 -14.161   9.571  0.00  0.00    -0.061 C 
ATOM     20  H4  NP6 d          -4.320 -13.250   9.893  0.00  0.00     0.033 H 
ATOM     21  H5  NP6 d          -3.469 -14.729  10.455  0.00  0.00     0.033 H 
BRANCH  19  22
ATOM     22  C2  NP6 d          -2.564 -13.757   8.769  0.00  0.00    -0.076 C 
ATOM     23  H1  NP6 d          -1.693 -13.698   9.439  0.00  0.00     0.027 H 
ATOM     24  H2  NP6 d          -2.735 -12.776   8.302  0.00  0.00     0.027 H 
ATOM     25  H3  NP6 d          -2.374 -14.507   7.986  0.00  0.00     0.027 H 
ENDBRANCH  19  22
ENDBRANCH  16  19
ENDBRANCH  13  16
ENDBRANCH   1  12
BRANCH   7  26
ATOM     26  O6  NP6 d          -8.059 -10.172   9.614  0.00  0.00    -0.153 OA
BRANCH  26  27
ATOM     27  C11 NP6 d          -6.791  -9.658   9.401  0.00  0.00     0.389 C 
ATOM     28  O7  NP6 d          -6.626  -8.433   9.354  0.00  0.00    -0.236 OA
ATOM     29  N3  NP6 d          -5.776 -10.547   9.270  0.00  0.00    -0.301 N 
ATOM     30  H18 NP6 d          -6.028 -11.503   9.415  0.00  0.00     0.171 HD
BRANCH  29  31
ATOM     31  C12 NP6 d          -4.470 -10.336   8.971  0.00  0.00     0.036 A 
ATOM     32  C13 NP6 d          -3.561 -10.245  10.032  0.00  0.00    -0.057 A 
ATOM     33  C14 NP6 d          -2.193 -10.051   9.809  0.00  0.00    -0.081 A 
ATOM     34  H19 NP6 d          -3.926 -10.326  11.050  0.00  0.00     0.086 H 
ATOM     35  C15 NP6 d          -1.709  -9.954   8.500  0.00  0.00    -0.083 A 
ATOM     36  H20 NP6 d          -1.511  -9.976  10.648  0.00  0.00     0.083 H 
ATOM     37  C16 NP6 d          -2.601 -10.065   7.431  0.00  0.00    -0.081 A 
ATOM     38  H21 NP6 d          -0.653  -9.793   8.318  0.00  0.00     0.083 H 
ATOM     39  C17 NP6 d          -3.969 -10.256   7.664  0.00  0.00    -0.057 A 
ATOM     40  H22 NP6 d          -2.231 -10.004   6.413  0.00  0.00     0.083 H 
ATOM     41  H23 NP6 d          -4.649 -10.343   6.823  0.00  0.00     0.086 H 
ENDBRANCH  29  31
ENDBRANCH  26  27
ENDBRANCH   7  26
BRANCH   2  42
ATOM     42  O2  NP6 d          -9.956 -15.554   8.051  0.00  0.00    -0.390 OA
ATOM     43  H11 NP6 d          -9.494 -16.355   7.833  0.00  0.00     0.210 HD
ENDBRANCH   2  42
BRANCH   4  44
ATOM     44  C9  NP6 d          -9.968 -11.154   5.655  0.00  0.00     0.044 C 
ATOM     45  H15 NP6 d         -11.004 -11.467   5.458  0.00  0.00     0.078 H 
ATOM     46  H16 NP6 d          -9.450 -10.985   4.700  0.00  0.00     0.078 H 
BRANCH  44  47
ATOM     47  O4  NP6 d          -9.980  -9.943   6.400  0.00  0.00    -0.398 OA
ATOM     48  H17 NP6 d         -10.731  -9.938   6.982  0.00  0.00     0.209 HD
ENDBRANCH  44  47
ENDBRANCH   4  44
BRANCH   3  49
ATOM     49  O3  NP6 d         -10.807 -13.989   5.858  0.00  0.00    -0.390 OA
ATOM     50  H13 NP6 d         -10.327 -13.813   5.058  0.00  0.00     0.210 HD
ENDBRANCH   3  49
TORSDOF 11
ENDMDL
MODEL 8
REMARK VINA RESULT:      -5.8      2.710      7.745
REMARK  11 active torsions:
REMARK  status: ('A' for Active; 'I' for Inactive)
REMARK    1  A    between atoms: C2_1  and  C1_2 
REMARK    2  A    between atoms: C1_2  and  C3_3 
REMARK    3  A    between atoms: C3_3  and  C4_4 
REMARK       I    between atoms: C4_4  and  N1_6 
REMARK    4  A    between atoms: N1_6  and  C5_7 
REMARK    5  A    between atoms: C6_8  and  O2_9 
REMARK    6  A    between atoms: C7_10  and  O3_11 
REMARK    7  A    between atoms: C8_12  and  C9_13 
REMARK    8  A    between atoms: C9_13  and  O4_14 
REMARK    9  A    between atoms: N2_17  and  O6_18 
REMARK   10  A    between atoms: O6_18  and  C11_19 
REMARK       I    between atoms: C11_19  and  N3_21 
REMARK   11  A    between atoms: N3_21  and  C12_22 
ROOT
ATOM      1  C5  NP6 d          -2.315 -10.854   8.150  0.00  0.00     0.105 C 
ATOM      2  C6  NP6 d          -1.391 -10.283   9.241  0.00  0.00     0.089 C 
ATOM      3  C7  NP6 d          -2.192  -9.847  10.457  0.00  0.00     0.090 C 
ATOM      4  C8  NP6 d          -2.875 -11.081  11.041  0.00  0.00     0.094 C 
ATOM      5  O5  NP6 d          -3.777 -11.645  10.099  0.00  0.00    -0.324 OA
ATOM      6  C10 NP6 d          -3.635 -11.374   8.761  0.00  0.00     0.194 C 
ATOM      7  N2  NP6 d          -4.710 -11.553   7.995  0.00  0.00    -0.100 NA
ATOM      8  H9  NP6 d          -2.576 -10.026   7.475  0.00  0.00     0.090 H 
ATOM      9  H10 NP6 d          -0.680 -11.064   9.548  0.00  0.00     0.090 H 
ATOM     10  H12 NP6 d          -2.939  -9.095  10.166  0.00  0.00     0.091 H 
ATOM     11  H14 NP6 d          -2.081 -11.813  11.252  0.00  0.00     0.091 H 
ENDROOT
BRANCH   1  12
ATOM     12  N1  NP6 d          -1.614 -11.884   7.326  0.00  0.00    -0.346 N 
ATOM     13  C4  NP6 d          -0.601 -11.656   6.478  0.00  0.00     0.218 C 
ATOM     14  O1  NP6 d          -0.105 -10.546   6.262  0.00  0.00    -0.274 OA
ATOM     15  H8  NP6 d          -1.928 -12.829   7.415  0.00  0.00     0.163 HD
BRANCH  13  16
ATOM     16  C3  NP6 d          -0.079 -12.910   5.742  0.00  0.00     0.009 C 
ATOM     17  H6  NP6 d          -0.025 -12.708   4.662  0.00  0.00     0.047 H 
ATOM     18  H7  NP6 d           0.922 -13.168   6.117  0.00  0.00     0.047 H 
BRANCH  16  19
ATOM     19  C1  NP6 d          -1.033 -14.066   5.999  0.00  0.00    -0.061 C 
ATOM     20  H4  NP6 d          -0.443 -14.973   6.193  0.00  0.00     0.033 H 
ATOM     21  H5  NP6 d          -1.644 -13.829   6.882  0.00  0.00     0.033 H 
BRANCH  19  22
ATOM     22  C2  NP6 d          -1.962 -14.330   4.820  0.00  0.00    -0.076 C 
ATOM     23  H1  NP6 d          -2.297 -15.378   4.846  0.00  0.00     0.027 H 
ATOM     24  H2  NP6 d          -1.424 -14.140   3.879  0.00  0.00     0.027 H 
ATOM     25  H3  NP6 d          -2.835 -13.664   4.884  0.00  0.00     0.027 H 
ENDBRANCH  19  22
ENDBRANCH  16  19
ENDBRANCH  13  16
ENDBRANCH   1  12
BRANCH   7  26
ATOM     26  O6  NP6 d          -5.885 -11.969   8.577  0.00  0.00    -0.153 OA
BRANCH  26  27
ATOM     27  C11 NP6 d          -6.801 -12.494   7.682  0.00  0.00     0.389 C 
ATOM     28  O7  NP6 d          -6.541 -13.545   7.083  0.00  0.00    -0.236 OA
ATOM     29  N3  NP6 d          -7.967 -11.822   7.523  0.00  0.00    -0.301 N 
ATOM     30  H18 NP6 d          -8.091 -11.037   8.130  0.00  0.00     0.171 HD
BRANCH  29  31
ATOM     31  C12 NP6 d          -8.993 -12.052   6.665  0.00  0.00     0.036 A 
ATOM     32  C13 NP6 d          -9.558 -10.951   6.010  0.00  0.00    -0.057 A 
ATOM     33  C14 NP6 d         -10.604 -11.105   5.093  0.00  0.00    -0.081 A 
ATOM     34  H19 NP6 d          -9.177  -9.958   6.218  0.00  0.00     0.086 H 
ATOM     35  C15 NP6 d         -11.098 -12.383   4.809  0.00  0.00    -0.083 A 
ATOM     36  H20 NP6 d         -11.030 -10.236   4.604  0.00  0.00     0.083 H 
ATOM     37  C16 NP6 d         -10.529 -13.492   5.438  0.00  0.00    -0.081 A 
ATOM     38  H21 NP6 d         -11.915 -12.510   4.108  0.00  0.00     0.083 H 
ATOM     39  C17 NP6 d          -9.484 -13.328   6.357  0.00  0.00    -0.057 A 
ATOM     40  H22 NP6 d         -10.898 -14.486   5.213  0.00  0.00     0.083 H 
ATOM     41  H23 NP6 d          -9.051 -14.199   6.836  0.00  0.00     0.086 H 
ENDBRANCH  29  31
ENDBRANCH  26  27
ENDBRANCH   7  26
BRANCH   2  42
ATOM     42  O2  NP6 d          -0.669  -9.180   8.718  0.00  0.00    -0.390 OA
ATOM     43  H11 NP6 d          -1.279  -8.531   8.389  0.00  0.00     0.210 HD
ENDBRANCH   2  42
BRANCH   4  44
ATOM     44  C9  NP6 d          -3.679 -10.873  12.348  0.00  0.00     0.044 C 
ATOM     45  H15 NP6 d          -3.312  -9.970  12.858  0.00  0.00     0.078 H 
ATOM     46  H16 NP6 d          -3.536 -11.746  13.002  0.00  0.00     0.078 H 
BRANCH  44  47
ATOM     47  O4  NP6 d          -5.065 -10.721  12.071  0.00  0.00    -0.398 OA
ATOM     48  H17 NP6 d          -5.408 -11.534  11.718  0.00  0.00     0.209 HD
ENDBRANCH  44  47
ENDBRANCH   4  44
BRANCH   3  49
ATOM     49  O3  NP6 d          -1.322  -9.309  11.464  0.00  0.00    -0.390 OA
ATOM     50  H13 NP6 d          -1.330  -8.361  11.414  0.00  0.00     0.210 HD
ENDBRANCH   3  49
TORSDOF 11
ENDMDL
MODEL 9
REMARK VINA RESULT:      -5.8      2.506      5.030
REMARK  11 active torsions:
REMARK  status: ('A' for Active; 'I' for Inactive)
REMARK    1  A    between atoms: C2_1  and  C1_2 
REMARK    2  A    between atoms: C1_2  and  C3_3 
REMARK    3  A    between atoms: C3_3  and  C4_4 
REMARK       I    between atoms: C4_4  and  N1_6 
REMARK    4  A    between atoms: N1_6  and  C5_7 
REMARK    5  A    between atoms: C6_8  and  O2_9 
REMARK    6  A    between atoms: C7_10  and  O3_11 
REMARK    7  A    between atoms: C8_12  and  C9_13 
REMARK    8  A    between atoms: C9_13  and  O4_14 
REMARK    9  A    between atoms: N2_17  and  O6_18 
REMARK   10  A    between atoms: O6_18  and  C11_19 
REMARK       I    between atoms: C11_19  and  N3_21 
REMARK   11  A    between atoms: N3_21  and  C12_22 
ROOT
ATOM      1  C5  NP6 d          -7.617 -10.921   7.418  0.00  0.00     0.105 C 
ATOM      2  C6  NP6 d          -8.991 -10.791   6.737  0.00  0.00     0.089 C 
ATOM      3  C7  NP6 d          -9.486 -12.143   6.249  0.00  0.00     0.090 C 
ATOM      4  C8  NP6 d          -9.666 -13.047   7.466  0.00  0.00     0.094 C 
ATOM      5  O5  NP6 d          -8.425 -13.245   8.130  0.00  0.00    -0.324 OA
ATOM      6  C10 NP6 d          -7.396 -12.355   7.946  0.00  0.00     0.194 C 
ATOM      7  N2  NP6 d          -6.168 -12.794   8.221  0.00  0.00    -0.100 NA
ATOM      8  H9  NP6 d          -6.851 -10.738   6.650  0.00  0.00     0.090 H 
ATOM      9  H10 NP6 d          -9.712 -10.393   7.466  0.00  0.00     0.090 H 
ATOM     10  H12 NP6 d          -8.758 -12.580   5.549  0.00  0.00     0.091 H 
ATOM     11  H14 NP6 d         -10.353 -12.526   8.149  0.00  0.00     0.091 H 
ENDROOT
BRANCH   1  12
ATOM     12  N1  NP6 d          -7.432  -9.881   8.475  0.00  0.00    -0.346 N 
ATOM     13  C4  NP6 d          -8.097  -9.814   9.636  0.00  0.00     0.218 C 
ATOM     14  O1  NP6 d          -8.965 -10.616   9.994  0.00  0.00    -0.274 OA
ATOM     15  H8  NP6 d          -6.751  -9.171   8.299  0.00  0.00     0.163 HD
BRANCH  13  16
ATOM     16  C3  NP6 d          -7.713  -8.616  10.532  0.00  0.00     0.009 C 
ATOM     17  H6  NP6 d          -8.464  -7.819  10.426  0.00  0.00     0.047 H 
ATOM     18  H7  NP6 d          -7.669  -8.939  11.583  0.00  0.00     0.047 H 
BRANCH  16  19
ATOM     19  C1  NP6 d          -6.351  -8.094  10.103  0.00  0.00    -0.061 C 
ATOM     20  H4  NP6 d          -6.225  -8.282   9.027  0.00  0.00     0.033 H 
ATOM     21  H5  NP6 d          -6.313  -7.011  10.292  0.00  0.00     0.033 H 
BRANCH  19  22
ATOM     22  C2  NP6 d          -5.206  -8.762  10.854  0.00  0.00    -0.076 C 
ATOM     23  H1  NP6 d          -5.582  -9.653  11.378  0.00  0.00     0.027 H 
ATOM     24  H2  NP6 d          -4.785  -8.056  11.585  0.00  0.00     0.027 H 
ATOM     25  H3  NP6 d          -4.423  -9.059  10.140  0.00  0.00     0.027 H 
ENDBRANCH  19  22
ENDBRANCH  16  19
ENDBRANCH  13  16
ENDBRANCH   1  12
BRANCH   7  26
ATOM     26  O6  NP6 d          -5.999 -14.092   8.642  0.00  0.00    -0.153 OA
BRANCH  26  27
ATOM     27  C11 NP6 d          -4.772 -14.337   9.234  0.00  0.00     0.389 C 
ATOM     28  O7  NP6 d          -4.367 -15.500   9.347  0.00  0.00    -0.236 OA
ATOM     29  N3  NP6 d          -4.058 -13.262   9.648  0.00  0.00    -0.301 N 
ATOM     30  H18 NP6 d          -4.456 -12.374   9.418  0.00  0.00     0.171 HD
BRANCH  29  31
ATOM     31  C12 NP6 d          -2.885 -13.206  10.327  0.00  0.00     0.036 A 
ATOM     32  C13 NP6 d          -1.719 -12.934   9.601  0.00  0.00    -0.057 A 
ATOM     33  C14 NP6 d          -0.473 -12.838  10.229  0.00  0.00    -0.081 A 
ATOM     34  H19 NP6 d          -1.784 -12.795   8.528  0.00  0.00     0.086 H 
ATOM     35  C15 NP6 d          -0.377 -13.006  11.615  0.00  0.00    -0.083 A 
ATOM     36  H20 NP6 d           0.417 -12.633   9.644  0.00  0.00     0.083 H 
ATOM     37  C16 NP6 d          -1.535 -13.256  12.355  0.00  0.00    -0.081 A 
ATOM     38  H21 NP6 d           0.586 -12.944  12.109  0.00  0.00     0.083 H 
ATOM     39  C17 NP6 d          -2.778 -13.354  11.717  0.00  0.00    -0.057 A 
ATOM     40  H22 NP6 d          -1.471 -13.375  13.431  0.00  0.00     0.083 H 
ATOM     41  H23 NP6 d          -3.669 -13.546  12.305  0.00  0.00     0.086 H 
ENDBRANCH  29  31
ENDBRANCH  26  27
ENDBRANCH   7  26
BRANCH   2  42
ATOM     42  O2  NP6 d          -8.893  -9.891   5.645  0.00  0.00    -0.390 OA
ATOM     43  H11 NP6 d          -7.980  -9.683   5.488  0.00  0.00     0.210 HD
ENDBRANCH   2  42
BRANCH   4  44
ATOM     44  C9  NP6 d         -10.251 -14.456   7.200  0.00  0.00     0.044 C 
ATOM     45  H15 NP6 d         -11.086 -14.637   7.893  0.00  0.00     0.078 H 
ATOM     46  H16 NP6 d          -9.467 -15.209   7.366  0.00  0.00     0.078 H 
BRANCH  44  47
ATOM     47  O4  NP6 d         -10.724 -14.564   5.863  0.00  0.00    -0.398 OA
ATOM     48  H17 NP6 d         -10.249 -15.254   5.415  0.00  0.00     0.209 HD
ENDBRANCH  44  47
ENDBRANCH   4  44
BRANCH   3  49
ATOM     49  O3  NP6 d         -10.763 -12.009   5.609  0.00  0.00    -0.390 OA
ATOM     50  H13 NP6 d         -11.451 -12.198   6.236  0.00  0.00     0.210 HD
ENDBRANCH   3  49
TORSDOF 11
ENDMDL
MODEL 10
REMARK VINA RESULT:      -5.2      2.068      4.411
REMARK  11 active torsions:
REMARK  status: ('A' for Active; 'I' for Inactive)
REMARK    1  A    between atoms: C2_1  and  C1_2 
REMARK    2  A    between atoms: C1_2  and  C3_3 
REMARK    3  A    between atoms: C3_3  and  C4_4 
REMARK       I    between atoms: C4_4  and  N1_6 
REMARK    4  A    between atoms: N1_6  and  C5_7 
REMARK    5  A    between atoms: C6_8  and  O2_9 
REMARK    6  A    between atoms: C7_10  and  O3_11 
REMARK    7  A    between atoms: C8_12  and  C9_13 
REMARK    8  A    between atoms: C9_13  and  O4_14 
REMARK    9  A    between atoms: N2_17  and  O6_18 
REMARK   10  A    between atoms: O6_18  and  C11_19 
REMARK       I    between atoms: C11_19  and  N3_21 
REMARK   11  A    between atoms: N3_21  and  C12_22 
ROOT
ATOM      1  C5  NP6 d          -7.535 -10.862   7.751  0.00  0.00     0.105 C 
ATOM      2  C6  NP6 d          -8.863 -11.532   8.148  0.00  0.00     0.089 C 
ATOM      3  C7  NP6 d          -8.839 -13.018   7.828  0.00  0.00     0.090 C 
ATOM      4  C8  NP6 d          -7.737 -13.663   8.666  0.00  0.00     0.094 C 
ATOM      5  O5  NP6 d          -6.469 -13.120   8.327  0.00  0.00    -0.324 OA
ATOM      6  C10 NP6 d          -6.387 -11.894   7.713  0.00  0.00     0.194 C 
ATOM      7  N2  NP6 d          -5.264 -11.632   7.045  0.00  0.00    -0.100 NA
ATOM      8  H9  NP6 d          -7.655 -10.476   6.728  0.00  0.00     0.090 H 
ATOM      9  H10 NP6 d          -9.014 -11.406   9.230  0.00  0.00     0.090 H 
ATOM     10  H12 NP6 d          -8.647 -13.169   6.756  0.00  0.00     0.091 H 
ATOM     11  H14 NP6 d          -7.955 -13.423   9.716  0.00  0.00     0.091 H 
ENDROOT
BRANCH   1  12
ATOM     12  N1  NP6 d          -7.232  -9.691   8.627  0.00  0.00    -0.346 N 
ATOM     13  C4  NP6 d          -7.688  -9.504   9.873  0.00  0.00     0.218 C 
ATOM     14  O1  NP6 d          -8.431 -10.287  10.473  0.00  0.00    -0.274 OA
ATOM     15  H8  NP6 d          -6.636  -8.983   8.250  0.00  0.00     0.163 HD
BRANCH  13  16
ATOM     16  C3  NP6 d          -7.227  -8.189  10.540  0.00  0.00     0.009 C 
ATOM     17  H6  NP6 d          -7.824  -7.350  10.152  0.00  0.00     0.047 H 
ATOM     18  H7  NP6 d          -7.359  -8.260  11.629  0.00  0.00     0.047 H 
BRANCH  16  19
ATOM     19  C1  NP6 d          -5.758  -7.961  10.219  0.00  0.00    -0.061 C 
ATOM     20  H4  NP6 d          -5.585  -8.213   9.162  0.00  0.00     0.033 H 
ATOM     21  H5  NP6 d          -5.522  -6.900  10.386  0.00  0.00     0.033 H 
BRANCH  19  22
ATOM     22  C2  NP6 d          -4.833  -8.809  11.082  0.00  0.00    -0.076 C 
ATOM     23  H1  NP6 d          -4.093  -9.312  10.441  0.00  0.00     0.027 H 
ATOM     24  H2  NP6 d          -5.424  -9.564  11.621  0.00  0.00     0.027 H 
ATOM     25  H3  NP6 d          -4.313  -8.165  11.806  0.00  0.00     0.027 H 
ENDBRANCH  19  22
ENDBRANCH  16  19
ENDBRANCH  13  16
ENDBRANCH   1  12
BRANCH   7  26
ATOM     26  O6  NP6 d          -4.279 -12.591   6.988  0.00  0.00    -0.153 OA
BRANCH  26  27
ATOM     27  C11 NP6 d          -3.143 -12.275   7.713  0.00  0.00     0.389 C 
ATOM     28  O7  NP6 d          -2.069 -12.824   7.439  0.00  0.00    -0.236 OA
ATOM     29  N3  NP6 d          -3.270 -11.346   8.692  0.00  0.00    -0.301 N 
ATOM     30  H18 NP6 d          -4.171 -10.915   8.753  0.00  0.00     0.171 HD
BRANCH  29  31
ATOM     31  C12 NP6 d          -2.363 -10.912   9.602  0.00  0.00     0.036 A 
ATOM     32  C13 NP6 d          -2.284 -11.592  10.823  0.00  0.00    -0.057 A 
ATOM     33  C14 NP6 d          -1.359 -11.222  11.807  0.00  0.00    -0.081 A 
ATOM     34  H19 NP6 d          -2.954 -12.423  11.012  0.00  0.00     0.086 H 
ATOM     35  C15 NP6 d          -0.483 -10.156  11.572  0.00  0.00    -0.083 A 
ATOM     36  H20 NP6 d          -1.322 -11.759  12.748  0.00  0.00     0.083 H 
ATOM     37  C16 NP6 d          -0.535  -9.484  10.349  0.00  0.00    -0.081 A 
ATOM     38  H21 NP6 d           0.229  -9.856  12.332  0.00  0.00     0.083 H 
ATOM     39  C17 NP6 d          -1.467  -9.859   9.372  0.00  0.00    -0.057 A 
ATOM     40  H22 NP6 d           0.149  -8.666  10.155  0.00  0.00     0.083 H 
ATOM     41  H23 NP6 d          -1.494  -9.329   8.426  0.00  0.00     0.086 H 
ENDBRANCH  29  31
ENDBRANCH  26  27
ENDBRANCH   7  26
BRANCH   2  42
ATOM     42  O2  NP6 d          -9.932 -10.908   7.456  0.00  0.00    -0.390 OA
ATOM     43  H11 NP6 d          -9.582 -10.348   6.773  0.00  0.00     0.210 HD
ENDBRANCH   2  42
BRANCH   4  44
ATOM     44  C9  NP6 d          -7.598 -15.202   8.557  0.00  0.00     0.044 C 
ATOM     45  H15 NP6 d          -8.598 -15.649   8.456  0.00  0.00     0.078 H 
ATOM     46  H16 NP6 d          -7.115 -15.585   9.468  0.00  0.00     0.078 H 
BRANCH  44  47
ATOM     47  O4  NP6 d          -6.812 -15.561   7.427  0.00  0.00    -0.398 OA
ATOM     48  H17 NP6 d          -7.384 -15.743   6.690  0.00  0.00     0.209 HD
ENDBRANCH  44  47
ENDBRANCH   4  44
BRANCH   3  49
ATOM     49  O3  NP6 d         -10.084 -13.630   8.195  0.00  0.00    -0.390 OA
ATOM     50  H13 NP6 d         -10.617 -13.002   8.667  0.00  0.00     0.210 HD
ENDBRANCH   3  49
TORSDOF 11
ENDMDL
