MODEL 1
REMARK VINA RESULT:     -10.6      0.000      0.000
REMARK  5 active torsions:
REMARK  status: ('A' for Active; 'I' for Inactive)
REMARK    1  A    between atoms: CAW_6  and  C2_7 
REMARK    2  A    between atoms: CAU_12  and  NAQ_13 
REMARK       I    between atoms: NAQ_13  and  CAT_14 
REMARK    3  A    between atoms: CAT_14  and  CAC_16 
REMARK    4  A    between atoms: C6_21  and  NAR_22 
REMARK    5  A    between atoms: NAR_22  and  CAV_23 
ROOT
ATOM      1  C2  G97 d          23.374  -0.861 -19.567  0.00  0.00     0.162 A 
ATOM      2  N1  G97 d          23.369   0.312 -20.242  0.00  0.00    -0.210 NA
ATOM      3  N3  G97 d          22.920  -0.931 -18.300  0.00  0.00    -0.228 NA
ATOM      4  C4  G97 d          22.438   0.158 -17.685  0.00  0.00     0.075 A 
ATOM      5  CAM G97 d          21.962   0.044 -16.379  0.00  0.00    -0.028 A 
ATOM      6  CAU G97 d          21.442   1.155 -15.717  0.00  0.00     0.037 A 
ATOM      7  CAK G97 d          21.413   2.393 -16.385  0.00  0.00    -0.056 A 
ATOM      8  CAL G97 d          21.896   2.505 -17.697  0.00  0.00    -0.065 A 
ATOM      9  C5  G97 d          22.412   1.384 -18.359  0.00  0.00     0.039 A 
ATOM     10  C6  G97 d          22.897   1.443 -19.676  0.00  0.00     0.144 A 
ATOM     11  H6  G97 d          21.996  -0.915 -15.875  0.00  0.00     0.090 H 
ATOM     12  H11 G97 d          21.014   3.266 -15.882  0.00  0.00     0.086 H 
ATOM     13  H12 G97 d          21.868   3.464 -18.201  0.00  0.00     0.085 H 
ENDROOT
BRANCH   1  14
ATOM     14  CAW G97 d          23.882  -2.027 -20.131  0.00  0.00     0.012 A 
ATOM     15  CAH G97 d          24.976  -1.967 -21.006  0.00  0.00    -0.069 A 
ATOM     16  CAE G97 d          25.521  -3.127 -21.556  0.00  0.00    -0.082 A 
ATOM     17  H1  G97 d          25.405  -1.005 -21.258  0.00  0.00     0.085 H 
ATOM     18  CAD G97 d          24.954  -4.350 -21.219  0.00  0.00    -0.083 A 
ATOM     19  H2  G97 d          26.367  -3.076 -22.232  0.00  0.00     0.083 H 
ATOM     20  CAF G97 d          23.875  -4.428 -20.336  0.00  0.00    -0.082 A 
ATOM     21  H3  G97 d          25.358  -5.260 -21.648  0.00  0.00     0.083 H 
ATOM     22  CAI G97 d          23.329  -3.263 -19.787  0.00  0.00    -0.069 A 
ATOM     23  H4  G97 d          23.458  -5.394 -20.076  0.00  0.00     0.083 H 
ATOM     24  H5  G97 d          22.489  -3.319 -19.104  0.00  0.00     0.085 H 
ENDBRANCH   1  14
BRANCH  10  25
ATOM     25  NAR G97 d          22.898   2.597 -20.375  0.00  0.00    -0.325 N 
ATOM     26  H13 G97 d          22.903   3.481 -19.846  0.00  0.00     0.169 HD
BRANCH  25  27
ATOM     27  CAV G97 d          22.893   2.668 -21.730  0.00  0.00     0.124 A 
ATOM     28  CAJ G97 d          23.349   3.700 -22.434  0.00  0.00    -0.021 A 
ATOM     29  CAG G97 d          23.153   3.368 -23.713  0.00  0.00     0.025 A 
ATOM     30  H14 G97 d          23.789   4.620 -22.051  0.00  0.00     0.091 H 
ATOM     31  NAS G97 d          22.579   2.154 -23.743  0.00  0.00    -0.186 NA
ATOM     32  H15 G97 d          23.412   3.975 -24.580  0.00  0.00     0.117 H 
ATOM     33  NAN G97 d          22.427   1.743 -22.582  0.00  0.00    -0.263 N 
ATOM     34  H16 G97 d          22.011   0.839 -22.316  0.00  0.00     0.190 HD
ENDBRANCH  25  27
ENDBRANCH  10  25
BRANCH   6  35
ATOM     35  NAQ G97 d          21.015   0.974 -14.451  0.00  0.00    -0.324 N 
ATOM     36  CAT G97 d          19.913   1.475 -13.879  0.00  0.00     0.244 C 
ATOM     37  OAB G97 d          19.090   2.193 -14.457  0.00  0.00    -0.268 OA
ATOM     38  H7  G97 d          21.590   0.397 -13.870  0.00  0.00     0.169 HD
BRANCH  36  39
ATOM     39  CAC G97 d          19.686   1.146 -12.540  0.00  0.00    -0.026 C 
ATOM     40  CAA G97 d          20.651   0.481 -11.785  0.00  0.00    -0.116 C 
ATOM     41  H9  G97 d          20.452   0.235 -10.743  0.00  0.00     0.067 H 
ATOM     42  H10 G97 d          21.604   0.207 -12.237  0.00  0.00     0.067 H 
ATOM     43  H8  G97 d          18.737   1.414 -12.077  0.00  0.00     0.090 H 
ENDBRANCH  36  39
ENDBRANCH   6  35
TORSDOF 5
ENDMDL
MODEL 2
REMARK VINA RESULT:      -9.7      1.431      4.735
REMARK  5 active torsions:
REMARK  status: ('A' for Active; 'I' for Inactive)
REMARK    1  A    between atoms: CAW_6  and  C2_7 
REMARK    2  A    between atoms: CAU_12  and  NAQ_13 
REMARK       I    between atoms: NAQ_13  and  CAT_14 
REMARK    3  A    between atoms: CAT_14  and  CAC_16 
REMARK    4  A    between atoms: C6_21  and  NAR_22 
REMARK    5  A    between atoms: NAR_22  and  CAV_23 
ROOT
ATOM      1  C2  G97 d          22.765   1.997 -20.270  0.00  0.00     0.162 A 
ATOM      2  N1  G97 d          23.156   0.702 -20.289  0.00  0.00    -0.210 NA
ATOM      3  N3  G97 d          22.220   2.538 -19.162  0.00  0.00    -0.228 NA
ATOM      4  C4  G97 d          22.068   1.809 -18.048  0.00  0.00     0.075 A 
ATOM      5  CAM G97 d          21.515   2.406 -16.916  0.00  0.00    -0.028 A 
ATOM      6  CAU G97 d          21.356   1.678 -15.739  0.00  0.00     0.037 A 
ATOM      7  CAK G97 d          21.756   0.329 -15.714  0.00  0.00    -0.056 A 
ATOM      8  CAL G97 d          22.308  -0.270 -16.855  0.00  0.00    -0.065 A 
ATOM      9  C5  G97 d          22.470   0.468 -18.034  0.00  0.00     0.039 A 
ATOM     10  C6  G97 d          23.029  -0.083 -19.199  0.00  0.00     0.144 A 
ATOM     11  H6  G97 d          21.206   3.445 -16.952  0.00  0.00     0.090 H 
ATOM     12  H11 G97 d          21.636  -0.251 -14.806  0.00  0.00     0.086 H 
ATOM     13  H12 G97 d          22.612  -1.310 -16.824  0.00  0.00     0.085 H 
ENDROOT
BRANCH   1  14
ATOM     14  CAW G97 d          22.868   2.809 -21.395  0.00  0.00     0.012 A 
ATOM     15  CAH G97 d          23.094   2.240 -22.656  0.00  0.00    -0.069 A 
ATOM     16  CAE G97 d          23.169   3.032 -23.800  0.00  0.00    -0.082 A 
ATOM     17  H1  G97 d          23.214   1.166 -22.742  0.00  0.00     0.085 H 
ATOM     18  CAD G97 d          23.014   4.407 -23.666  0.00  0.00    -0.083 A 
ATOM     19  H2  G97 d          23.343   2.587 -24.773  0.00  0.00     0.083 H 
ATOM     20  CAF G97 d          22.772   4.988 -22.420  0.00  0.00    -0.082 A 
ATOM     21  H3  G97 d          23.082   5.038 -24.544  0.00  0.00     0.083 H 
ATOM     22  CAI G97 d          22.699   4.191 -21.273  0.00  0.00    -0.069 A 
ATOM     23  H4  G97 d          22.639   6.061 -22.341  0.00  0.00     0.083 H 
ATOM     24  H5  G97 d          22.514   4.638 -20.303  0.00  0.00     0.085 H 
ENDBRANCH   1  14
BRANCH  10  25
ATOM     25  NAR G97 d          23.434  -1.370 -19.244  0.00  0.00    -0.325 N 
ATOM     26  H13 G97 d          23.048  -2.022 -18.546  0.00  0.00     0.169 HD
BRANCH  25  27
ATOM     27  CAV G97 d          24.315  -1.860 -20.151  0.00  0.00     0.124 A 
ATOM     28  CAJ G97 d          24.393  -3.137 -20.517  0.00  0.00    -0.021 A 
ATOM     29  CAG G97 d          25.385  -3.187 -21.411  0.00  0.00     0.025 A 
ATOM     30  H14 G97 d          23.779  -3.964 -20.164  0.00  0.00     0.091 H 
ATOM     31  NAS G97 d          25.880  -1.947 -21.552  0.00  0.00    -0.186 NA
ATOM     32  H15 G97 d          25.731  -4.078 -21.933  0.00  0.00     0.117 H 
ATOM     33  NAN G97 d          25.254  -1.169 -20.815  0.00  0.00    -0.263 N 
ATOM     34  H16 G97 d          25.427  -0.157 -20.728  0.00  0.00     0.190 HD
ENDBRANCH  25  27
ENDBRANCH  10  25
BRANCH   6  35
ATOM     35  NAQ G97 d          20.799   2.316 -14.689  0.00  0.00    -0.324 N 
ATOM     36  CAT G97 d          19.564   2.827 -14.603  0.00  0.00     0.244 C 
ATOM     37  OAB G97 d          18.720   2.771 -15.504  0.00  0.00    -0.268 OA
ATOM     38  H7  G97 d          21.377   2.421 -13.880  0.00  0.00     0.169 HD
BRANCH  36  39
ATOM     39  CAC G97 d          19.217   3.451 -13.403  0.00  0.00    -0.026 C 
ATOM     40  CAA G97 d          19.859   3.129 -12.207  0.00  0.00    -0.116 C 
ATOM     41  H9  G97 d          19.572   3.630 -11.284  0.00  0.00     0.067 H 
ATOM     42  H10 G97 d          20.648   2.378 -12.198  0.00  0.00     0.067 H 
ATOM     43  H8  G97 d          18.430   4.204 -13.400  0.00  0.00     0.090 H 
ENDBRANCH  36  39
ENDBRANCH   6  35
TORSDOF 5
ENDMDL
MODEL 3
REMARK VINA RESULT:      -9.3      2.293      6.433
REMARK  5 active torsions:
REMARK  status: ('A' for Active; 'I' for Inactive)
REMARK    1  A    between atoms: CAW_6  and  C2_7 
REMARK    2  A    between atoms: CAU_12  and  NAQ_13 
REMARK       I    between atoms: NAQ_13  and  CAT_14 
REMARK    3  A    between atoms: CAT_14  and  CAC_16 
REMARK    4  A    between atoms: C6_21  and  NAR_22 
REMARK    5  A    between atoms: NAR_22  and  CAV_23 
ROOT
ATOM      1  C2  G97 d          21.784   1.523 -16.976  0.00  0.00     0.162 A 
ATOM      2  N1  G97 d          21.903   2.587 -17.804  0.00  0.00    -0.210 NA
ATOM      3  N3  G97 d          22.192   0.298 -17.363  0.00  0.00    -0.228 NA
ATOM      4  C4  G97 d          22.739   0.109 -18.572  0.00  0.00     0.075 A 
ATOM      5  CAM G97 d          23.164  -1.170 -18.933  0.00  0.00    -0.028 A 
ATOM      6  CAU G97 d          23.749  -1.395 -20.177  0.00  0.00     0.037 A 
ATOM      7  CAK G97 d          23.897  -0.314 -21.065  0.00  0.00    -0.056 A 
ATOM      8  CAL G97 d          23.466   0.970 -20.702  0.00  0.00    -0.065 A 
ATOM      9  C5  G97 d          22.883   1.191 -19.447  0.00  0.00     0.039 A 
ATOM     10  C6  G97 d          22.446   2.460 -19.033  0.00  0.00     0.144 A 
ATOM     11  H6  G97 d          23.038  -1.994 -18.239  0.00  0.00     0.090 H 
ATOM     12  H11 G97 d          24.348  -0.475 -22.038  0.00  0.00     0.086 H 
ATOM     13  H12 G97 d          23.584   1.795 -21.395  0.00  0.00     0.085 H 
ENDROOT
BRANCH   1  14
ATOM     14  CAW G97 d          21.203   1.636 -15.717  0.00  0.00     0.012 A 
ATOM     15  CAH G97 d          20.526   2.810 -15.358  0.00  0.00    -0.069 A 
ATOM     16  CAE G97 d          19.909   2.932 -14.113  0.00  0.00    -0.082 A 
ATOM     17  H1  G97 d          20.481   3.635 -16.059  0.00  0.00     0.085 H 
ATOM     18  CAD G97 d          19.980   1.861 -13.230  0.00  0.00    -0.083 A 
ATOM     19  H2  G97 d          19.386   3.841 -13.840  0.00  0.00     0.083 H 
ATOM     20  CAF G97 d          20.638   0.680 -13.579  0.00  0.00    -0.082 A 
ATOM     21  H3  G97 d          19.517   1.945 -12.254  0.00  0.00     0.083 H 
ATOM     22  CAI G97 d          21.257   0.561 -14.827  0.00  0.00    -0.069 A 
ATOM     23  H4  G97 d          20.668  -0.148 -12.880  0.00  0.00     0.083 H 
ATOM     24  H5  G97 d          21.771  -0.354 -15.101  0.00  0.00     0.085 H 
ENDBRANCH   1  14
BRANCH  10  25
ATOM     25  NAR G97 d          22.558   3.540 -19.834  0.00  0.00    -0.325 N 
ATOM     26  H13 G97 d          23.192   4.296 -19.539  0.00  0.00     0.169 HD
BRANCH  25  27
ATOM     27  CAV G97 d          21.887   3.694 -21.003  0.00  0.00     0.124 A 
ATOM     28  CAJ G97 d          22.444   4.078 -22.149  0.00  0.00    -0.021 A 
ATOM     29  CAG G97 d          21.443   4.108 -23.034  0.00  0.00     0.025 A 
ATOM     30  H14 G97 d          23.491   4.317 -22.328  0.00  0.00     0.091 H 
ATOM     31  NAS G97 d          20.316   3.751 -22.398  0.00  0.00    -0.186 NA
ATOM     32  H15 G97 d          21.527   4.375 -24.087  0.00  0.00     0.117 H 
ATOM     33  NAN G97 d          20.575   3.508 -21.209  0.00  0.00    -0.263 N 
ATOM     34  H16 G97 d          19.893   3.211 -20.496  0.00  0.00     0.190 HD
ENDBRANCH  25  27
ENDBRANCH  10  25
BRANCH   6  35
ATOM     35  NAQ G97 d          24.120  -2.660 -20.463  0.00  0.00    -0.324 N 
ATOM     36  CAT G97 d          23.577  -3.795 -20.007  0.00  0.00     0.244 C 
ATOM     37  OAB G97 d          22.609  -3.849 -19.240  0.00  0.00    -0.268 OA
ATOM     38  H7  G97 d          24.893  -2.761 -21.089  0.00  0.00     0.169 HD
BRANCH  36  39
ATOM     39  CAC G97 d          24.145  -4.993 -20.448  0.00  0.00    -0.026 C 
ATOM     40  CAA G97 d          25.009  -5.025 -21.542  0.00  0.00    -0.116 C 
ATOM     41  H9  G97 d          25.441  -5.970 -21.867  0.00  0.00     0.067 H 
ATOM     42  H10 G97 d          25.252  -4.104 -22.071  0.00  0.00     0.067 H 
ATOM     43  H8  G97 d          23.909  -5.920 -19.927  0.00  0.00     0.090 H 
ENDBRANCH  36  39
ENDBRANCH   6  35
TORSDOF 5
ENDMDL
MODEL 4
REMARK VINA RESULT:      -9.0      2.118      2.642
REMARK  5 active torsions:
REMARK  status: ('A' for Active; 'I' for Inactive)
REMARK    1  A    between atoms: CAW_6  and  C2_7 
REMARK    2  A    between atoms: CAU_12  and  NAQ_13 
REMARK       I    between atoms: NAQ_13  and  CAT_14 
REMARK    3  A    between atoms: CAT_14  and  CAC_16 
REMARK    4  A    between atoms: C6_21  and  NAR_22 
REMARK    5  A    between atoms: NAR_22  and  CAV_23 
ROOT
ATOM      1  C2  G97 d          22.967  -0.255 -18.548  0.00  0.00     0.162 A 
ATOM      2  N1  G97 d          22.825   1.081 -18.719  0.00  0.00    -0.210 NA
ATOM      3  N3  G97 d          22.542  -0.855 -17.418  0.00  0.00    -0.228 NA
ATOM      4  C4  G97 d          21.956  -0.145 -16.445  0.00  0.00     0.075 A 
ATOM      5  CAM G97 d          21.515  -0.803 -15.296  0.00  0.00    -0.028 A 
ATOM      6  CAU G97 d          20.890  -0.095 -14.272  0.00  0.00     0.037 A 
ATOM      7  CAK G97 d          20.717   1.294 -14.413  0.00  0.00    -0.056 A 
ATOM      8  CAL G97 d          21.164   1.954 -15.567  0.00  0.00    -0.065 A 
ATOM      9  C5  G97 d          21.788   1.236 -16.595  0.00  0.00     0.039 A 
ATOM     10  C6  G97 d          22.242   1.849 -17.775  0.00  0.00     0.144 A 
ATOM     11  H6  G97 d          21.660  -1.873 -15.200  0.00  0.00     0.090 H 
ATOM     12  H11 G97 d          20.234   1.859 -13.624  0.00  0.00     0.086 H 
ATOM     13  H12 G97 d          21.026   3.025 -15.664  0.00  0.00     0.085 H 
ENDROOT
BRANCH   1  14
ATOM     14  CAW G97 d          23.588  -1.053 -19.503  0.00  0.00     0.012 A 
ATOM     15  CAH G97 d          24.527  -0.496 -20.383  0.00  0.00    -0.069 A 
ATOM     16  CAE G97 d          25.185  -1.284 -21.326  0.00  0.00    -0.082 A 
ATOM     17  H1  G97 d          24.745   0.565 -20.329  0.00  0.00     0.085 H 
ATOM     18  CAD G97 d          24.890  -2.641 -21.378  0.00  0.00    -0.083 A 
ATOM     19  H2  G97 d          25.911  -0.849 -22.004  0.00  0.00     0.083 H 
ATOM     20  CAF G97 d          23.969  -3.214 -20.498  0.00  0.00    -0.082 A 
ATOM     21  H3  G97 d          25.383  -3.265 -22.114  0.00  0.00     0.083 H 
ATOM     22  CAI G97 d          23.309  -2.421 -19.555  0.00  0.00    -0.069 A 
ATOM     23  H4  G97 d          23.765  -4.277 -20.547  0.00  0.00     0.083 H 
ATOM     24  H5  G97 d          22.592  -2.861 -18.872  0.00  0.00     0.085 H 
ENDBRANCH   1  14
BRANCH  10  25
ATOM     25  NAR G97 d          22.108   3.177 -17.975  0.00  0.00    -0.325 N 
ATOM     26  H13 G97 d          21.621   3.726 -17.253  0.00  0.00     0.169 HD
BRANCH  25  27
ATOM     27  CAV G97 d          22.574   3.834 -19.066  0.00  0.00     0.124 A 
ATOM     28  CAJ G97 d          22.377   5.126 -19.312  0.00  0.00    -0.021 A 
ATOM     29  CAG G97 d          22.989   5.361 -20.476  0.00  0.00     0.025 A 
ATOM     30  H14 G97 d          21.834   5.841 -18.696  0.00  0.00     0.091 H 
ATOM     31  NAS G97 d          23.528   4.206 -20.902  0.00  0.00    -0.186 NA
ATOM     32  H15 G97 d          23.042   6.319 -20.990  0.00  0.00     0.117 H 
ATOM     33  NAN G97 d          23.286   3.311 -20.076  0.00  0.00    -0.263 N 
ATOM     34  H16 G97 d          23.584   2.328 -20.154  0.00  0.00     0.190 HD
ENDBRANCH  25  27
ENDBRANCH  10  25
BRANCH   6  35
ATOM     35  NAQ G97 d          20.505  -0.794 -13.185  0.00  0.00    -0.324 N 
ATOM     36  CAT G97 d          21.162  -1.791 -12.578  0.00  0.00     0.244 C 
ATOM     37  OAB G97 d          22.265  -2.219 -12.934  0.00  0.00    -0.268 OA
ATOM     38  H7  G97 d          19.625  -0.538 -12.786  0.00  0.00     0.169 HD
BRANCH  36  39
ATOM     39  CAC G97 d          20.551  -2.367 -11.462  0.00  0.00    -0.026 C 
ATOM     40  CAA G97 d          19.236  -2.826 -11.513  0.00  0.00    -0.116 C 
ATOM     41  H9  G97 d          18.781  -3.272 -10.630  0.00  0.00     0.067 H 
ATOM     42  H10 G97 d          18.664  -2.740 -12.436  0.00  0.00     0.067 H 
ATOM     43  H8  G97 d          21.113  -2.458 -10.533  0.00  0.00     0.090 H 
ENDBRANCH  36  39
ENDBRANCH   6  35
TORSDOF 5
ENDMDL
MODEL 5
REMARK VINA RESULT:      -8.9      2.554      7.083
REMARK  5 active torsions:
REMARK  status: ('A' for Active; 'I' for Inactive)
REMARK    1  A    between atoms: CAW_6  and  C2_7 
REMARK    2  A    between atoms: CAU_12  and  NAQ_13 
REMARK       I    between atoms: NAQ_13  and  CAT_14 
REMARK    3  A    between atoms: CAT_14  and  CAC_16 
REMARK    4  A    between atoms: C6_21  and  NAR_22 
REMARK    5  A    between atoms: NAR_22  and  CAV_23 
ROOT
ATOM      1  C2  G97 d          22.404   0.280 -17.628  0.00  0.00     0.162 A 
ATOM      2  N1  G97 d          23.198  -0.687 -18.146  0.00  0.00    -0.210 NA
ATOM      3  N3  G97 d          22.039   1.345 -18.370  0.00  0.00    -0.228 NA
ATOM      4  C4  G97 d          22.442   1.462 -19.642  0.00  0.00     0.075 A 
ATOM      5  CAM G97 d          22.032   2.570 -20.384  0.00  0.00    -0.028 A 
ATOM      6  CAU G97 d          22.423   2.715 -21.714  0.00  0.00     0.037 A 
ATOM      7  CAK G97 d          23.243   1.728 -22.292  0.00  0.00    -0.056 A 
ATOM      8  CAL G97 d          23.656   0.617 -21.544  0.00  0.00    -0.065 A 
ATOM      9  C5  G97 d          23.256   0.476 -20.209  0.00  0.00     0.039 A 
ATOM     10  C6  G97 d          23.635  -0.625 -19.421  0.00  0.00     0.144 A 
ATOM     11  H6  G97 d          21.405   3.325 -19.923  0.00  0.00     0.090 H 
ATOM     12  H11 G97 d          23.556   1.828 -23.325  0.00  0.00     0.086 H 
ATOM     13  H12 G97 d          24.289  -0.136 -22.000  0.00  0.00     0.085 H 
ENDROOT
BRANCH   1  14
ATOM     14  CAW G97 d          21.968   0.239 -16.308  0.00  0.00     0.012 A 
ATOM     15  CAH G97 d          21.358   1.363 -15.733  0.00  0.00    -0.069 A 
ATOM     16  CAE G97 d          20.885   1.332 -14.422  0.00  0.00    -0.082 A 
ATOM     17  H1  G97 d          21.254   2.270 -16.317  0.00  0.00     0.085 H 
ATOM     18  CAD G97 d          21.030   0.159 -13.691  0.00  0.00    -0.083 A 
ATOM     19  H2  G97 d          20.413   2.204 -13.982  0.00  0.00     0.083 H 
ATOM     20  CAF G97 d          21.621  -0.974 -14.255  0.00  0.00    -0.082 A 
ATOM     21  H3  G97 d          20.679   0.123 -12.667  0.00  0.00     0.083 H 
ATOM     22  CAI G97 d          22.097  -0.940 -15.569  0.00  0.00    -0.069 A 
ATOM     23  H4  G97 d          21.711  -1.883 -13.671  0.00  0.00     0.083 H 
ATOM     24  H5  G97 d          22.558  -1.817 -16.010  0.00  0.00     0.085 H 
ENDBRANCH   1  14
BRANCH  10  25
ATOM     25  NAR G97 d          24.420  -1.606 -19.913  0.00  0.00    -0.325 N 
ATOM     26  H13 G97 d          25.381  -1.362 -20.189  0.00  0.00     0.169 HD
BRANCH  25  27
ATOM     27  CAV G97 d          24.023  -2.894 -20.067  0.00  0.00     0.124 A 
ATOM     28  CAJ G97 d          24.728  -3.833 -20.692  0.00  0.00    -0.021 A 
ATOM     29  CAG G97 d          23.981  -4.939 -20.623  0.00  0.00     0.025 A 
ATOM     30  H14 G97 d          25.706  -3.724 -21.160  0.00  0.00     0.091 H 
ATOM     31  NAS G97 d          22.849  -4.634 -19.969  0.00  0.00    -0.186 NA
ATOM     32  H15 G97 d          24.245  -5.915 -21.027  0.00  0.00     0.117 H 
ATOM     33  NAN G97 d          22.872  -3.437 -19.642  0.00  0.00    -0.263 N 
ATOM     34  H16 G97 d          22.129  -2.942 -19.128  0.00  0.00     0.190 HD
ENDBRANCH  25  27
ENDBRANCH  10  25
BRANCH   6  35
ATOM     35  NAQ G97 d          22.002   3.819 -22.363  0.00  0.00    -0.324 N 
ATOM     36  CAT G97 d          20.874   3.974 -23.069  0.00  0.00     0.244 C 
ATOM     37  OAB G97 d          20.017   3.095 -23.219  0.00  0.00    -0.268 OA
ATOM     38  H7  G97 d          22.603   4.616 -22.312  0.00  0.00     0.169 HD
BRANCH  36  39
ATOM     39  CAC G97 d          20.660   5.222 -23.658  0.00  0.00    -0.026 C 
ATOM     40  CAA G97 d          19.530   5.472 -24.435  0.00  0.00    -0.116 C 
ATOM     41  H9  G97 d          19.384   6.453 -24.884  0.00  0.00     0.067 H 
ATOM     42  H10 G97 d          18.792   4.685 -24.591  0.00  0.00     0.067 H 
ATOM     43  H8  G97 d          21.391   6.016 -23.509  0.00  0.00     0.090 H 
ENDBRANCH  36  39
ENDBRANCH   6  35
TORSDOF 5
ENDMDL
MODEL 6
REMARK VINA RESULT:      -8.1      3.070      8.730
REMARK  5 active torsions:
REMARK  status: ('A' for Active; 'I' for Inactive)
REMARK    1  A    between atoms: CAW_6  and  C2_7 
REMARK    2  A    between atoms: CAU_12  and  NAQ_13 
REMARK       I    between atoms: NAQ_13  and  CAT_14 
REMARK    3  A    between atoms: CAT_14  and  CAC_16 
REMARK    4  A    between atoms: C6_21  and  NAR_22 
REMARK    5  A    between atoms: NAR_22  and  CAV_23 
ROOT
ATOM      1  C2  G97 d          20.610   2.535 -15.413  0.00  0.00     0.162 A 
ATOM      2  N1  G97 d          21.002   1.307 -15.000  0.00  0.00    -0.210 NA
ATOM      3  N3  G97 d          20.962   3.000 -16.628  0.00  0.00    -0.228 NA
ATOM      4  C4  G97 d          21.696   2.250 -17.461  0.00  0.00     0.075 A 
ATOM      5  CAM G97 d          22.029   2.759 -18.717  0.00  0.00    -0.028 A 
ATOM      6  CAU G97 d          22.779   1.998 -19.611  0.00  0.00     0.037 A 
ATOM      7  CAK G97 d          23.202   0.714 -19.224  0.00  0.00    -0.056 A 
ATOM      8  CAL G97 d          22.870   0.206 -17.960  0.00  0.00    -0.065 A 
ATOM      9  C5  G97 d          22.111   0.973 -17.067  0.00  0.00     0.039 A 
ATOM     10  C6  G97 d          21.742   0.505 -15.794  0.00  0.00     0.144 A 
ATOM     11  H6  G97 d          21.700   3.753 -19.000  0.00  0.00     0.090 H 
ATOM     12  H11 G97 d          23.789   0.111 -19.908  0.00  0.00     0.086 H 
ATOM     13  H12 G97 d          23.201  -0.785 -17.672  0.00  0.00     0.085 H 
ENDROOT
BRANCH   1  14
ATOM     14  CAW G97 d          19.868   3.380 -14.594  0.00  0.00     0.012 A 
ATOM     15  CAH G97 d          19.856   3.182 -13.206  0.00  0.00    -0.069 A 
ATOM     16  CAE G97 d          19.146   4.036 -12.364  0.00  0.00    -0.082 A 
ATOM     17  H1  G97 d          20.408   2.351 -12.781  0.00  0.00     0.085 H 
ATOM     18  CAD G97 d          18.445   5.094 -12.930  0.00  0.00    -0.083 A 
ATOM     19  H2  G97 d          19.140   3.879 -11.291  0.00  0.00     0.083 H 
ATOM     20  CAF G97 d          18.460   5.314 -14.310  0.00  0.00    -0.082 A 
ATOM     21  H3  G97 d          17.877   5.760 -12.291  0.00  0.00     0.083 H 
ATOM     22  CAI G97 d          19.172   4.455 -15.152  0.00  0.00    -0.069 A 
ATOM     23  H4  G97 d          17.918   6.154 -14.728  0.00  0.00     0.083 H 
ATOM     24  H5  G97 d          19.184   4.620 -16.223  0.00  0.00     0.085 H 
ENDBRANCH   1  14
BRANCH  10  25
ATOM     25  NAR G97 d          22.114  -0.717 -15.359  0.00  0.00    -0.325 N 
ATOM     26  H13 G97 d          23.061  -1.045 -15.595  0.00  0.00     0.169 HD
BRANCH  25  27
ATOM     27  CAV G97 d          21.319  -1.541 -14.631  0.00  0.00     0.124 A 
ATOM     28  CAJ G97 d          20.682  -2.603 -15.119  0.00  0.00    -0.021 A 
ATOM     29  CAG G97 d          20.017  -3.120 -14.082  0.00  0.00     0.025 A 
ATOM     30  H14 G97 d          20.700  -2.971 -16.143  0.00  0.00     0.091 H 
ATOM     31  NAS G97 d          20.263  -2.354 -13.007  0.00  0.00    -0.186 NA
ATOM     32  H15 G97 d          19.385  -4.007 -14.106  0.00  0.00     0.117 H 
ATOM     33  NAN G97 d          21.026  -1.430 -13.327  0.00  0.00    -0.263 N 
ATOM     34  H16 G97 d          21.378  -0.697 -12.694  0.00  0.00     0.190 HD
ENDBRANCH  25  27
ENDBRANCH  10  25
BRANCH   6  35
ATOM     35  NAQ G97 d          23.076   2.561 -20.801  0.00  0.00    -0.324 N 
ATOM     36  CAT G97 d          22.940   2.021 -22.018  0.00  0.00     0.244 C 
ATOM     37  OAB G97 d          22.491   0.890 -22.235  0.00  0.00    -0.268 OA
ATOM     38  H7  G97 d          23.442   3.491 -20.769  0.00  0.00     0.169 HD
BRANCH  36  39
ATOM     39  CAC G97 d          23.324   2.806 -23.108  0.00  0.00    -0.026 C 
ATOM     40  CAA G97 d          22.873   4.118 -23.250  0.00  0.00    -0.116 C 
ATOM     41  H9  G97 d          23.187   4.712 -24.107  0.00  0.00     0.067 H 
ATOM     42  H10 G97 d          22.208   4.549 -22.502  0.00  0.00     0.067 H 
ATOM     43  H8  G97 d          23.989   2.386 -23.862  0.00  0.00     0.090 H 
ENDBRANCH  36  39
ENDBRANCH   6  35
TORSDOF 5
ENDMDL
MODEL 7
REMARK VINA RESULT:      -8.1      2.813      8.123
REMARK  5 active torsions:
REMARK  status: ('A' for Active; 'I' for Inactive)
REMARK    1  A    between atoms: CAW_6  and  C2_7 
REMARK    2  A    between atoms: CAU_12  and  NAQ_13 
REMARK       I    between atoms: NAQ_13  and  CAT_14 
REMARK    3  A    between atoms: CAT_14  and  CAC_16 
REMARK    4  A    between atoms: C6_21  and  NAR_22 
REMARK    5  A    between atoms: NAR_22  and  CAV_23 
ROOT
ATOM      1  C2  G97 d          21.105  -0.719 -13.801  0.00  0.00     0.162 A 
ATOM      2  N1  G97 d          20.555   0.482 -13.508  0.00  0.00    -0.210 NA
ATOM      3  N3  G97 d          21.721  -0.927 -14.981  0.00  0.00    -0.228 NA
ATOM      4  C4  G97 d          21.816   0.056 -15.886  0.00  0.00     0.075 A 
ATOM      5  CAM G97 d          22.474  -0.191 -17.091  0.00  0.00    -0.028 A 
ATOM      6  CAU G97 d          22.602   0.815 -18.046  0.00  0.00     0.037 A 
ATOM      7  CAK G97 d          22.049   2.081 -17.778  0.00  0.00    -0.056 A 
ATOM      8  CAL G97 d          21.385   2.326 -16.568  0.00  0.00    -0.065 A 
ATOM      9  C5  G97 d          21.265   1.312 -15.610  0.00  0.00     0.039 A 
ATOM     10  C6  G97 d          20.619   1.512 -14.378  0.00  0.00     0.144 A 
ATOM     11  H6  G97 d          22.890  -1.174 -17.285  0.00  0.00     0.090 H 
ATOM     12  H11 G97 d          22.139   2.873 -18.513  0.00  0.00     0.086 H 
ATOM     13  H12 G97 d          20.963   3.305 -16.374  0.00  0.00     0.085 H 
ENDROOT
BRANCH   1  14
ATOM     14  CAW G97 d          21.023  -1.795 -12.922  0.00  0.00     0.012 A 
ATOM     15  CAH G97 d          19.923  -1.920 -12.062  0.00  0.00    -0.069 A 
ATOM     16  CAE G97 d          19.806  -3.007 -11.197  0.00  0.00    -0.082 A 
ATOM     17  H1  G97 d          19.151  -1.159 -12.071  0.00  0.00     0.085 H 
ATOM     18  CAD G97 d          20.808  -3.970 -11.203  0.00  0.00    -0.083 A 
ATOM     19  H2  G97 d          18.952  -3.099 -10.535  0.00  0.00     0.083 H 
ATOM     20  CAF G97 d          21.903  -3.868 -12.064  0.00  0.00    -0.082 A 
ATOM     21  H3  G97 d          20.739  -4.814 -10.527  0.00  0.00     0.083 H 
ATOM     22  CAI G97 d          22.018  -2.776 -12.930  0.00  0.00    -0.069 A 
ATOM     23  H4  G97 d          22.665  -4.638 -12.062  0.00  0.00     0.083 H 
ATOM     24  H5  G97 d          22.868  -2.691 -13.598  0.00  0.00     0.085 H 
ENDBRANCH   1  14
BRANCH  10  25
ATOM     25  NAR G97 d          20.067   2.701 -14.057  0.00  0.00    -0.325 N 
ATOM     26  H13 G97 d          20.061   3.439 -14.775  0.00  0.00     0.169 HD
BRANCH  25  27
ATOM     27  CAV G97 d          19.520   2.986 -12.849  0.00  0.00     0.124 A 
ATOM     28  CAJ G97 d          19.778   4.082 -12.141  0.00  0.00    -0.021 A 
ATOM     29  CAG G97 d          19.047   3.964 -11.029  0.00  0.00     0.025 A 
ATOM     30  H14 G97 d          20.443   4.901 -12.410  0.00  0.00     0.091 H 
ATOM     31  NAS G97 d          18.379   2.801 -11.094  0.00  0.00    -0.186 NA
ATOM     32  H15 G97 d          19.002   4.684 -10.213  0.00  0.00     0.117 H 
ATOM     33  NAN G97 d          18.654   2.228 -12.159  0.00  0.00    -0.263 N 
ATOM     34  H16 G97 d          18.278   1.318 -12.465  0.00  0.00     0.190 HD
ENDBRANCH  25  27
ENDBRANCH  10  25
BRANCH   6  35
ATOM     35  NAQ G97 d          23.236   0.499 -19.193  0.00  0.00    -0.324 N 
ATOM     36  CAT G97 d          23.542  -0.723 -19.650  0.00  0.00     0.244 C 
ATOM     37  OAB G97 d          23.264  -1.776 -19.067  0.00  0.00    -0.268 OA
ATOM     38  H7  G97 d          23.510   1.266 -19.771  0.00  0.00     0.169 HD
BRANCH  36  39
ATOM     39  CAC G97 d          24.212  -0.794 -20.874  0.00  0.00    -0.026 C 
ATOM     40  CAA G97 d          25.393  -1.522 -21.012  0.00  0.00    -0.116 C 
ATOM     41  H9  G97 d          25.897  -1.564 -21.976  0.00  0.00     0.067 H 
ATOM     42  H10 G97 d          25.810  -2.050 -20.155  0.00  0.00     0.067 H 
ATOM     43  H8  G97 d          23.804  -0.270 -21.737  0.00  0.00     0.090 H 
ENDBRANCH  36  39
ENDBRANCH   6  35
TORSDOF 5
ENDMDL
MODEL 8
REMARK VINA RESULT:      -7.8      3.042      9.012
REMARK  5 active torsions:
REMARK  status: ('A' for Active; 'I' for Inactive)
REMARK    1  A    between atoms: CAW_6  and  C2_7 
REMARK    2  A    between atoms: CAU_12  and  NAQ_13 
REMARK       I    between atoms: NAQ_13  and  CAT_14 
REMARK    3  A    between atoms: CAT_14  and  CAC_16 
REMARK    4  A    between atoms: C6_21  and  NAR_22 
REMARK    5  A    between atoms: NAR_22  and  CAV_23 
ROOT
ATOM      1  C2  G97 d          20.366   1.743 -14.080  0.00  0.00     0.162 A 
ATOM      2  N1  G97 d          20.696   0.447 -13.877  0.00  0.00    -0.210 NA
ATOM      3  N3  G97 d          20.720   2.377 -15.216  0.00  0.00    -0.228 NA
ATOM      4  C4  G97 d          21.394   1.732 -16.178  0.00  0.00     0.075 A 
ATOM      5  CAM G97 d          21.730   2.415 -17.347  0.00  0.00    -0.028 A 
ATOM      6  CAU G97 d          22.419   1.768 -18.370  0.00  0.00     0.037 A 
ATOM      7  CAK G97 d          22.776   0.417 -18.202  0.00  0.00    -0.056 A 
ATOM      8  CAL G97 d          22.440  -0.267 -17.025  0.00  0.00    -0.065 A 
ATOM      9  C5  G97 d          21.743   0.388 -16.001  0.00  0.00     0.039 A 
ATOM     10  C6  G97 d          21.374  -0.256 -14.809  0.00  0.00     0.144 A 
ATOM     11  H6  G97 d          21.453   3.457 -17.459  0.00  0.00     0.090 H 
ATOM     12  H11 G97 d          23.314  -0.099 -18.989  0.00  0.00     0.086 H 
ATOM     13  H12 G97 d          22.721  -1.307 -16.906  0.00  0.00     0.085 H 
ENDROOT
BRANCH   1  14
ATOM     14  CAW G97 d          19.689   2.485 -13.117  0.00  0.00     0.012 A 
ATOM     15  CAH G97 d          19.046   1.837 -12.053  0.00  0.00    -0.069 A 
ATOM     16  CAE G97 d          18.390   2.563 -11.060  0.00  0.00    -0.082 A 
ATOM     17  H1  G97 d          19.059   0.755 -12.002  0.00  0.00     0.085 H 
ATOM     18  CAD G97 d          18.385   3.950 -11.146  0.00  0.00    -0.083 A 
ATOM     19  H2  G97 d          17.894   2.057 -10.239  0.00  0.00     0.083 H 
ATOM     20  CAF G97 d          19.035   4.611 -12.191  0.00  0.00    -0.082 A 
ATOM     21  H3  G97 d          17.869   4.529 -10.389  0.00  0.00     0.083 H 
ATOM     22  CAI G97 d          19.691   3.881 -13.186  0.00  0.00    -0.069 A 
ATOM     23  H4  G97 d          19.031   5.695 -12.230  0.00  0.00     0.083 H 
ATOM     24  H5  G97 d          20.194   4.390 -14.001  0.00  0.00     0.085 H 
ENDBRANCH   1  14
BRANCH  10  25
ATOM     25  NAR G97 d          21.685  -1.550 -14.582  0.00  0.00    -0.325 N 
ATOM     26  H13 G97 d          22.187  -2.062 -15.322  0.00  0.00     0.169 HD
BRANCH  25  27
ATOM     27  CAV G97 d          21.377  -2.220 -13.443  0.00  0.00     0.124 A 
ATOM     28  CAJ G97 d          22.190  -3.071 -12.823  0.00  0.00    -0.021 A 
ATOM     29  CAG G97 d          21.503  -3.505 -11.763  0.00  0.00     0.025 A 
ATOM     30  H14 G97 d          23.200  -3.353 -13.117  0.00  0.00     0.091 H 
ATOM     31  NAS G97 d          20.298  -2.913 -11.778  0.00  0.00    -0.186 NA
ATOM     32  H15 G97 d          21.859  -4.215 -11.017  0.00  0.00     0.117 H 
ATOM     33  NAN G97 d          20.223  -2.159 -12.762  0.00  0.00    -0.263 N 
ATOM     34  H16 G97 d          19.408  -1.581 -13.013  0.00  0.00     0.190 HD
ENDBRANCH  25  27
ENDBRANCH  10  25
BRANCH   6  35
ATOM     35  NAQ G97 d          22.724   2.496 -19.464  0.00  0.00    -0.324 N 
ATOM     36  CAT G97 d          23.093   3.782 -19.514  0.00  0.00     0.244 C 
ATOM     37  OAB G97 d          23.225   4.511 -18.524  0.00  0.00    -0.268 OA
ATOM     38  H7  G97 d          22.668   2.019 -20.340  0.00  0.00     0.169 HD
BRANCH  36  39
ATOM     39  CAC G97 d          23.354   4.319 -20.777  0.00  0.00    -0.026 C 
ATOM     40  CAA G97 d          22.961   3.658 -21.940  0.00  0.00    -0.116 C 
ATOM     41  H9  G97 d          23.175   4.096 -22.914  0.00  0.00     0.067 H 
ATOM     42  H10 G97 d          22.440   2.703 -21.874  0.00  0.00     0.067 H 
ATOM     43  H8  G97 d          23.875   5.272 -20.855  0.00  0.00     0.090 H 
ENDBRANCH  36  39
ENDBRANCH   6  35
TORSDOF 5
ENDMDL
