MODEL 1
REMARK VINA RESULT:      -7.4      0.000      0.000
REMARK  4 active torsions:
REMARK  status: ('A' for Active; 'I' for Inactive)
REMARK    1  A    between atoms: CG_4  and  CD_1 
REMARK    2  A    between atoms: CA_8  and  C_5 
REMARK    3  A    between atoms: CA_8  and  N_9 
REMARK    4  A    between atoms: CA_8  and  CB_10 
ROOT
ATOM      1  CG  G8M d           6.297  27.234  20.554  0.00  0.00     0.036 C 
ATOM      2  CB  G8M d           7.654  27.128  19.813  0.00  0.00    -0.004 C 
ATOM      3  C6  G8M d           8.332  27.762  21.044  0.00  0.00    -0.058 C 
ATOM      4  C7  G8M d           6.952  28.232  21.535  0.00  0.00    -0.052 C 
ATOM      5  H1  G8M d           5.468  27.639  19.955  0.00  0.00     0.057 H 
ATOM      6  H6  G8M d           7.693  27.806  18.947  0.00  0.00     0.045 H 
ATOM      7  H7  G8M d           9.030  28.579  20.807  0.00  0.00     0.033 H 
ATOM      8  H8  G8M d           8.827  27.040  21.711  0.00  0.00     0.033 H 
ATOM      9  H9  G8M d           6.752  28.023  22.597  0.00  0.00     0.034 H 
ATOM     10  H10 G8M d           6.730  29.289  21.322  0.00  0.00     0.034 H 
ENDROOT
BRANCH   2  11
ATOM     11  CA  G8M d           8.118  25.745  19.276  0.00  0.00     0.186 C 
ATOM     12  H2  G8M d           7.748  24.981  19.975  0.00  0.00     0.102 H 
BRANCH  11  13
ATOM     13  C   G8M d           7.533  25.443  17.878  0.00  0.00     0.204 C 
ATOM     14  OXT G8M d           6.363  25.770  17.614  0.00  0.00    -0.646 OA
ATOM     15  O   G8M d           8.243  24.872  17.027  0.00  0.00    -0.646 OA
ENDBRANCH  11  13
BRANCH  11  16
ATOM     16  N   G8M d           9.591  25.626  19.206  0.00  0.00    -0.065 N 
ATOM     17  H3  G8M d           9.840  24.946  18.506  0.00  0.00     0.275 HD
ATOM     18  H4  G8M d           9.947  25.332  20.103  0.00  0.00     0.275 HD
ATOM     19  H5  G8M d           9.989  26.520  18.964  0.00  0.00     0.275 HD
ENDBRANCH  11  16
ENDBRANCH   2  11
BRANCH   1  20
ATOM     20  CD  G8M d           5.873  25.918  21.242  0.00  0.00     0.177 C 
ATOM     21  OE1 G8M d           5.065  25.166  20.653  0.00  0.00    -0.648 OA
ATOM     22  OE2 G8M d           6.348  25.616  22.360  0.00  0.00    -0.648 OA
ENDBRANCH   1  20
TORSDOF 4
ENDMDL
MODEL 2
REMARK VINA RESULT:      -5.7      2.190      2.778
REMARK  4 active torsions:
REMARK  status: ('A' for Active; 'I' for Inactive)
REMARK    1  A    between atoms: CG_4  and  CD_1 
REMARK    2  A    between atoms: CA_8  and  C_5 
REMARK    3  A    between atoms: CA_8  and  N_9 
REMARK    4  A    between atoms: CA_8  and  CB_10 
ROOT
ATOM      1  CG  G8M d           7.163  26.516  21.827  0.00  0.00     0.036 C 
ATOM      2  CB  G8M d           6.399  25.936  20.609  0.00  0.00    -0.004 C 
ATOM      3  C6  G8M d           5.077  26.265  21.330  0.00  0.00    -0.058 C 
ATOM      4  C7  G8M d           5.857  26.414  22.647  0.00  0.00    -0.052 C 
ATOM      5  H1  G8M d           7.997  25.898  22.192  0.00  0.00     0.057 H 
ATOM      6  H6  G8M d           6.544  24.849  20.524  0.00  0.00     0.045 H 
ATOM      7  H7  G8M d           4.344  25.445  21.329  0.00  0.00     0.033 H 
ATOM      8  H8  G8M d           4.591  27.191  20.986  0.00  0.00     0.033 H 
ATOM      9  H9  G8M d           5.610  27.319  23.222  0.00  0.00     0.034 H 
ATOM     10  H10 G8M d           5.804  25.535  23.308  0.00  0.00     0.034 H 
ENDROOT
BRANCH   2  11
ATOM     11  CA  G8M d           6.693  26.504  19.191  0.00  0.00     0.186 C 
ATOM     12  H2  G8M d           7.175  27.484  19.324  0.00  0.00     0.102 H 
BRANCH  11  13
ATOM     13  C   G8M d           7.657  25.596  18.395  0.00  0.00     0.204 C 
ATOM     14  OXT G8M d           7.250  24.999  17.383  0.00  0.00    -0.646 OA
ATOM     15  O   G8M d           8.837  25.472  18.777  0.00  0.00    -0.646 OA
ENDBRANCH  11  13
BRANCH  11  16
ATOM     16  N   G8M d           5.464  26.703  18.392  0.00  0.00    -0.065 N 
ATOM     17  H3  G8M d           5.316  25.903  17.798  0.00  0.00     0.275 HD
ATOM     18  H4  G8M d           5.563  27.531  17.824  0.00  0.00     0.275 HD
ATOM     19  H5  G8M d           4.675  26.813  19.011  0.00  0.00     0.275 HD
ENDBRANCH  11  16
ENDBRANCH   2  11
BRANCH   1  20
ATOM     20  CD  G8M d           7.621  27.976  21.622  0.00  0.00     0.177 C 
ATOM     21  OE1 G8M d           8.591  28.199  20.863  0.00  0.00    -0.648 OA
ATOM     22  OE2 G8M d           7.017  28.908  22.198  0.00  0.00    -0.648 OA
ENDBRANCH   1  20
TORSDOF 4
ENDMDL
MODEL 3
REMARK VINA RESULT:      -5.1      1.654      2.393
REMARK  4 active torsions:
REMARK  status: ('A' for Active; 'I' for Inactive)
REMARK    1  A    between atoms: CG_4  and  CD_1 
REMARK    2  A    between atoms: CA_8  and  C_5 
REMARK    3  A    between atoms: CA_8  and  N_9 
REMARK    4  A    between atoms: CA_8  and  CB_10 
ROOT
ATOM      1  CG  G8M d           6.405  26.197  21.537  0.00  0.00     0.036 C 
ATOM      2  CB  G8M d           6.588  25.683  20.086  0.00  0.00    -0.004 C 
ATOM      3  C6  G8M d           5.430  26.605  19.655  0.00  0.00    -0.058 C 
ATOM      4  C7  G8M d           5.017  26.741  21.131  0.00  0.00    -0.052 C 
ATOM      5  H1  G8M d           6.395  25.415  22.311  0.00  0.00     0.057 H 
ATOM      6  H6  G8M d           6.304  24.624  19.996  0.00  0.00     0.045 H 
ATOM      7  H7  G8M d           4.677  26.118  19.018  0.00  0.00     0.033 H 
ATOM      8  H8  G8M d           5.752  27.547  19.186  0.00  0.00     0.033 H 
ATOM      9  H9  G8M d           4.823  27.775  21.454  0.00  0.00     0.034 H 
ATOM     10  H10 G8M d           4.174  26.100  21.427  0.00  0.00     0.034 H 
ENDROOT
BRANCH   2  11
ATOM     11  CA  G8M d           7.985  25.795  19.413  0.00  0.00     0.186 C 
ATOM     12  H2  G8M d           8.647  25.072  19.911  0.00  0.00     0.102 H 
BRANCH  11  13
ATOM     13  C   G8M d           7.931  25.442  17.909  0.00  0.00     0.204 C 
ATOM     14  OXT G8M d           8.968  25.490  17.226  0.00  0.00    -0.646 OA
ATOM     15  O   G8M d           6.843  25.113  17.396  0.00  0.00    -0.646 OA
ENDBRANCH  11  13
BRANCH  11  16
ATOM     16  N   G8M d           8.582  27.140  19.562  0.00  0.00    -0.065 N 
ATOM     17  H3  G8M d           7.865  27.798  19.826  0.00  0.00     0.275 HD
ATOM     18  H4  G8M d           8.992  27.424  18.685  0.00  0.00     0.275 HD
ATOM     19  H5  G8M d           9.295  27.115  20.274  0.00  0.00     0.275 HD
ENDBRANCH  11  16
ENDBRANCH   2  11
BRANCH   1  20
ATOM     20  CD  G8M d           7.395  27.319  21.916  0.00  0.00     0.177 C 
ATOM     21  OE1 G8M d           8.420  27.020  22.568  0.00  0.00    -0.648 OA
ATOM     22  OE2 G8M d           7.170  28.498  21.560  0.00  0.00    -0.648 OA
ENDBRANCH   1  20
TORSDOF 4
ENDMDL
