MODEL 1
REMARK VINA RESULT:     -10.2      0.000      0.000
REMARK  5 active torsions:
REMARK  status: ('A' for Active; 'I' for Inactive)
REMARK    1  A    between atoms: O1_1  and  C1_2 
REMARK    2  A    between atoms: C1_2  and  C2_3 
REMARK    3  A    between atoms: C6_8  and  S1_13 
REMARK    4  A    between atoms: S1_13  and  N2_16 
REMARK    5  A    between atoms: N2_16  and  C11_17 
ROOT
ATOM      1  C2  F83 d          28.600  45.077  20.553  0.00  0.00     0.126 C 
ATOM      2  N1  F83 d          28.879  43.636  20.465  0.00  0.00    -0.065 N 
ATOM      3  C3  F83 d          28.132  43.038  19.349  0.00  0.00     0.106 C 
ATOM      4  C4  F83 d          28.372  43.807  18.043  0.00  0.00    -0.025 A 
ATOM      5  C5  F83 d          28.021  43.216  16.835  0.00  0.00    -0.052 A 
ATOM      6  C6  F83 d          28.182  43.914  15.642  0.00  0.00     0.080 A 
ATOM      7  C7  F83 d          28.698  45.206  15.658  0.00  0.00    -0.060 A 
ATOM      8  C8  F83 d          29.053  45.799  16.866  0.00  0.00    -0.075 A 
ATOM      9  C9  F83 d          28.892  45.101  18.061  0.00  0.00    -0.048 A 
ATOM     10  C10 F83 d          29.291  45.769  19.376  0.00  0.00    -0.012 C 
ATOM     11  H4  F83 d          27.515  45.247  20.498  0.00  0.00     0.088 H 
ATOM     12  H5  F83 d          28.603  43.190  21.326  0.00  0.00     0.278 HD
ATOM     13  H6  F83 d          29.866  43.497  20.316  0.00  0.00     0.278 HD
ATOM     14  H7  F83 d          27.058  43.058  19.585  0.00  0.00     0.083 H 
ATOM     15  H8  F83 d          28.459  41.996  19.216  0.00  0.00     0.083 H 
ATOM     16  H9  F83 d          27.622  42.209  16.822  0.00  0.00     0.086 H 
ATOM     17  H10 F83 d          28.824  45.751  14.729  0.00  0.00     0.085 H 
ATOM     18  H11 F83 d          29.456  46.805  16.877  0.00  0.00     0.084 H 
ATOM     19  H12 F83 d          30.382  45.699  19.503  0.00  0.00     0.043 H 
ATOM     20  H13 F83 d          28.993  46.828  19.351  0.00  0.00     0.043 H 
ENDROOT
BRANCH   6  21
ATOM     21  S1  F83 d          27.725  43.173  14.125  0.00  0.00     0.263 S 
ATOM     22  O2  F83 d          26.299  43.043  14.057  0.00  0.00    -0.200 OA
ATOM     23  O3  F83 d          28.346  41.810  14.028  0.00  0.00    -0.200 OA
BRANCH  21  24
ATOM     24  N2  F83 d          28.272  44.086  12.893  0.00  0.00    -0.281 N 
ATOM     25  H14 F83 d          29.259  44.136  12.742  0.00  0.00     0.179 HD
BRANCH  24  26
ATOM     26  C11 F83 d          27.390  44.841  11.991  0.00  0.00     0.042 A 
ATOM     27  C12 F83 d          26.386  45.666  12.491  0.00  0.00    -0.055 A 
ATOM     28  C13 F83 d          25.613  46.431  11.620  0.00  0.00    -0.060 A 
ATOM     29  H15 F83 d          26.204  45.713  13.559  0.00  0.00     0.087 H 
ATOM     30  C14 F83 d          25.842  46.374  10.245  0.00  0.00     0.034 A 
ATOM     31  H16 F83 d          24.832  47.072  12.011  0.00  0.00     0.086 H 
ATOM     32  C15 F83 d          26.840  45.544   9.747  0.00  0.00    -0.060 A 
ATOM     33 CL1  F83 d          24.912  47.345   9.156  0.00  0.00    -0.084 Cl
ATOM     34  C16 F83 d          27.612  44.776  10.619  0.00  0.00    -0.055 A 
ATOM     35  H17 F83 d          27.018  45.493   8.678  0.00  0.00     0.086 H 
ATOM     36  H18 F83 d          28.387  44.128  10.227  0.00  0.00     0.087 H 
ENDBRANCH  24  26
ENDBRANCH  21  24
ENDBRANCH   6  21
BRANCH   1  37
ATOM     37  C1  F83 d          29.134  45.637  21.872  0.00  0.00     0.044 C 
ATOM     38  H2  F83 d          30.172  45.305  22.021  0.00  0.00     0.077 H 
ATOM     39  H3  F83 d          29.101  46.736  21.847  0.00  0.00     0.077 H 
BRANCH  37  40
ATOM     40  O1  F83 d          28.315  45.155  22.942  0.00  0.00    -0.399 OA
ATOM     41  H1  F83 d          27.725  45.844  23.222  0.00  0.00     0.209 HD
ENDBRANCH  37  40
ENDBRANCH   1  37
TORSDOF 5
ENDMDL
MODEL 2
REMARK VINA RESULT:      -9.4      1.219      2.115
REMARK  5 active torsions:
REMARK  status: ('A' for Active; 'I' for Inactive)
REMARK    1  A    between atoms: O1_1  and  C1_2 
REMARK    2  A    between atoms: C1_2  and  C2_3 
REMARK    3  A    between atoms: C6_8  and  S1_13 
REMARK    4  A    between atoms: S1_13  and  N2_16 
REMARK    5  A    between atoms: N2_16  and  C11_17 
ROOT
ATOM      1  C2  F83 d          29.432  44.916  20.500  0.00  0.00     0.126 C 
ATOM      2  N1  F83 d          29.139  46.146  19.749  0.00  0.00    -0.065 N 
ATOM      3  C3  F83 d          29.429  45.955  18.321  0.00  0.00     0.106 C 
ATOM      4  C4  F83 d          28.732  44.702  17.775  0.00  0.00    -0.025 A 
ATOM      5  C5  F83 d          28.619  44.535  16.400  0.00  0.00    -0.052 A 
ATOM      6  C6  F83 d          28.037  43.383  15.880  0.00  0.00     0.080 A 
ATOM      7  C7  F83 d          27.563  42.397  16.739  0.00  0.00    -0.060 A 
ATOM      8  C8  F83 d          27.672  42.563  18.117  0.00  0.00    -0.075 A 
ATOM      9  C9  F83 d          28.255  43.715  18.638  0.00  0.00    -0.048 A 
ATOM     10  C10 F83 d          28.361  43.879  20.154  0.00  0.00    -0.012 C 
ATOM     11  H4  F83 d          30.424  44.536  20.214  0.00  0.00     0.088 H 
ATOM     12  H5  F83 d          29.708  46.897  20.107  0.00  0.00     0.278 HD
ATOM     13  H6  F83 d          28.165  46.379  19.862  0.00  0.00     0.278 HD
ATOM     14  H7  F83 d          30.515  45.847  18.188  0.00  0.00     0.083 H 
ATOM     15  H8  F83 d          29.075  46.834  17.762  0.00  0.00     0.083 H 
ATOM     16  H9  F83 d          28.986  45.304  15.730  0.00  0.00     0.086 H 
ATOM     17  H10 F83 d          27.110  41.498  16.335  0.00  0.00     0.085 H 
ATOM     18  H11 F83 d          27.301  41.794  18.785  0.00  0.00     0.084 H 
ATOM     19  H12 F83 d          27.391  44.211  20.552  0.00  0.00     0.043 H 
ATOM     20  H13 F83 d          28.631  42.913  20.605  0.00  0.00     0.043 H 
ENDROOT
BRANCH   6  21
ATOM     21  S1  F83 d          27.911  43.170  14.149  0.00  0.00     0.263 S 
ATOM     22  O2  F83 d          28.212  41.812  13.802  0.00  0.00    -0.200 OA
ATOM     23  O3  F83 d          28.887  44.079  13.461  0.00  0.00    -0.200 OA
BRANCH  21  24
ATOM     24  N2  F83 d          26.405  43.559  13.666  0.00  0.00    -0.281 N 
ATOM     25  H14 F83 d          25.634  43.092  14.099  0.00  0.00     0.179 HD
BRANCH  24  26
ATOM     26  C11 F83 d          26.121  44.560  12.627  0.00  0.00     0.042 A 
ATOM     27  C12 F83 d          26.645  44.433  11.343  0.00  0.00    -0.055 A 
ATOM     28  C13 F83 d          26.299  45.352  10.356  0.00  0.00    -0.060 A 
ATOM     29  H15 F83 d          27.324  43.620  11.113  0.00  0.00     0.087 H 
ATOM     30  C14 F83 d          25.426  46.401  10.646  0.00  0.00     0.034 A 
ATOM     31  H16 F83 d          26.708  45.252   9.357  0.00  0.00     0.086 H 
ATOM     32  C15 F83 d          24.910  46.530  11.931  0.00  0.00    -0.060 A 
ATOM     33 CL1  F83 d          24.963  47.528   9.419  0.00  0.00    -0.084 Cl
ATOM     34  C16 F83 d          25.258  45.612  12.921  0.00  0.00    -0.055 A 
ATOM     35  H17 F83 d          24.235  47.347  12.163  0.00  0.00     0.086 H 
ATOM     36  H18 F83 d          24.857  45.717  13.922  0.00  0.00     0.087 H 
ENDBRANCH  24  26
ENDBRANCH  21  24
ENDBRANCH   6  21
BRANCH   1  37
ATOM     37  C1  F83 d          29.414  45.199  22.003  0.00  0.00     0.044 C 
ATOM     38  H2  F83 d          28.686  44.537  22.495  0.00  0.00     0.077 H 
ATOM     39  H3  F83 d          30.414  45.022  22.425  0.00  0.00     0.077 H 
BRANCH  37  40
ATOM     40  O1  F83 d          29.039  46.564  22.210  0.00  0.00    -0.399 OA
ATOM     41  H1  F83 d          28.717  46.672  23.097  0.00  0.00     0.209 HD
ENDBRANCH  37  40
ENDBRANCH   1  37
TORSDOF 5
ENDMDL
MODEL 3
REMARK VINA RESULT:      -7.7      3.630      8.441
REMARK  5 active torsions:
REMARK  status: ('A' for Active; 'I' for Inactive)
REMARK    1  A    between atoms: O1_1  and  C1_2 
REMARK    2  A    between atoms: C1_2  and  C2_3 
REMARK    3  A    between atoms: C6_8  and  S1_13 
REMARK    4  A    between atoms: S1_13  and  N2_16 
REMARK    5  A    between atoms: N2_16  and  C11_17 
ROOT
ATOM      1  C2  F83 d          26.023  46.001   9.894  0.00  0.00     0.126 C 
ATOM      2  N1  F83 d          27.073  45.023   9.571  0.00  0.00    -0.065 N 
ATOM      3  C3  F83 d          27.946  44.809  10.734  0.00  0.00     0.106 C 
ATOM      4  C4  F83 d          27.131  44.467  11.987  0.00  0.00    -0.025 A 
ATOM      5  C5  F83 d          27.779  43.920  13.088  0.00  0.00    -0.052 A 
ATOM      6  C6  F83 d          27.070  43.649  14.254  0.00  0.00     0.080 A 
ATOM      7  C7  F83 d          25.708  43.923  14.318  0.00  0.00    -0.060 A 
ATOM      8  C8  F83 d          25.055  44.468  13.216  0.00  0.00    -0.075 A 
ATOM      9  C9  F83 d          25.765  44.740  12.048  0.00  0.00    -0.048 A 
ATOM     10  C10 F83 d          25.028  45.335  10.849  0.00  0.00    -0.012 C 
ATOM     11  H4  F83 d          26.473  46.879  10.380  0.00  0.00     0.088 H 
ATOM     12  H5  F83 d          27.623  45.369   8.801  0.00  0.00     0.278 HD
ATOM     13  H6  F83 d          26.644  44.149   9.313  0.00  0.00     0.278 HD
ATOM     14  H7  F83 d          28.525  45.726  10.921  0.00  0.00     0.083 H 
ATOM     15  H8  F83 d          28.635  43.979  10.517  0.00  0.00     0.083 H 
ATOM     16  H9  F83 d          28.840  43.703  13.038  0.00  0.00     0.086 H 
ATOM     17  H10 F83 d          25.154  43.713  15.226  0.00  0.00     0.085 H 
ATOM     18  H11 F83 d          23.994  44.681  13.266  0.00  0.00     0.084 H 
ATOM     19  H12 F83 d          24.494  44.535  10.316  0.00  0.00     0.043 H 
ATOM     20  H13 F83 d          24.306  46.086  11.202  0.00  0.00     0.043 H 
ENDROOT
BRANCH   6  21
ATOM     21  S1  F83 d          27.893  42.974  15.643  0.00  0.00     0.263 S 
ATOM     22  O2  F83 d          28.680  41.845  15.241  0.00  0.00    -0.200 OA
ATOM     23  O3  F83 d          26.880  42.530  16.656  0.00  0.00    -0.200 OA
BRANCH  21  24
ATOM     24  N2  F83 d          28.840  44.116  16.315  0.00  0.00    -0.281 N 
ATOM     25  H14 F83 d          29.432  44.654  15.715  0.00  0.00     0.179 HD
BRANCH  24  26
ATOM     26  C11 F83 d          28.870  44.397  17.758  0.00  0.00     0.042 A 
ATOM     27  C12 F83 d          29.382  45.595  18.247  0.00  0.00    -0.055 A 
ATOM     28  C13 F83 d          29.329  45.870  19.612  0.00  0.00    -0.060 A 
ATOM     29  H15 F83 d          29.824  46.314  17.567  0.00  0.00     0.087 H 
ATOM     30  C14 F83 d          28.762  44.949  20.492  0.00  0.00     0.034 A 
ATOM     31  H16 F83 d          29.729  46.804  19.991  0.00  0.00     0.086 H 
ATOM     32  C15 F83 d          28.258  43.749  20.003  0.00  0.00    -0.060 A 
ATOM     33 CL1  F83 d          28.660  45.295  22.184  0.00  0.00    -0.084 Cl
ATOM     34  C16 F83 d          28.314  43.472  18.637  0.00  0.00    -0.055 A 
ATOM     35  H17 F83 d          27.821  43.028  20.684  0.00  0.00     0.086 H 
ATOM     36  H18 F83 d          27.923  42.535  18.259  0.00  0.00     0.087 H 
ENDBRANCH  24  26
ENDBRANCH  21  24
ENDBRANCH   6  21
BRANCH   1  37
ATOM     37  C1  F83 d          25.303  46.442   8.619  0.00  0.00     0.044 C 
ATOM     38  H2  F83 d          25.980  46.340   7.758  0.00  0.00     0.077 H 
ATOM     39  H3  F83 d          24.413  45.815   8.461  0.00  0.00     0.077 H 
BRANCH  37  40
ATOM     40  O1  F83 d          24.910  47.810   8.762  0.00  0.00    -0.399 OA
ATOM     41  H1  F83 d          25.519  48.255   9.338  0.00  0.00     0.209 HD
ENDBRANCH  37  40
ENDBRANCH   1  37
TORSDOF 5
ENDMDL
