REMARK  4 active torsions:
REMARK  status: ('A' for Active; 'I' for Inactive)
REMARK    1  A    between atoms: CA_3  and  N_2 
REMARK    2  A    between atoms: CA_3  and  C_4 
REMARK    3  A    between atoms: CB_10  and  CA_3 
REMARK    4  A    between atoms: CG_9  and  CB_10 
ROOT
ATOM      1  CB  R2P d         -30.493  -4.929  42.307  0.00  0.00     0.016 C 
ATOM      2  H6  R2P d         -29.445  -5.027  42.626  0.00  0.00     0.046 H 
ATOM      3  H7  R2P d         -30.528  -4.591  41.261  0.00  0.00     0.046 H 
ENDROOT
BRANCH   1   4
ATOM      4  CA  R2P d         -31.214  -3.862  43.220  0.00  0.00     0.187 C 
ATOM      5  H4  R2P d         -32.243  -3.771  42.843  0.00  0.00     0.101 H 
BRANCH   4   6
ATOM      6  N   R2P d         -31.308  -4.116  44.716  0.00  0.00    -0.065 N 
ATOM      7  H1  R2P d         -31.773  -4.995  44.879  0.00  0.00     0.275 HD
ATOM      8  H2  R2P d         -31.832  -3.373  45.151  0.00  0.00     0.275 HD
ATOM      9  H3  R2P d         -30.381  -4.148  45.110  0.00  0.00     0.275 HD
ENDBRANCH   4   6
BRANCH   4  10
ATOM     10  C   R2P d         -30.495  -2.507  43.060  0.00  0.00     0.204 C 
ATOM     11  O   R2P d         -30.464  -1.764  44.163  0.00  0.00    -0.646 OA
ATOM     12  O   R2P d         -30.050  -2.223  41.960  0.00  0.00    -0.646 OA
ENDBRANCH   4  10
ENDBRANCH   1   4
BRANCH   1  13
ATOM     13  CG  R2P d         -31.178  -6.287  42.417  0.00  0.00     0.101 A 
ATOM     14  N1  R2P d         -32.230  -6.576  43.172  0.00  0.00    -0.195 NA
ATOM     15  SE1 R2P d         -32.650  -8.206  42.973  0.00  0.00     0.093 SA
ATOM     16  N2  R2P d         -31.456  -8.546  41.897  0.00  0.00    -0.287 N 
ATOM     17  CD2 R2P d         -30.723  -7.444  41.671  0.00  0.00     0.211 A 
ATOM     18  H5  R2P d         -31.299  -9.439  41.474  0.00  0.00     0.178 HD
ATOM     19  O2  R2P d         -29.681  -7.388  40.847  0.00  0.00    -0.169 OA
ENDBRANCH   1  13
TORSDOF 4
