MODEL 1
REMARK VINA RESULT:      -9.8      0.000      0.000
REMARK  11 active torsions:
REMARK  status: ('A' for Active; 'I' for Inactive)
REMARK    1  A    between atoms: N10_10  and  C1_1 
REMARK    2  A    between atoms: C2_2  and  O3_3 
REMARK    3  A    between atoms: C4_4  and  O5_5 
REMARK    4  A    between atoms: C6_6  and  C14_14 
REMARK    5  A    between atoms: C35_35  and  C7_7 
REMARK    6  A    between atoms: C15_15  and  C16_16 
REMARK    7  A    between atoms: C16_16  and  N17_17 
REMARK       I    between atoms: N17_17  and  C18_18 
REMARK    8  A    between atoms: C18_18  and  C20_20 
REMARK    9  A    between atoms: C22_22  and  C24_24 
REMARK   10  A    between atoms: C31_31  and  O32_32 
REMARK   11  A    between atoms: C33_33  and  O34_34 
ROOT
ATOM      1  C14 MOL d          -3.280  18.096  14.102  0.00  0.00    -0.075 C 
ATOM      2  C15 MOL d          -2.393  17.193  13.769  0.00  0.00    -0.087 C 
ATOM      3  H11 MOL d          -4.331  17.831  14.214  0.00  0.00     0.080 H 
ATOM      4  H12 MOL d          -1.343  17.475  13.703  0.00  0.00     0.079 H 
ENDROOT
BRANCH   2   5
ATOM      5  C16 MOL d          -2.790  15.797  13.481  0.00  0.00     0.010 C 
ATOM      6  H13 MOL d          -2.139  15.344  12.719  0.00  0.00     0.070 H 
ATOM      7  H14 MOL d          -3.838  15.736  13.152  0.00  0.00     0.070 H 
BRANCH   5   8
ATOM      8  N17 MOL d          -2.604  15.164  14.786  0.00  0.00    -0.353 N 
ATOM      9  C18 MOL d          -2.723  13.803  14.759  0.00  0.00     0.254 C 
ATOM     10  O19 MOL d          -3.047  13.221  13.720  0.00  0.00    -0.268 OA
ATOM     11  H15 MOL d          -2.408  15.680  15.620  0.00  0.00     0.163 HD
BRANCH   9  12
ATOM     12  C20 MOL d          -2.640  13.101  16.042  0.00  0.00     0.068 A 
ATOM     13  C21 MOL d          -1.587  12.180  16.204  0.00  0.00    -0.054 A 
ATOM     14  C22 MOL d          -1.416  11.498  17.409  0.00  0.00    -0.022 A 
ATOM     15  H16 MOL d          -0.902  11.998  15.384  0.00  0.00     0.086 H 
ATOM     16  C23 MOL d          -2.290  11.689  18.498  0.00  0.00    -0.037 A 
ATOM     17  C33 MOL d          -3.328  12.609  18.307  0.00  0.00     0.100 A 
ATOM     18  H17 MOL d          -2.166  11.153  19.432  0.00  0.00     0.089 H 
ATOM     19  C31 MOL d          -3.476  13.343  17.129  0.00  0.00     0.114 A 
BRANCH  14  20
ATOM     20  C24 MOL d          -0.284  10.528  17.502  0.00  0.00    -0.026 A 
ATOM     21  C25 MOL d           0.553  10.394  16.413  0.00  0.00    -0.069 A 
ATOM     22  C26 MOL d           1.585   9.467  16.522  0.00  0.00    -0.045 A 
ATOM     23  H18 MOL d           0.413  10.984  15.514  0.00  0.00     0.085 H 
ATOM     24  C29 MOL d           1.692   8.774  17.726  0.00  0.00     0.116 A 
ATOM     25  H19 MOL d           2.275   9.291  15.705  0.00  0.00     0.088 H 
ATOM     26  C28 MOL d           0.851   8.868  18.805  0.00  0.00    -0.045 A 
ATOM     27  F30 MOL d           2.682   7.807  17.917  0.00  0.00    -0.206 F 
ATOM     28  C27 MOL d          -0.164   9.826  18.682  0.00  0.00    -0.069 A 
ATOM     29  H21 MOL d           0.963   8.248  19.687  0.00  0.00     0.088 H 
ATOM     30  H20 MOL d          -0.847  10.012  19.503  0.00  0.00     0.085 H 
ENDBRANCH  14  20
BRANCH  17  31
ATOM     31  O34 MOL d          -4.207  12.815  19.375  0.00  0.00    -0.358 OA
ATOM     32  H23 MOL d          -4.981  12.277  19.254  0.00  0.00     0.217 HD
ENDBRANCH  17  31
BRANCH  19  33
ATOM     33  O32 MOL d          -4.538  14.188  17.064  0.00  0.00    -0.357 OA
ATOM     34  H22 MOL d          -4.530  14.764  17.821  0.00  0.00     0.217 HD
ENDBRANCH  19  33
ENDBRANCH   9  12
ENDBRANCH   5   8
ENDBRANCH   2   5
BRANCH   1  35
ATOM     35  C6  MOL d          -2.815  19.507  14.327  0.00  0.00     0.084 C 
ATOM     36  C4  MOL d          -3.427  19.976  15.639  0.00  0.00     0.092 C 
ATOM     37  C2  MOL d          -4.773  20.467  15.103  0.00  0.00     0.105 C 
ATOM     38  H4  MOL d          -3.533  19.185  16.395  0.00  0.00     0.091 H 
ATOM     39  C1  MOL d          -4.365  21.144  13.785  0.00  0.00     0.140 C 
ATOM     40  H2  MOL d          -5.462  19.626  14.938  0.00  0.00     0.093 H 
ATOM     41  O13 MOL d          -3.287  20.375  13.242  0.00  0.00    -0.352 OA
ATOM     42  H1  MOL d          -4.035  22.174  13.986  0.00  0.00     0.123 H 
ATOM     43  H6  MOL d          -1.718  19.541  14.382  0.00  0.00     0.093 H 
BRANCH  36  44
ATOM     44  O5  MOL d          -2.592  21.042  16.116  0.00  0.00    -0.390 OA
ATOM     45  H5  MOL d          -2.169  21.465  15.379  0.00  0.00     0.210 HD
ENDBRANCH  36  44
BRANCH  37  46
ATOM     46  O3  MOL d          -5.399  21.445  15.948  0.00  0.00    -0.388 OA
ATOM     47  H3  MOL d          -6.021  21.014  16.522  0.00  0.00     0.210 HD
ENDBRANCH  37  46
BRANCH  39  48
ATOM     48  N10 MOL d          -5.472  21.171  12.811  0.00  0.00    -0.294 N 
ATOM     49  C9  MOL d          -6.309  20.082  12.457  0.00  0.00     0.070 A 
ATOM     50  N8  MOL d          -7.119  20.398  11.501  0.00  0.00    -0.238 NA
ATOM     51  H10 MOL d          -6.273  19.101  12.932  0.00  0.00     0.144 H 
ATOM     52  C12 MOL d          -6.831  21.676  11.162  0.00  0.00     0.128 A 
ATOM     53  C11 MOL d          -5.836  22.201  11.966  0.00  0.00     0.165 A 
ATOM     54  C35 MOL d          -7.417  22.538  10.215  0.00  0.00     0.064 A 
ATOM     55  N40 MOL d          -5.316  23.438  11.868  0.00  0.00    -0.222 NA
ATOM     56  C39 MOL d          -5.900  24.205  10.947  0.00  0.00     0.089 A 
ATOM     57  N38 MOL d          -6.920  23.780  10.132  0.00  0.00    -0.244 NA
ATOM     58  H24 MOL d          -5.551  25.225  10.836  0.00  0.00     0.146 H 
BRANCH  54  59
ATOM     59  C7  MOL d          -8.584  22.146   9.332  0.00  0.00    -0.033 C 
ATOM     60  H7  MOL d          -8.918  23.022   8.756  0.00  0.00     0.035 H 
ATOM     61  H8  MOL d          -9.411  21.781   9.958  0.00  0.00     0.035 H 
ATOM     62  H9  MOL d          -8.269  21.351   8.639  0.00  0.00     0.035 H 
ENDBRANCH  54  59
ENDBRANCH  39  48
ENDBRANCH   1  35
TORSDOF 11
ENDMDL
MODEL 2
REMARK VINA RESULT:      -8.7      3.023      5.108
REMARK  11 active torsions:
REMARK  status: ('A' for Active; 'I' for Inactive)
REMARK    1  A    between atoms: N10_10  and  C1_1 
REMARK    2  A    between atoms: C2_2  and  O3_3 
REMARK    3  A    between atoms: C4_4  and  O5_5 
REMARK    4  A    between atoms: C6_6  and  C14_14 
REMARK    5  A    between atoms: C35_35  and  C7_7 
REMARK    6  A    between atoms: C15_15  and  C16_16 
REMARK    7  A    between atoms: C16_16  and  N17_17 
REMARK       I    between atoms: N17_17  and  C18_18 
REMARK    8  A    between atoms: C18_18  and  C20_20 
REMARK    9  A    between atoms: C22_22  and  C24_24 
REMARK   10  A    between atoms: C31_31  and  O32_32 
REMARK   11  A    between atoms: C33_33  and  O34_34 
ROOT
ATOM      1  C14 MOL d          -5.696  19.285  16.940  0.00  0.00    -0.075 C 
ATOM      2  C15 MOL d          -4.903  18.405  17.496  0.00  0.00    -0.087 C 
ATOM      3  H11 MOL d          -6.778  19.191  17.020  0.00  0.00     0.080 H 
ATOM      4  H12 MOL d          -3.825  18.544  17.435  0.00  0.00     0.079 H 
ENDROOT
BRANCH   2   5
ATOM      5  C16 MOL d          -5.444  17.225  18.206  0.00  0.00     0.010 C 
ATOM      6  H13 MOL d          -6.501  17.367  18.473  0.00  0.00     0.070 H 
ATOM      7  H14 MOL d          -4.863  17.001  19.113  0.00  0.00     0.070 H 
BRANCH   5   8
ATOM      8  N17 MOL d          -5.284  16.178  17.198  0.00  0.00    -0.353 N 
ATOM      9  C18 MOL d          -4.690  15.043  17.675  0.00  0.00     0.254 C 
ATOM     10  O19 MOL d          -4.266  14.994  18.833  0.00  0.00    -0.268 OA
ATOM     11  H15 MOL d          -5.582  16.282  16.250  0.00  0.00     0.163 HD
BRANCH   9  12
ATOM     12  C20 MOL d          -4.411  13.980  16.707  0.00  0.00     0.068 A 
ATOM     13  C21 MOL d          -3.145  13.366  16.773  0.00  0.00    -0.054 A 
ATOM     14  C22 MOL d          -2.816  12.319  15.911  0.00  0.00    -0.022 A 
ATOM     15  H16 MOL d          -2.419  13.709  17.501  0.00  0.00     0.086 H 
ATOM     16  C23 MOL d          -3.720  11.849  14.938  0.00  0.00    -0.037 A 
ATOM     17  C33 MOL d          -4.968  12.480  14.895  0.00  0.00     0.100 A 
ATOM     18  H17 MOL d          -3.462  11.042  14.261  0.00  0.00     0.089 H 
ATOM     19  C31 MOL d          -5.335  13.486  15.789  0.00  0.00     0.114 A 
BRANCH  14  20
ATOM     20  C24 MOL d          -1.450  11.724  16.033  0.00  0.00    -0.026 A 
ATOM     21  C25 MOL d          -0.382  12.430  15.517  0.00  0.00    -0.069 A 
ATOM     22  C26 MOL d           0.874  11.841  15.626  0.00  0.00    -0.045 A 
ATOM     23  H18 MOL d          -0.516  13.399  15.049  0.00  0.00     0.085 H 
ATOM     24  C29 MOL d           0.942  10.603  16.264  0.00  0.00     0.116 A 
ATOM     25  H19 MOL d           1.761  12.323  15.232  0.00  0.00     0.088 H 
ATOM     26  C28 MOL d          -0.111   9.872  16.751  0.00  0.00    -0.045 A 
ATOM     27  F30 MOL d           2.156   9.926  16.397  0.00  0.00    -0.206 F 
ATOM     28  C27 MOL d          -1.361  10.497  16.653  0.00  0.00    -0.069 A 
ATOM     29  H21 MOL d           0.014   8.885  17.180  0.00  0.00     0.088 H 
ATOM     30  H20 MOL d          -2.246  10.022  17.058  0.00  0.00     0.085 H 
ENDBRANCH  14  20
BRANCH  17  31
ATOM     31  O34 MOL d          -5.882  12.028  13.937  0.00  0.00    -0.358 OA
ATOM     32  H23 MOL d          -6.406  12.760  13.632  0.00  0.00     0.217 HD
ENDBRANCH  17  31
BRANCH  19  33
ATOM     33  O32 MOL d          -6.569  14.031  15.626  0.00  0.00    -0.357 OA
ATOM     34  H22 MOL d          -6.489  14.865  15.178  0.00  0.00     0.217 HD
ENDBRANCH  19  33
ENDBRANCH   9  12
ENDBRANCH   5   8
ENDBRANCH   2   5
BRANCH   1  35
ATOM     35  C6  MOL d          -5.078  20.431  16.188  0.00  0.00     0.084 C 
ATOM     36  C4  MOL d          -5.882  20.613  14.910  0.00  0.00     0.092 C 
ATOM     37  C2  MOL d          -5.153  19.595  14.031  0.00  0.00     0.105 C 
ATOM     38  H4  MOL d          -6.954  20.392  15.017  0.00  0.00     0.091 H 
ATOM     39  C1  MOL d          -3.688  19.813  14.439  0.00  0.00     0.140 C 
ATOM     40  H2  MOL d          -5.493  18.572  14.248  0.00  0.00     0.093 H 
ATOM     41  O13 MOL d          -3.688  20.116  15.837  0.00  0.00    -0.352 OA
ATOM     42  H1  MOL d          -3.266  20.654  13.868  0.00  0.00     0.123 H 
ATOM     43  H6  MOL d          -5.110  21.346  16.796  0.00  0.00     0.093 H 
BRANCH  36  44
ATOM     44  O5  MOL d          -5.671  21.969  14.489  0.00  0.00    -0.390 OA
ATOM     45  H5  MOL d          -5.189  21.973  13.671  0.00  0.00     0.210 HD
ENDBRANCH  36  44
BRANCH  37  46
ATOM     46  O3  MOL d          -5.284  19.861  12.626  0.00  0.00    -0.388 OA
ATOM     47  H3  MOL d          -6.125  19.541  12.322  0.00  0.00     0.210 HD
ENDBRANCH  37  46
BRANCH  39  48
ATOM     48  N10 MOL d          -2.865  18.611  14.209  0.00  0.00    -0.294 N 
ATOM     49  C9  MOL d          -3.342  17.292  13.999  0.00  0.00     0.070 A 
ATOM     50  N8  MOL d          -2.370  16.442  13.929  0.00  0.00    -0.238 NA
ATOM     51  H10 MOL d          -4.395  17.029  13.907  0.00  0.00     0.144 H 
ATOM     52  C12 MOL d          -1.231  17.146  14.126  0.00  0.00     0.128 A 
ATOM     53  C11 MOL d          -1.490  18.496  14.277  0.00  0.00     0.165 A 
ATOM     54  C35 MOL d           0.118  16.745  14.120  0.00  0.00     0.064 A 
ATOM     55  N40 MOL d          -0.571  19.453  14.504  0.00  0.00    -0.222 NA
ATOM     56  C39 MOL d           0.687  19.013  14.501  0.00  0.00     0.089 A 
ATOM     57  N38 MOL d           1.039  17.698  14.321  0.00  0.00    -0.244 NA
ATOM     58  H24 MOL d           1.480  19.737  14.649  0.00  0.00     0.146 H 
BRANCH  54  59
ATOM     59  C7  MOL d           0.570  15.321  13.866  0.00  0.00    -0.033 C 
ATOM     60  H7  MOL d          -0.273  14.634  14.028  0.00  0.00     0.035 H 
ATOM     61  H8  MOL d           1.389  15.068  14.556  0.00  0.00     0.035 H 
ATOM     62  H9  MOL d           0.924  15.229  12.828  0.00  0.00     0.035 H 
ENDBRANCH  54  59
ENDBRANCH  39  48
ENDBRANCH   1  35
TORSDOF 11
ENDMDL
MODEL 3
REMARK VINA RESULT:      -8.6      5.286     10.231
REMARK  11 active torsions:
REMARK  status: ('A' for Active; 'I' for Inactive)
REMARK    1  A    between atoms: N10_10  and  C1_1 
REMARK    2  A    between atoms: C2_2  and  O3_3 
REMARK    3  A    between atoms: C4_4  and  O5_5 
REMARK    4  A    between atoms: C6_6  and  C14_14 
REMARK    5  A    between atoms: C35_35  and  C7_7 
REMARK    6  A    between atoms: C15_15  and  C16_16 
REMARK    7  A    between atoms: C16_16  and  N17_17 
REMARK       I    between atoms: N17_17  and  C18_18 
REMARK    8  A    between atoms: C18_18  and  C20_20 
REMARK    9  A    between atoms: C22_22  and  C24_24 
REMARK   10  A    between atoms: C31_31  and  O32_32 
REMARK   11  A    between atoms: C33_33  and  O34_34 
ROOT
ATOM      1  C14 MOL d          -3.929  13.636  13.094  0.00  0.00    -0.075 C 
ATOM      2  C15 MOL d          -3.084  13.988  14.028  0.00  0.00    -0.087 C 
ATOM      3  H11 MOL d          -4.101  14.273  12.228  0.00  0.00     0.080 H 
ATOM      4  H12 MOL d          -2.900  13.314  14.864  0.00  0.00     0.079 H 
ENDROOT
BRANCH   2   5
ATOM      5  C16 MOL d          -2.371  15.284  13.971  0.00  0.00     0.010 C 
ATOM      6  H13 MOL d          -1.915  15.447  12.984  0.00  0.00     0.070 H 
ATOM      7  H14 MOL d          -1.596  15.351  14.749  0.00  0.00     0.070 H 
BRANCH   5   8
ATOM      8  N17 MOL d          -3.460  16.228  14.220  0.00  0.00    -0.353 N 
ATOM      9  C18 MOL d          -3.055  17.531  14.276  0.00  0.00     0.254 C 
ATOM     10  O19 MOL d          -1.857  17.821  14.206  0.00  0.00    -0.268 OA
ATOM     11  H15 MOL d          -4.412  15.945  14.338  0.00  0.00     0.163 HD
BRANCH   9  12
ATOM     12  C20 MOL d          -4.070  18.532  14.611  0.00  0.00     0.068 A 
ATOM     13  C21 MOL d          -4.472  19.409  13.586  0.00  0.00    -0.054 A 
ATOM     14  C22 MOL d          -5.462  20.365  13.814  0.00  0.00    -0.022 A 
ATOM     15  H16 MOL d          -4.007  19.341  12.609  0.00  0.00     0.086 H 
ATOM     16  C23 MOL d          -6.083  20.503  15.071  0.00  0.00    -0.037 A 
ATOM     17  C33 MOL d          -5.662  19.618  16.071  0.00  0.00     0.100 A 
ATOM     18  H17 MOL d          -6.845  21.252  15.254  0.00  0.00     0.089 H 
ATOM     19  C31 MOL d          -4.717  18.617  15.842  0.00  0.00     0.114 A 
BRANCH  14  20
ATOM     20  C24 MOL d          -5.827  21.269  12.681  0.00  0.00    -0.026 A 
ATOM     21  C25 MOL d          -6.728  20.807  11.742  0.00  0.00    -0.069 A 
ATOM     22  C26 MOL d          -7.032  21.662  10.687  0.00  0.00    -0.045 A 
ATOM     23  H18 MOL d          -7.178  19.824  11.823  0.00  0.00     0.085 H 
ATOM     24  C29 MOL d          -6.416  22.913  10.686  0.00  0.00     0.116 A 
ATOM     25  H19 MOL d          -7.717  21.368   9.901  0.00  0.00     0.088 H 
ATOM     26  C28 MOL d          -5.494  23.375  11.589  0.00  0.00    -0.045 A 
ATOM     27  F30 MOL d          -6.643  23.827   9.654  0.00  0.00    -0.206 F 
ATOM     28  C27 MOL d          -5.224  22.507  12.655  0.00  0.00    -0.069 A 
ATOM     29  H21 MOL d          -5.011  24.340  11.487  0.00  0.00     0.088 H 
ATOM     30  H20 MOL d          -4.549  22.805  13.449  0.00  0.00     0.085 H 
ENDBRANCH  14  20
BRANCH  17  31
ATOM     31  O34 MOL d          -6.266  19.736  17.327  0.00  0.00    -0.358 OA
ATOM     32  H23 MOL d          -5.819  20.407  17.830  0.00  0.00     0.217 HD
ENDBRANCH  17  31
BRANCH  19  33
ATOM     33  O32 MOL d          -4.381  17.839  16.903  0.00  0.00    -0.357 OA
ATOM     34  H22 MOL d          -4.547  18.315  17.709  0.00  0.00     0.217 HD
ENDBRANCH  19  33
ENDBRANCH   9  12
ENDBRANCH   5   8
ENDBRANCH   2   5
BRANCH   1  35
ATOM     35  C6  MOL d          -4.658  12.330  13.244  0.00  0.00     0.084 C 
ATOM     36  C4  MOL d          -5.774  12.319  12.210  0.00  0.00     0.092 C 
ATOM     37  C2  MOL d          -6.846  13.051  13.020  0.00  0.00     0.105 C 
ATOM     38  H4  MOL d          -5.524  12.834  11.272  0.00  0.00     0.091 H 
ATOM     39  C1  MOL d          -6.651  12.453  14.422  0.00  0.00     0.140 C 
ATOM     40  H2  MOL d          -6.675  14.137  13.008  0.00  0.00     0.093 H 
ATOM     41  O13 MOL d          -5.247  12.229  14.584  0.00  0.00    -0.352 OA
ATOM     42  H1  MOL d          -7.199  11.503  14.498  0.00  0.00     0.123 H 
ATOM     43  H6  MOL d          -3.970  11.489  13.074  0.00  0.00     0.093 H 
BRANCH  36  44
ATOM     44  O5  MOL d          -6.095  10.940  11.976  0.00  0.00    -0.390 OA
ATOM     45  H5  MOL d          -5.766  10.681  11.123  0.00  0.00     0.210 HD
ENDBRANCH  36  44
BRANCH  37  46
ATOM     46  O3  MOL d          -8.183  12.767  12.581  0.00  0.00    -0.388 OA
ATOM     47  H3  MOL d          -8.487  13.472  12.021  0.00  0.00     0.210 HD
ENDBRANCH  37  46
BRANCH  39  48
ATOM     48  N10 MOL d          -7.115  13.367  15.483  0.00  0.00    -0.294 N 
ATOM     49  C9  MOL d          -8.416  13.916  15.610  0.00  0.00     0.070 A 
ATOM     50  N8  MOL d          -8.480  14.762  16.587  0.00  0.00    -0.238 NA
ATOM     51  H10 MOL d          -9.256  13.659  14.966  0.00  0.00     0.144 H 
ATOM     52  C12 MOL d          -7.235  14.834  17.113  0.00  0.00     0.128 A 
ATOM     53  C11 MOL d          -6.365  13.967  16.476  0.00  0.00     0.165 A 
ATOM     54  C35 MOL d          -6.733  15.561  18.208  0.00  0.00     0.064 A 
ATOM     55  N40 MOL d          -5.057  13.819  16.755  0.00  0.00    -0.222 NA
ATOM     56  C39 MOL d          -4.635  14.541  17.793  0.00  0.00     0.089 A 
ATOM     57  N38 MOL d          -5.436  15.397  18.506  0.00  0.00    -0.244 NA
ATOM     58  H24 MOL d          -3.597  14.446  18.091  0.00  0.00     0.146 H 
BRANCH  54  59
ATOM     59  C7  MOL d          -7.581  16.473  19.071  0.00  0.00    -0.033 C 
ATOM     60  H7  MOL d          -7.362  17.522  18.824  0.00  0.00     0.035 H 
ATOM     61  H8  MOL d          -7.353  16.290  20.132  0.00  0.00     0.035 H 
ATOM     62  H9  MOL d          -8.646  16.267  18.885  0.00  0.00     0.035 H 
ENDBRANCH  54  59
ENDBRANCH  39  48
ENDBRANCH   1  35
TORSDOF 11
ENDMDL
MODEL 4
REMARK VINA RESULT:      -8.1      4.964      9.325
REMARK  11 active torsions:
REMARK  status: ('A' for Active; 'I' for Inactive)
REMARK    1  A    between atoms: N10_10  and  C1_1 
REMARK    2  A    between atoms: C2_2  and  O3_3 
REMARK    3  A    between atoms: C4_4  and  O5_5 
REMARK    4  A    between atoms: C6_6  and  C14_14 
REMARK    5  A    between atoms: C35_35  and  C7_7 
REMARK    6  A    between atoms: C15_15  and  C16_16 
REMARK    7  A    between atoms: C16_16  and  N17_17 
REMARK       I    between atoms: N17_17  and  C18_18 
REMARK    8  A    between atoms: C18_18  and  C20_20 
REMARK    9  A    between atoms: C22_22  and  C24_24 
REMARK   10  A    between atoms: C31_31  and  O32_32 
REMARK   11  A    between atoms: C33_33  and  O34_34 
ROOT
ATOM      1  C14 MOL d          -6.117  14.004  16.007  0.00  0.00    -0.075 C 
ATOM      2  C15 MOL d          -6.973  13.505  16.862  0.00  0.00    -0.087 C 
ATOM      3  H11 MOL d          -5.715  15.007  16.142  0.00  0.00     0.080 H 
ATOM      4  H12 MOL d          -7.329  12.484  16.726  0.00  0.00     0.079 H 
ENDROOT
BRANCH   2   5
ATOM      5  C16 MOL d          -7.466  14.299  18.008  0.00  0.00     0.010 C 
ATOM      6  H13 MOL d          -6.940  14.033  18.937  0.00  0.00     0.070 H 
ATOM      7  H14 MOL d          -8.549  14.170  18.151  0.00  0.00     0.070 H 
BRANCH   5   8
ATOM      8  N17 MOL d          -7.143  15.660  17.583  0.00  0.00    -0.353 N 
ATOM      9  C18 MOL d          -7.631  16.627  18.416  0.00  0.00     0.254 C 
ATOM     10  O19 MOL d          -8.347  16.327  19.376  0.00  0.00    -0.268 OA
ATOM     11  H15 MOL d          -6.615  15.864  16.759  0.00  0.00     0.163 HD
BRANCH   9  12
ATOM     12  C20 MOL d          -7.428  18.020  18.012  0.00  0.00     0.068 A 
ATOM     13  C21 MOL d          -6.311  18.299  17.201  0.00  0.00    -0.054 A 
ATOM     14  C22 MOL d          -6.069  19.593  16.742  0.00  0.00    -0.022 A 
ATOM     15  H16 MOL d          -5.632  17.499  16.930  0.00  0.00     0.086 H 
ATOM     16  C23 MOL d          -6.915  20.669  17.081  0.00  0.00    -0.037 A 
ATOM     17  C33 MOL d          -8.015  20.362  17.889  0.00  0.00     0.100 A 
ATOM     18  H17 MOL d          -6.723  21.678  16.734  0.00  0.00     0.089 H 
ATOM     19  C31 MOL d          -8.304  19.062  18.306  0.00  0.00     0.114 A 
BRANCH  14  20
ATOM     20  C24 MOL d          -4.858  19.814  15.895  0.00  0.00    -0.026 A 
ATOM     21  C25 MOL d          -4.976  19.648  14.530  0.00  0.00    -0.069 A 
ATOM     22  C26 MOL d          -3.826  19.838  13.770  0.00  0.00    -0.045 A 
ATOM     23  H18 MOL d          -5.921  19.381  14.072  0.00  0.00     0.085 H 
ATOM     24  C29 MOL d          -2.666  20.200  14.454  0.00  0.00     0.116 A 
ATOM     25  H19 MOL d          -3.832  19.711  12.694  0.00  0.00     0.088 H 
ATOM     26  C28 MOL d          -2.521  20.336  15.810  0.00  0.00    -0.045 A 
ATOM     27  F30 MOL d          -1.459  20.389  13.776  0.00  0.00    -0.206 F 
ATOM     28  C27 MOL d          -3.698  20.164  16.551  0.00  0.00    -0.069 A 
ATOM     29  H21 MOL d          -1.568  20.560  16.275  0.00  0.00     0.088 H 
ATOM     30  H20 MOL d          -3.696  20.305  17.626  0.00  0.00     0.085 H 
ENDBRANCH  14  20
BRANCH  17  31
ATOM     31  O34 MOL d          -8.868  21.415  18.237  0.00  0.00    -0.358 OA
ATOM     32  H23 MOL d          -8.643  22.184  17.728  0.00  0.00     0.217 HD
ENDBRANCH  17  31
BRANCH  19  33
ATOM     33  O32 MOL d          -9.391  18.903  19.105  0.00  0.00    -0.357 OA
ATOM     34  H22 MOL d          -9.409  19.596  19.756  0.00  0.00     0.217 HD
ENDBRANCH  19  33
ENDBRANCH   9  12
ENDBRANCH   5   8
ENDBRANCH   2   5
BRANCH   1  35
ATOM     35  C6  MOL d          -5.701  13.161  14.835  0.00  0.00     0.084 C 
ATOM     36  C4  MOL d          -4.854  12.021  15.381  0.00  0.00     0.092 C 
ATOM     37  C2  MOL d          -3.497  12.730  15.399  0.00  0.00     0.105 C 
ATOM     38  H4  MOL d          -5.162  11.668  16.376  0.00  0.00     0.091 H 
ATOM     39  C1  MOL d          -3.538  13.528  14.087  0.00  0.00     0.140 C 
ATOM     40  H2  MOL d          -3.407  13.386  16.277  0.00  0.00     0.093 H 
ATOM     41  O13 MOL d          -4.891  13.953  13.902  0.00  0.00    -0.352 OA
ATOM     42  H1  MOL d          -3.224  12.883  13.252  0.00  0.00     0.123 H 
ATOM     43  H6  MOL d          -6.587  12.766  14.317  0.00  0.00     0.093 H 
BRANCH  36  44
ATOM     44  O5  MOL d          -4.921  10.966  14.411  0.00  0.00    -0.390 OA
ATOM     45  H5  MOL d          -5.786  10.952  14.020  0.00  0.00     0.210 HD
ENDBRANCH  36  44
BRANCH  37  46
ATOM     46  O3  MOL d          -2.383  11.826  15.354  0.00  0.00    -0.388 OA
ATOM     47  H3  MOL d          -1.605  12.297  15.079  0.00  0.00     0.210 HD
ENDBRANCH  37  46
BRANCH  39  48
ATOM     48  N10 MOL d          -2.665  14.717  14.136  0.00  0.00    -0.294 N 
ATOM     49  C9  MOL d          -3.079  16.069  14.036  0.00  0.00     0.070 A 
ATOM     50  N8  MOL d          -2.066  16.874  14.012  0.00  0.00    -0.238 NA
ATOM     51  H10 MOL d          -4.119  16.390  13.987  0.00  0.00     0.144 H 
ATOM     52  C12 MOL d          -0.959  16.097  14.054  0.00  0.00     0.128 A 
ATOM     53  C11 MOL d          -1.284  14.757  14.159  0.00  0.00     0.165 A 
ATOM     54  C35 MOL d           0.407  16.433  14.089  0.00  0.00     0.064 A 
ATOM     55  N40 MOL d          -0.409  13.736  14.204  0.00  0.00    -0.222 NA
ATOM     56  C39 MOL d           0.870  14.113  14.221  0.00  0.00     0.089 A 
ATOM     57  N38 MOL d           1.283  15.421  14.160  0.00  0.00    -0.244 NA
ATOM     58  H24 MOL d           1.628  13.342  14.288  0.00  0.00     0.146 H 
BRANCH  54  59
ATOM     59  C7  MOL d           0.922  17.858  14.088  0.00  0.00    -0.033 C 
ATOM     60  H7  MOL d           0.374  18.446  13.337  0.00  0.00     0.035 H 
ATOM     61  H8  MOL d           1.995  17.861  13.843  0.00  0.00     0.035 H 
ATOM     62  H9  MOL d           0.771  18.303  15.082  0.00  0.00     0.035 H 
ENDBRANCH  54  59
ENDBRANCH  39  48
ENDBRANCH   1  35
TORSDOF 11
ENDMDL
MODEL 5
REMARK VINA RESULT:      -8.1      4.336      6.852
REMARK  11 active torsions:
REMARK  status: ('A' for Active; 'I' for Inactive)
REMARK    1  A    between atoms: N10_10  and  C1_1 
REMARK    2  A    between atoms: C2_2  and  O3_3 
REMARK    3  A    between atoms: C4_4  and  O5_5 
REMARK    4  A    between atoms: C6_6  and  C14_14 
REMARK    5  A    between atoms: C35_35  and  C7_7 
REMARK    6  A    between atoms: C15_15  and  C16_16 
REMARK    7  A    between atoms: C16_16  and  N17_17 
REMARK       I    between atoms: N17_17  and  C18_18 
REMARK    8  A    between atoms: C18_18  and  C20_20 
REMARK    9  A    between atoms: C22_22  and  C24_24 
REMARK   10  A    between atoms: C31_31  and  O32_32 
REMARK   11  A    between atoms: C33_33  and  O34_34 
ROOT
ATOM      1  C14 MOL d          -5.707  19.287  16.983  0.00  0.00    -0.075 C 
ATOM      2  C15 MOL d          -4.955  18.440  17.639  0.00  0.00    -0.087 C 
ATOM      3  H11 MOL d          -6.791  19.186  16.984  0.00  0.00     0.080 H 
ATOM      4  H12 MOL d          -3.876  18.586  17.655  0.00  0.00     0.079 H 
ENDROOT
BRANCH   2   5
ATOM      5  C16 MOL d          -5.543  17.289  18.359  0.00  0.00     0.010 C 
ATOM      6  H13 MOL d          -6.593  17.475  18.625  0.00  0.00     0.070 H 
ATOM      7  H14 MOL d          -4.971  17.049  19.268  0.00  0.00     0.070 H 
BRANCH   5   8
ATOM      8  N17 MOL d          -5.425  16.227  17.360  0.00  0.00    -0.353 N 
ATOM      9  C18 MOL d          -4.779  15.113  17.817  0.00  0.00     0.254 C 
ATOM     10  O19 MOL d          -4.283  15.092  18.947  0.00  0.00    -0.268 OA
ATOM     11  H15 MOL d          -5.783  16.309  16.431  0.00  0.00     0.163 HD
BRANCH   9  12
ATOM     12  C20 MOL d          -4.540  14.038  16.851  0.00  0.00     0.068 A 
ATOM     13  C21 MOL d          -5.509  13.848  15.847  0.00  0.00    -0.054 A 
ATOM     14  C22 MOL d          -5.337  12.871  14.867  0.00  0.00    -0.022 A 
ATOM     15  H16 MOL d          -6.399  14.468  15.835  0.00  0.00     0.086 H 
ATOM     16  C23 MOL d          -4.206  12.031  14.849  0.00  0.00    -0.037 A 
ATOM     17  C33 MOL d          -3.261  12.241  15.860  0.00  0.00     0.100 A 
ATOM     18  H17 MOL d          -4.074  11.263  14.095  0.00  0.00     0.089 H 
ATOM     19  C31 MOL d          -3.390  13.254  16.811  0.00  0.00     0.114 A 
BRANCH  14  20
ATOM     20  C24 MOL d          -6.413  12.721  13.841  0.00  0.00    -0.026 A 
ATOM     21  C25 MOL d          -6.072  12.202  12.608  0.00  0.00    -0.069 A 
ATOM     22  C26 MOL d          -7.091  12.095  11.666  0.00  0.00    -0.045 A 
ATOM     23  H18 MOL d          -5.058  11.892  12.384  0.00  0.00     0.085 H 
ATOM     24  C29 MOL d          -8.365  12.500  12.060  0.00  0.00     0.116 A 
ATOM     25  H19 MOL d          -6.902  11.712  10.670  0.00  0.00     0.088 H 
ATOM     26  C28 MOL d          -8.716  13.050  13.266  0.00  0.00    -0.045 A 
ATOM     27  F30 MOL d          -9.444  12.452  11.173  0.00  0.00    -0.206 F 
ATOM     28  C27 MOL d          -7.679  13.124  14.206  0.00  0.00    -0.069 A 
ATOM     29  H21 MOL d          -9.719  13.401  13.477  0.00  0.00     0.088 H 
ATOM     30  H20 MOL d          -7.870  13.494  15.206  0.00  0.00     0.085 H 
ENDBRANCH  14  20
BRANCH  17  31
ATOM     31  O34 MOL d          -2.130  11.419  15.862  0.00  0.00    -0.358 OA
ATOM     32  H23 MOL d          -1.858  11.255  14.967  0.00  0.00     0.217 HD
ENDBRANCH  17  31
BRANCH  19  33
ATOM     33  O32 MOL d          -2.412  13.338  17.752  0.00  0.00    -0.357 OA
ATOM     34  H22 MOL d          -2.283  14.249  17.992  0.00  0.00     0.217 HD
ENDBRANCH  19  33
ENDBRANCH   9  12
ENDBRANCH   5   8
ENDBRANCH   2   5
BRANCH   1  35
ATOM     35  C6  MOL d          -5.039  20.402  16.229  0.00  0.00     0.084 C 
ATOM     36  C4  MOL d          -5.839  20.623  14.954  0.00  0.00     0.092 C 
ATOM     37  C2  MOL d          -5.162  19.572  14.072  0.00  0.00     0.105 C 
ATOM     38  H4  MOL d          -6.920  20.452  15.065  0.00  0.00     0.091 H 
ATOM     39  C1  MOL d          -3.687  19.721  14.474  0.00  0.00     0.140 C 
ATOM     40  H2  MOL d          -5.549  18.566  14.290  0.00  0.00     0.093 H 
ATOM     41  O13 MOL d          -3.667  20.022  15.872  0.00  0.00    -0.352 OA
ATOM     42  H1  MOL d          -3.229  20.542  13.901  0.00  0.00     0.123 H 
ATOM     43  H6  MOL d          -5.026  21.318  16.837  0.00  0.00     0.093 H 
BRANCH  36  44
ATOM     44  O5  MOL d          -5.567  21.967  14.533  0.00  0.00    -0.390 OA
ATOM     45  H5  MOL d          -6.154  22.200  13.824  0.00  0.00     0.210 HD
ENDBRANCH  36  44
BRANCH  37  46
ATOM     46  O3  MOL d          -5.286  19.844  12.668  0.00  0.00    -0.388 OA
ATOM     47  H3  MOL d          -5.916  20.543  12.537  0.00  0.00     0.210 HD
ENDBRANCH  37  46
BRANCH  39  48
ATOM     48  N10 MOL d          -2.922  18.481  14.241  0.00  0.00    -0.294 N 
ATOM     49  C9  MOL d          -3.461  17.183  14.053  0.00  0.00     0.070 A 
ATOM     50  N8  MOL d          -2.528  16.290  13.974  0.00  0.00    -0.238 NA
ATOM     51  H10 MOL d          -4.526  16.965  13.985  0.00  0.00     0.144 H 
ATOM     52  C12 MOL d          -1.356  16.945  14.141  0.00  0.00     0.128 A 
ATOM     53  C11 MOL d          -1.552  18.307  14.282  0.00  0.00     0.165 A 
ATOM     54  C35 MOL d          -0.026  16.485  14.112  0.00  0.00     0.064 A 
ATOM     55  N40 MOL d          -0.589  19.225  14.481  0.00  0.00    -0.222 NA
ATOM     56  C39 MOL d           0.650  18.730  14.458  0.00  0.00     0.089 A 
ATOM     57  N38 MOL d           0.939  17.399  14.285  0.00  0.00    -0.244 NA
ATOM     58  H24 MOL d           1.476  19.420  14.582  0.00  0.00     0.146 H 
BRANCH  54  59
ATOM     59  C7  MOL d           0.359  15.041  13.864  0.00  0.00    -0.033 C 
ATOM     60  H7  MOL d           1.375  14.999  13.445  0.00  0.00     0.035 H 
ATOM     61  H8  MOL d          -0.350  14.590  13.152  0.00  0.00     0.035 H 
ATOM     62  H9  MOL d           0.330  14.485  14.813  0.00  0.00     0.035 H 
ENDBRANCH  54  59
ENDBRANCH  39  48
ENDBRANCH   1  35
TORSDOF 11
ENDMDL
MODEL 6
REMARK VINA RESULT:      -7.9      4.655     10.531
REMARK  11 active torsions:
REMARK  status: ('A' for Active; 'I' for Inactive)
REMARK    1  A    between atoms: N10_10  and  C1_1 
REMARK    2  A    between atoms: C2_2  and  O3_3 
REMARK    3  A    between atoms: C4_4  and  O5_5 
REMARK    4  A    between atoms: C6_6  and  C14_14 
REMARK    5  A    between atoms: C35_35  and  C7_7 
REMARK    6  A    between atoms: C15_15  and  C16_16 
REMARK    7  A    between atoms: C16_16  and  N17_17 
REMARK       I    between atoms: N17_17  and  C18_18 
REMARK    8  A    between atoms: C18_18  and  C20_20 
REMARK    9  A    between atoms: C22_22  and  C24_24 
REMARK   10  A    between atoms: C31_31  and  O32_32 
REMARK   11  A    between atoms: C33_33  and  O34_34 
ROOT
ATOM      1  C14 MOL d          -2.515  12.977  15.702  0.00  0.00    -0.075 C 
ATOM      2  C15 MOL d          -3.186  14.092  15.564  0.00  0.00    -0.087 C 
ATOM      3  H11 MOL d          -1.649  12.767  15.076  0.00  0.00     0.080 H 
ATOM      4  H12 MOL d          -4.024  14.296  16.229  0.00  0.00     0.079 H 
ENDROOT
BRANCH   2   5
ATOM      5  C16 MOL d          -2.829  15.080  14.522  0.00  0.00     0.010 C 
ATOM      6  H13 MOL d          -2.936  14.656  13.513  0.00  0.00     0.070 H 
ATOM      7  H14 MOL d          -1.802  15.452  14.657  0.00  0.00     0.070 H 
BRANCH   5   8
ATOM      8  N17 MOL d          -3.813  16.133  14.766  0.00  0.00    -0.353 N 
ATOM      9  C18 MOL d          -3.350  17.391  14.502  0.00  0.00     0.254 C 
ATOM     10  O19 MOL d          -2.174  17.571  14.174  0.00  0.00    -0.268 OA
ATOM     11  H15 MOL d          -4.739  15.949  15.097  0.00  0.00     0.163 HD
BRANCH   9  12
ATOM     12  C20 MOL d          -4.245  18.509  14.807  0.00  0.00     0.068 A 
ATOM     13  C21 MOL d          -4.608  19.352  13.739  0.00  0.00    -0.054 A 
ATOM     14  C22 MOL d          -5.486  20.417  13.939  0.00  0.00    -0.022 A 
ATOM     15  H16 MOL d          -4.200  19.173  12.750  0.00  0.00     0.086 H 
ATOM     16  C23 MOL d          -6.029  20.700  15.208  0.00  0.00    -0.037 A 
ATOM     17  C33 MOL d          -5.649  19.847  16.250  0.00  0.00     0.100 A 
ATOM     18  H17 MOL d          -6.705  21.533  15.368  0.00  0.00     0.089 H 
ATOM     19  C31 MOL d          -4.820  18.742  16.053  0.00  0.00     0.114 A 
BRANCH  14  20
ATOM     20  C24 MOL d          -5.816  21.275  12.760  0.00  0.00    -0.026 A 
ATOM     21  C25 MOL d          -6.677  20.772  11.806  0.00  0.00    -0.069 A 
ATOM     22  C26 MOL d          -6.947  21.585  10.710  0.00  0.00    -0.045 A 
ATOM     23  H18 MOL d          -7.122  19.788  11.907  0.00  0.00     0.085 H 
ATOM     24  C29 MOL d          -6.341  22.840  10.685  0.00  0.00     0.116 A 
ATOM     25  H19 MOL d          -7.600  21.257   9.910  0.00  0.00     0.088 H 
ATOM     26  C28 MOL d          -5.457  23.343  11.605  0.00  0.00    -0.045 A 
ATOM     27  F30 MOL d          -6.535  23.714   9.613  0.00  0.00    -0.206 F 
ATOM     28  C27 MOL d          -5.220  22.517  12.712  0.00  0.00    -0.069 A 
ATOM     29  H21 MOL d          -4.977  24.307  11.485  0.00  0.00     0.088 H 
ATOM     30  H20 MOL d          -4.578  22.849  13.518  0.00  0.00     0.085 H 
ENDBRANCH  14  20
BRANCH  17  31
ATOM     31  O34 MOL d          -6.177  20.109  17.518  0.00  0.00    -0.358 OA
ATOM     32  H23 MOL d          -6.706  19.371  17.798  0.00  0.00     0.217 HD
ENDBRANCH  17  31
BRANCH  19  33
ATOM     33  O32 MOL d          -4.511  18.006  17.153  0.00  0.00    -0.357 OA
ATOM     34  H22 MOL d          -5.259  17.472  17.396  0.00  0.00     0.217 HD
ENDBRANCH  19  33
ENDBRANCH   9  12
ENDBRANCH   5   8
ENDBRANCH   2   5
BRANCH   1  35
ATOM     35  C6  MOL d          -2.966  11.994  16.745  0.00  0.00     0.084 C 
ATOM     36  C4  MOL d          -2.668  10.602  16.208  0.00  0.00     0.092 C 
ATOM     37  C2  MOL d          -3.948  10.387  15.399  0.00  0.00     0.105 C 
ATOM     38  H4  MOL d          -1.759  10.543  15.591  0.00  0.00     0.091 H 
ATOM     39  C1  MOL d          -5.015  10.995  16.323  0.00  0.00     0.140 C 
ATOM     40  H2  MOL d          -3.896  10.909  14.432  0.00  0.00     0.093 H 
ATOM     41  O13 MOL d          -4.411  12.120  16.968  0.00  0.00    -0.352 OA
ATOM     42  H1  MOL d          -5.325  10.249  17.070  0.00  0.00     0.123 H 
ATOM     43  H6  MOL d          -2.427  12.165  17.688  0.00  0.00     0.093 H 
BRANCH  36  44
ATOM     44  O5  MOL d          -2.576   9.739  17.351  0.00  0.00    -0.390 OA
ATOM     45  H5  MOL d          -2.530   8.836  17.060  0.00  0.00     0.210 HD
ENDBRANCH  36  44
BRANCH  37  46
ATOM     46  O3  MOL d          -4.259   9.002  15.185  0.00  0.00    -0.388 OA
ATOM     47  H3  MOL d          -4.644   8.640  15.975  0.00  0.00     0.210 HD
ENDBRANCH  37  46
BRANCH  39  48
ATOM     48  N10 MOL d          -6.200  11.452  15.573  0.00  0.00    -0.294 N 
ATOM     49  C9  MOL d          -7.553  11.322  15.977  0.00  0.00     0.070 A 
ATOM     50  N8  MOL d          -8.364  11.730  15.055  0.00  0.00    -0.238 NA
ATOM     51  H10 MOL d          -7.870  10.928  16.942  0.00  0.00     0.144 H 
ATOM     52  C12 MOL d          -7.595  12.104  14.007  0.00  0.00     0.128 A 
ATOM     53  C11 MOL d          -6.248  11.973  14.295  0.00  0.00     0.165 A 
ATOM     54  C35 MOL d          -7.936  12.655  12.758  0.00  0.00     0.064 A 
ATOM     55  N40 MOL d          -5.234  12.246  13.454  0.00  0.00    -0.222 NA
ATOM     56  C39 MOL d          -5.617  12.754  12.282  0.00  0.00     0.089 A 
ATOM     57  N38 MOL d          -6.928  12.953  11.927  0.00  0.00    -0.244 NA
ATOM     58  H24 MOL d          -4.848  13.025  11.568  0.00  0.00     0.146 H 
BRANCH  54  59
ATOM     59  C7  MOL d          -9.359  12.957  12.333  0.00  0.00    -0.033 C 
ATOM     60  H7  MOL d          -9.686  12.214  11.591  0.00  0.00     0.035 H 
ATOM     61  H8  MOL d          -9.405  13.962  11.890  0.00  0.00     0.035 H 
ATOM     62  H9  MOL d         -10.021  12.912  13.211  0.00  0.00     0.035 H 
ENDBRANCH  54  59
ENDBRANCH  39  48
ENDBRANCH   1  35
TORSDOF 11
ENDMDL
MODEL 7
REMARK VINA RESULT:      -7.9      5.070      9.799
REMARK  11 active torsions:
REMARK  status: ('A' for Active; 'I' for Inactive)
REMARK    1  A    between atoms: N10_10  and  C1_1 
REMARK    2  A    between atoms: C2_2  and  O3_3 
REMARK    3  A    between atoms: C4_4  and  O5_5 
REMARK    4  A    between atoms: C6_6  and  C14_14 
REMARK    5  A    between atoms: C35_35  and  C7_7 
REMARK    6  A    between atoms: C15_15  and  C16_16 
REMARK    7  A    between atoms: C16_16  and  N17_17 
REMARK       I    between atoms: N17_17  and  C18_18 
REMARK    8  A    between atoms: C18_18  and  C20_20 
REMARK    9  A    between atoms: C22_22  and  C24_24 
REMARK   10  A    between atoms: C31_31  and  O32_32 
REMARK   11  A    between atoms: C33_33  and  O34_34 
ROOT
ATOM      1  C14 MOL d          -0.903  11.873  15.532  0.00  0.00    -0.075 C 
ATOM      2  C15 MOL d           0.023  12.794  15.441  0.00  0.00    -0.087 C 
ATOM      3  H11 MOL d          -1.305  11.397  14.639  0.00  0.00     0.080 H 
ATOM      4  H12 MOL d           0.437  13.226  16.351  0.00  0.00     0.079 H 
ENDROOT
BRANCH   2   5
ATOM      5  C16 MOL d           0.519  13.257  14.126  0.00  0.00     0.010 C 
ATOM      6  H13 MOL d          -0.181  12.996  13.319  0.00  0.00     0.070 H 
ATOM      7  H14 MOL d           1.511  12.838  13.901  0.00  0.00     0.070 H 
BRANCH   5   8
ATOM      8  N17 MOL d           0.584  14.703  14.330  0.00  0.00    -0.353 N 
ATOM      9  C18 MOL d          -0.589  15.350  14.063  0.00  0.00     0.254 C 
ATOM     10  O19 MOL d          -1.557  14.733  13.608  0.00  0.00    -0.268 OA
ATOM     11  H15 MOL d           1.411  15.175  14.637  0.00  0.00     0.163 HD
BRANCH   9  12
ATOM     12  C20 MOL d          -0.582  16.811  14.156  0.00  0.00     0.068 A 
ATOM     13  C21 MOL d          -1.821  17.449  14.358  0.00  0.00    -0.054 A 
ATOM     14  C22 MOL d          -1.894  18.835  14.495  0.00  0.00    -0.022 A 
ATOM     15  H16 MOL d          -2.727  16.857  14.408  0.00  0.00     0.086 H 
ATOM     16  C23 MOL d          -0.745  19.648  14.421  0.00  0.00    -0.037 A 
ATOM     17  C33 MOL d           0.471  18.986  14.217  0.00  0.00     0.100 A 
ATOM     18  H17 MOL d          -0.800  20.727  14.517  0.00  0.00     0.089 H 
ATOM     19  C31 MOL d           0.568  17.597  14.139  0.00  0.00     0.114 A 
BRANCH  14  20
ATOM     20  C24 MOL d          -3.245  19.442  14.696  0.00  0.00    -0.026 A 
ATOM     21  C25 MOL d          -4.151  19.376  13.657  0.00  0.00    -0.069 A 
ATOM     22  C26 MOL d          -5.393  19.970  13.866  0.00  0.00    -0.045 A 
ATOM     23  H18 MOL d          -3.907  18.885  12.722  0.00  0.00     0.085 H 
ATOM     24  C29 MOL d          -5.615  20.556  15.111  0.00  0.00     0.116 A 
ATOM     25  H19 MOL d          -6.153  19.975  13.095  0.00  0.00     0.088 H 
ATOM     26  C28 MOL d          -4.716  20.662  16.141  0.00  0.00    -0.045 A 
ATOM     27  F30 MOL d          -6.822  21.197  15.402  0.00  0.00    -0.206 F 
ATOM     28  C27 MOL d          -3.483  20.036  15.917  0.00  0.00    -0.069 A 
ATOM     29  H21 MOL d          -4.942  21.190  17.060  0.00  0.00     0.088 H 
ATOM     30  H20 MOL d          -2.726  20.018  16.692  0.00  0.00     0.085 H 
ENDBRANCH  14  20
BRANCH  17  31
ATOM     31  O34 MOL d           1.625  19.774  14.141  0.00  0.00    -0.358 OA
ATOM     32  H23 MOL d           1.730  20.094  13.253  0.00  0.00     0.217 HD
ENDBRANCH  17  31
BRANCH  19  33
ATOM     33  O32 MOL d           1.806  17.081  13.918  0.00  0.00    -0.357 OA
ATOM     34  H22 MOL d           2.045  17.214  13.008  0.00  0.00     0.217 HD
ENDBRANCH  19  33
ENDBRANCH   9  12
ENDBRANCH   5   8
ENDBRANCH   2   5
BRANCH   1  35
ATOM     35  C6  MOL d          -1.399  11.490  16.898  0.00  0.00     0.084 C 
ATOM     36  C4  MOL d          -1.557   9.977  16.909  0.00  0.00     0.092 C 
ATOM     37  C2  MOL d          -2.971   9.888  16.330  0.00  0.00     0.105 C 
ATOM     38  H4  MOL d          -0.814   9.442  16.299  0.00  0.00     0.091 H 
ATOM     39  C1  MOL d          -3.674  11.063  17.026  0.00  0.00     0.140 C 
ATOM     40  H2  MOL d          -2.957  10.005  15.237  0.00  0.00     0.093 H 
ATOM     41  O13 MOL d          -2.705  12.108  17.155  0.00  0.00    -0.352 OA
ATOM     42  H1  MOL d          -4.027  10.747  18.019  0.00  0.00     0.123 H 
ATOM     43  H6  MOL d          -0.679  11.806  17.666  0.00  0.00     0.093 H 
BRANCH  36  44
ATOM     44  O5  MOL d          -1.488   9.572  18.284  0.00  0.00    -0.390 OA
ATOM     45  H5  MOL d          -2.171  10.012  18.776  0.00  0.00     0.210 HD
ENDBRANCH  36  44
BRANCH  37  46
ATOM     46  O3  MOL d          -3.651   8.673  16.679  0.00  0.00    -0.388 OA
ATOM     47  H3  MOL d          -4.181   8.386  15.944  0.00  0.00     0.210 HD
ENDBRANCH  37  46
BRANCH  39  48
ATOM     48  N10 MOL d          -4.818  11.565  16.242  0.00  0.00    -0.294 N 
ATOM     49  C9  MOL d          -6.173  11.603  16.659  0.00  0.00     0.070 A 
ATOM     50  N8  MOL d          -6.951  12.005  15.707  0.00  0.00    -0.238 NA
ATOM     51  H10 MOL d          -6.515  11.329  17.657  0.00  0.00     0.144 H 
ATOM     52  C12 MOL d          -6.161  12.209  14.627  0.00  0.00     0.128 A 
ATOM     53  C11 MOL d          -4.830  11.974  14.922  0.00  0.00     0.165 A 
ATOM     54  C35 MOL d          -6.462  12.678  13.335  0.00  0.00     0.064 A 
ATOM     55  N40 MOL d          -3.804  12.072  14.058  0.00  0.00    -0.222 NA
ATOM     56  C39 MOL d          -4.149  12.508  12.846  0.00  0.00     0.089 A 
ATOM     57  N38 MOL d          -5.439  12.802  12.478  0.00  0.00    -0.244 NA
ATOM     58  H24 MOL d          -3.366  12.639  12.109  0.00  0.00     0.146 H 
BRANCH  54  59
ATOM     59  C7  MOL d          -7.854  13.077  12.890  0.00  0.00    -0.033 C 
ATOM     60  H7  MOL d          -8.378  13.570  13.722  0.00  0.00     0.035 H 
ATOM     61  H8  MOL d          -8.413  12.180  12.584  0.00  0.00     0.035 H 
ATOM     62  H9  MOL d          -7.781  13.772  12.039  0.00  0.00     0.035 H 
ENDBRANCH  54  59
ENDBRANCH  39  48
ENDBRANCH   1  35
TORSDOF 11
ENDMDL
MODEL 8
REMARK VINA RESULT:      -7.6      5.090      9.922
REMARK  11 active torsions:
REMARK  status: ('A' for Active; 'I' for Inactive)
REMARK    1  A    between atoms: N10_10  and  C1_1 
REMARK    2  A    between atoms: C2_2  and  O3_3 
REMARK    3  A    between atoms: C4_4  and  O5_5 
REMARK    4  A    between atoms: C6_6  and  C14_14 
REMARK    5  A    between atoms: C35_35  and  C7_7 
REMARK    6  A    between atoms: C15_15  and  C16_16 
REMARK    7  A    between atoms: C16_16  and  N17_17 
REMARK       I    between atoms: N17_17  and  C18_18 
REMARK    8  A    between atoms: C18_18  and  C20_20 
REMARK    9  A    between atoms: C22_22  and  C24_24 
REMARK   10  A    between atoms: C31_31  and  O32_32 
REMARK   11  A    between atoms: C33_33  and  O34_34 
ROOT
ATOM      1  C14 MOL d          -0.249  12.015  15.752  0.00  0.00    -0.075 C 
ATOM      2  C15 MOL d           0.640  12.822  15.233  0.00  0.00    -0.087 C 
ATOM      3  H11 MOL d          -1.091  11.658  15.159  0.00  0.00     0.080 H 
ATOM      4  H12 MOL d           1.494  13.133  15.834  0.00  0.00     0.079 H 
ENDROOT
BRANCH   2   5
ATOM      5  C16 MOL d           0.509  13.321  13.846  0.00  0.00     0.010 C 
ATOM      6  H13 MOL d          -0.455  13.029  13.404  0.00  0.00     0.070 H 
ATOM      7  H14 MOL d           1.329  12.958  13.209  0.00  0.00     0.070 H 
BRANCH   5   8
ATOM      8  N17 MOL d           0.589  14.767  14.046  0.00  0.00    -0.353 N 
ATOM      9  C18 MOL d          -0.627  15.390  14.049  0.00  0.00     0.254 C 
ATOM     10  O19 MOL d          -1.659  14.755  13.811  0.00  0.00    -0.268 OA
ATOM     11  H15 MOL d           1.453  15.255  14.169  0.00  0.00     0.163 HD
BRANCH   9  12
ATOM     12  C20 MOL d          -0.628  16.851  14.152  0.00  0.00     0.068 A 
ATOM     13  C21 MOL d          -1.873  17.481  14.342  0.00  0.00    -0.054 A 
ATOM     14  C22 MOL d          -1.955  18.866  14.489  0.00  0.00    -0.022 A 
ATOM     15  H16 MOL d          -2.777  16.885  14.375  0.00  0.00     0.086 H 
ATOM     16  C23 MOL d          -0.809  19.685  14.437  0.00  0.00    -0.037 A 
ATOM     17  C33 MOL d           0.413  19.031  14.245  0.00  0.00     0.100 A 
ATOM     18  H17 MOL d          -0.871  20.763  14.540  0.00  0.00     0.089 H 
ATOM     19  C31 MOL d           0.518  17.642  14.158  0.00  0.00     0.114 A 
BRANCH  14  20
ATOM     20  C24 MOL d          -3.311  19.465  14.676  0.00  0.00    -0.026 A 
ATOM     21  C25 MOL d          -4.199  19.411  13.621  0.00  0.00    -0.069 A 
ATOM     22  C26 MOL d          -5.447  19.996  13.817  0.00  0.00    -0.045 A 
ATOM     23  H18 MOL d          -3.938  18.934  12.683  0.00  0.00     0.085 H 
ATOM     24  C29 MOL d          -5.692  20.564  15.067  0.00  0.00     0.116 A 
ATOM     25  H19 MOL d          -6.194  20.010  13.033  0.00  0.00     0.088 H 
ATOM     26  C28 MOL d          -4.811  20.658  16.113  0.00  0.00    -0.045 A 
ATOM     27  F30 MOL d          -6.906  21.195  15.346  0.00  0.00    -0.206 F 
ATOM     28  C27 MOL d          -3.572  20.039  15.901  0.00  0.00    -0.069 A 
ATOM     29  H21 MOL d          -5.055  21.172  17.036  0.00  0.00     0.088 H 
ATOM     30  H20 MOL d          -2.829  20.013  16.688  0.00  0.00     0.085 H 
ENDBRANCH  14  20
BRANCH  17  31
ATOM     31  O34 MOL d           1.564  19.824  14.191  0.00  0.00    -0.358 OA
ATOM     32  H23 MOL d           1.752  20.166  15.057  0.00  0.00     0.217 HD
ENDBRANCH  17  31
BRANCH  19  33
ATOM     33  O32 MOL d           1.761  17.134  13.950  0.00  0.00    -0.357 OA
ATOM     34  H22 MOL d           2.410  17.741  14.286  0.00  0.00     0.217 HD
ENDBRANCH  19  33
ENDBRANCH   9  12
ENDBRANCH   5   8
ENDBRANCH   2   5
BRANCH   1  35
ATOM     35  C6  MOL d          -0.083  11.590  17.184  0.00  0.00     0.084 C 
ATOM     36  C4  MOL d          -0.829  10.276  17.352  0.00  0.00     0.092 C 
ATOM     37  C2  MOL d          -2.223  10.838  17.642  0.00  0.00     0.105 C 
ATOM     38  H4  MOL d          -0.809   9.629  16.462  0.00  0.00     0.091 H 
ATOM     39  C1  MOL d          -1.901  12.034  18.551  0.00  0.00     0.140 C 
ATOM     40  H2  MOL d          -2.724  11.149  16.714  0.00  0.00     0.093 H 
ATOM     41  O13 MOL d          -0.671  12.592  18.081  0.00  0.00    -0.352 OA
ATOM     42  H1  MOL d          -1.790  11.689  19.590  0.00  0.00     0.123 H 
ATOM     43  H6  MOL d           0.983  11.459  17.420  0.00  0.00     0.093 H 
BRANCH  36  44
ATOM     44  O5  MOL d          -0.243   9.619  18.485  0.00  0.00    -0.390 OA
ATOM     45  H5  MOL d          -0.148  10.242  19.195  0.00  0.00     0.210 HD
ENDBRANCH  36  44
BRANCH  37  46
ATOM     46  O3  MOL d          -3.064   9.925  18.363  0.00  0.00    -0.388 OA
ATOM     47  H3  MOL d          -2.919   9.042  18.043  0.00  0.00     0.210 HD
ENDBRANCH  37  46
BRANCH  39  48
ATOM     48  N10 MOL d          -2.950  13.069  18.494  0.00  0.00    -0.294 N 
ATOM     49  C9  MOL d          -3.090  14.175  19.370  0.00  0.00     0.070 A 
ATOM     50  N8  MOL d          -4.169  14.844  19.121  0.00  0.00    -0.238 NA
ATOM     51  H10 MOL d          -2.379  14.429  20.155  0.00  0.00     0.144 H 
ATOM     52  C12 MOL d          -4.796  14.197  18.111  0.00  0.00     0.128 A 
ATOM     53  C11 MOL d          -4.063  13.108  17.675  0.00  0.00     0.165 A 
ATOM     54  C35 MOL d          -5.983  14.495  17.416  0.00  0.00     0.064 A 
ATOM     55  N40 MOL d          -4.425  12.255  16.700  0.00  0.00    -0.222 NA
ATOM     56  C39 MOL d          -5.563  12.579  16.085  0.00  0.00     0.089 A 
ATOM     57  N38 MOL d          -6.335  13.662  16.426  0.00  0.00    -0.244 NA
ATOM     58  H24 MOL d          -5.899  11.951  15.269  0.00  0.00     0.146 H 
BRANCH  54  59
ATOM     59  C7  MOL d          -6.843  15.708  17.704  0.00  0.00    -0.033 C 
ATOM     60  H7  MOL d          -7.465  15.934  16.825  0.00  0.00     0.035 H 
ATOM     61  H8  MOL d          -6.197  16.571  17.927  0.00  0.00     0.035 H 
ATOM     62  H9  MOL d          -7.491  15.501  18.569  0.00  0.00     0.035 H 
ENDBRANCH  54  59
ENDBRANCH  39  48
ENDBRANCH   1  35
TORSDOF 11
ENDMDL
MODEL 9
REMARK VINA RESULT:      -7.6      5.166      8.260
REMARK  11 active torsions:
REMARK  status: ('A' for Active; 'I' for Inactive)
REMARK    1  A    between atoms: N10_10  and  C1_1 
REMARK    2  A    between atoms: C2_2  and  O3_3 
REMARK    3  A    between atoms: C4_4  and  O5_5 
REMARK    4  A    between atoms: C6_6  and  C14_14 
REMARK    5  A    between atoms: C35_35  and  C7_7 
REMARK    6  A    between atoms: C15_15  and  C16_16 
REMARK    7  A    between atoms: C16_16  and  N17_17 
REMARK       I    between atoms: N17_17  and  C18_18 
REMARK    8  A    between atoms: C18_18  and  C20_20 
REMARK    9  A    between atoms: C22_22  and  C24_24 
REMARK   10  A    between atoms: C31_31  and  O32_32 
REMARK   11  A    between atoms: C33_33  and  O34_34 
ROOT
ATOM      1  C14 MOL d          -5.182  12.899  16.038  0.00  0.00    -0.075 C 
ATOM      2  C15 MOL d          -4.065  12.306  15.703  0.00  0.00    -0.087 C 
ATOM      3  H11 MOL d          -5.812  13.368  15.284  0.00  0.00     0.080 H 
ATOM      4  H12 MOL d          -3.473  11.809  16.471  0.00  0.00     0.079 H 
ENDROOT
BRANCH   2   5
ATOM      5  C16 MOL d          -3.590  12.297  14.302  0.00  0.00     0.010 C 
ATOM      6  H13 MOL d          -4.421  12.144  13.598  0.00  0.00     0.070 H 
ATOM      7  H14 MOL d          -2.827  11.521  14.141  0.00  0.00     0.070 H 
BRANCH   5   8
ATOM      8  N17 MOL d          -3.022  13.638  14.176  0.00  0.00    -0.353 N 
ATOM      9  C18 MOL d          -1.656  13.657  14.154  0.00  0.00     0.254 C 
ATOM     10  O19 MOL d          -1.010  12.618  14.318  0.00  0.00    -0.268 OA
ATOM     11  H15 MOL d          -3.581  14.465  14.112  0.00  0.00     0.163 HD
BRANCH   9  12
ATOM     12  C20 MOL d          -1.008  14.969  14.121  0.00  0.00     0.068 A 
ATOM     13  C21 MOL d          -1.845  16.101  14.126  0.00  0.00    -0.054 A 
ATOM     14  C22 MOL d          -1.305  17.387  14.134  0.00  0.00    -0.022 A 
ATOM     15  H16 MOL d          -2.922  15.972  14.124  0.00  0.00     0.086 H 
ATOM     16  C23 MOL d           0.087  17.606  14.121  0.00  0.00    -0.037 A 
ATOM     17  C33 MOL d           0.894  16.462  14.113  0.00  0.00     0.100 A 
ATOM     18  H17 MOL d           0.509  18.604  14.117  0.00  0.00     0.089 H 
ATOM     19  C31 MOL d           0.370  15.170  14.166  0.00  0.00     0.114 A 
BRANCH  14  20
ATOM     20  C24 MOL d          -2.257  18.540  14.128  0.00  0.00    -0.026 A 
ATOM     21  C25 MOL d          -1.783  19.780  14.504  0.00  0.00    -0.069 A 
ATOM     22  C26 MOL d          -2.698  20.829  14.510  0.00  0.00    -0.045 A 
ATOM     23  H18 MOL d          -0.746  19.931  14.781  0.00  0.00     0.085 H 
ATOM     24  C29 MOL d          -4.002  20.536  14.116  0.00  0.00     0.116 A 
ATOM     25  H19 MOL d          -2.409  21.830  14.808  0.00  0.00     0.088 H 
ATOM     26  C28 MOL d          -4.500  19.304  13.774  0.00  0.00    -0.045 A 
ATOM     27  F30 MOL d          -4.994  21.520  14.115  0.00  0.00    -0.206 F 
ATOM     28  C27 MOL d          -3.555  18.270  13.751  0.00  0.00    -0.069 A 
ATOM     29  H21 MOL d          -5.545  19.143  13.539  0.00  0.00     0.088 H 
ATOM     30  H20 MOL d          -3.840  17.272  13.441  0.00  0.00     0.085 H 
ENDBRANCH  14  20
BRANCH  17  31
ATOM     31  O34 MOL d           2.279  16.656  14.101  0.00  0.00    -0.358 OA
ATOM     32  H23 MOL d           2.650  16.335  14.915  0.00  0.00     0.217 HD
ENDBRANCH  17  31
BRANCH  19  33
ATOM     33  O32 MOL d           1.262  14.146  14.132  0.00  0.00    -0.357 OA
ATOM     34  H22 MOL d           0.797  13.328  13.996  0.00  0.00     0.217 HD
ENDBRANCH  19  33
ENDBRANCH   9  12
ENDBRANCH   5   8
ENDBRANCH   2   5
BRANCH   1  35
ATOM     35  C6  MOL d          -5.576  12.916  17.488  0.00  0.00     0.084 C 
ATOM     36  C4  MOL d          -7.088  12.764  17.544  0.00  0.00     0.092 C 
ATOM     37  C2  MOL d          -7.475  14.236  17.384  0.00  0.00     0.105 C 
ATOM     38  H4  MOL d          -7.506  12.126  16.751  0.00  0.00     0.091 H 
ATOM     39  C1  MOL d          -6.417  14.939  18.248  0.00  0.00     0.140 C 
ATOM     40  H2  MOL d          -7.418  14.545  16.330  0.00  0.00     0.093 H 
ATOM     41  O13 MOL d          -5.202  14.197  18.100  0.00  0.00    -0.352 OA
ATOM     42  H1  MOL d          -6.738  14.937  19.300  0.00  0.00     0.123 H 
ATOM     43  H6  MOL d          -5.088  12.090  18.025  0.00  0.00     0.093 H 
BRANCH  36  44
ATOM     44  O5  MOL d          -7.396  12.243  18.845  0.00  0.00    -0.390 OA
ATOM     45  H5  MOL d          -8.336  12.139  18.929  0.00  0.00     0.210 HD
ENDBRANCH  36  44
BRANCH  37  46
ATOM     46  O3  MOL d          -8.775  14.542  17.909  0.00  0.00    -0.388 OA
ATOM     47  H3  MOL d          -9.128  13.775  18.344  0.00  0.00     0.210 HD
ENDBRANCH  37  46
BRANCH  39  48
ATOM     48  N10 MOL d          -6.184  16.329  17.814  0.00  0.00    -0.294 N 
ATOM     49  C9  MOL d          -5.054  16.812  17.106  0.00  0.00     0.070 A 
ATOM     50  N8  MOL d          -5.099  18.097  16.962  0.00  0.00    -0.238 NA
ATOM     51  H10 MOL d          -4.251  16.180  16.729  0.00  0.00     0.144 H 
ATOM     52  C12 MOL d          -6.221  18.514  17.593  0.00  0.00     0.128 A 
ATOM     53  C11 MOL d          -6.936  17.450  18.111  0.00  0.00     0.165 A 
ATOM     54  C35 MOL d          -6.786  19.796  17.726  0.00  0.00     0.064 A 
ATOM     55  N40 MOL d          -8.084  17.537  18.808  0.00  0.00    -0.222 NA
ATOM     56  C39 MOL d          -8.566  18.776  18.913  0.00  0.00     0.089 A 
ATOM     57  N38 MOL d          -7.943  19.886  18.397  0.00  0.00    -0.244 NA
ATOM     58  H24 MOL d          -9.504  18.915  19.436  0.00  0.00     0.146 H 
BRANCH  54  59
ATOM     59  C7  MOL d          -6.179  21.048  17.126  0.00  0.00    -0.033 C 
ATOM     60  H7  MOL d          -5.835  20.835  16.103  0.00  0.00     0.035 H 
ATOM     61  H8  MOL d          -5.327  21.373  17.740  0.00  0.00     0.035 H 
ATOM     62  H9  MOL d          -6.937  21.845  17.099  0.00  0.00     0.035 H 
ENDBRANCH  54  59
ENDBRANCH  39  48
ENDBRANCH   1  35
TORSDOF 11
ENDMDL
MODEL 10
REMARK VINA RESULT:      -7.0      5.504      9.180
REMARK  11 active torsions:
REMARK  status: ('A' for Active; 'I' for Inactive)
REMARK    1  A    between atoms: N10_10  and  C1_1 
REMARK    2  A    between atoms: C2_2  and  O3_3 
REMARK    3  A    between atoms: C4_4  and  O5_5 
REMARK    4  A    between atoms: C6_6  and  C14_14 
REMARK    5  A    between atoms: C35_35  and  C7_7 
REMARK    6  A    between atoms: C15_15  and  C16_16 
REMARK    7  A    between atoms: C16_16  and  N17_17 
REMARK       I    between atoms: N17_17  and  C18_18 
REMARK    8  A    between atoms: C18_18  and  C20_20 
REMARK    9  A    between atoms: C22_22  and  C24_24 
REMARK   10  A    between atoms: C31_31  and  O32_32 
REMARK   11  A    between atoms: C33_33  and  O34_34 
ROOT
ATOM      1  C14 MOL d          -3.948  13.576  16.759  0.00  0.00    -0.075 C 
ATOM      2  C15 MOL d          -4.999  12.895  17.138  0.00  0.00    -0.087 C 
ATOM      3  H11 MOL d          -3.747  14.565  17.168  0.00  0.00     0.080 H 
ATOM      4  H12 MOL d          -5.155  11.891  16.745  0.00  0.00     0.079 H 
ENDROOT
BRANCH   2   5
ATOM      5  C16 MOL d          -5.979  13.462  18.091  0.00  0.00     0.010 C 
ATOM      6  H13 MOL d          -5.793  13.108  19.116  0.00  0.00     0.070 H 
ATOM      7  H14 MOL d          -7.011  13.216  17.800  0.00  0.00     0.070 H 
BRANCH   5   8
ATOM      8  N17 MOL d          -5.715  14.894  17.965  0.00  0.00    -0.353 N 
ATOM      9  C18 MOL d          -6.817  15.676  18.170  0.00  0.00     0.254 C 
ATOM     10  O19 MOL d          -7.925  15.165  18.354  0.00  0.00    -0.268 OA
ATOM     11  H15 MOL d          -4.813  15.267  17.748  0.00  0.00     0.163 HD
BRANCH   9  12
ATOM     12  C20 MOL d          -6.658  17.118  17.973  0.00  0.00     0.068 A 
ATOM     13  C21 MOL d          -5.590  17.542  17.159  0.00  0.00    -0.054 A 
ATOM     14  C22 MOL d          -5.393  18.897  16.890  0.00  0.00    -0.022 A 
ATOM     15  H16 MOL d          -4.914  16.808  16.735  0.00  0.00     0.086 H 
ATOM     16  C23 MOL d          -6.235  19.889  17.431  0.00  0.00    -0.037 A 
ATOM     17  C33 MOL d          -7.285  19.438  18.238  0.00  0.00     0.100 A 
ATOM     18  H17 MOL d          -6.078  20.943  17.233  0.00  0.00     0.089 H 
ATOM     19  C31 MOL d          -7.532  18.084  18.466  0.00  0.00     0.114 A 
BRANCH  14  20
ATOM     20  C24 MOL d          -4.232  19.271  16.027  0.00  0.00    -0.026 A 
ATOM     21  C25 MOL d          -3.929  18.459  14.953  0.00  0.00    -0.069 A 
ATOM     22  C26 MOL d          -2.829  18.821  14.180  0.00  0.00    -0.045 A 
ATOM     23  H18 MOL d          -4.520  17.580  14.722  0.00  0.00     0.085 H 
ATOM     24  C29 MOL d          -2.148  19.980  14.548  0.00  0.00     0.116 A 
ATOM     25  H19 MOL d          -2.516  18.227  13.330  0.00  0.00     0.088 H 
ATOM     26  C28 MOL d          -2.413  20.779  15.630  0.00  0.00    -0.045 A 
ATOM     27  F30 MOL d          -1.019  20.407  13.846  0.00  0.00    -0.206 F 
ATOM     28  C27 MOL d          -3.539  20.409  16.378  0.00  0.00    -0.069 A 
ATOM     29  H21 MOL d          -1.798  21.633  15.888  0.00  0.00     0.088 H 
ATOM     30  H20 MOL d          -3.861  21.009  17.220  0.00  0.00     0.085 H 
ENDBRANCH  14  20
BRANCH  17  31
ATOM     31  O34 MOL d          -8.135  20.406  18.786  0.00  0.00    -0.358 OA
ATOM     32  H23 MOL d          -8.867  19.977  19.213  0.00  0.00     0.217 HD
ENDBRANCH  17  31
BRANCH  19  33
ATOM     33  O32 MOL d          -8.572  17.780  19.287  0.00  0.00    -0.357 OA
ATOM     34  H22 MOL d          -8.904  16.917  19.069  0.00  0.00     0.217 HD
ENDBRANCH  19  33
ENDBRANCH   9  12
ENDBRANCH   5   8
ENDBRANCH   2   5
BRANCH   1  35
ATOM     35  C6  MOL d          -3.023  12.960  15.747  0.00  0.00     0.084 C 
ATOM     36  C4  MOL d          -2.467  14.094  14.900  0.00  0.00     0.092 C 
ATOM     37  C2  MOL d          -3.593  14.186  13.868  0.00  0.00     0.105 C 
ATOM     38  H4  MOL d          -2.316  15.035  15.450  0.00  0.00     0.091 H 
ATOM     39  C1  MOL d          -3.926  12.706  13.627  0.00  0.00     0.140 C 
ATOM     40  H2  MOL d          -4.453  14.741  14.272  0.00  0.00     0.093 H 
ATOM     41  O13 MOL d          -3.763  12.035  14.881  0.00  0.00    -0.352 OA
ATOM     42  H1  MOL d          -3.234  12.289  12.880  0.00  0.00     0.123 H 
ATOM     43  H6  MOL d          -2.208  12.424  16.254  0.00  0.00     0.093 H 
BRANCH  36  44
ATOM     44  O5  MOL d          -1.234  13.616  14.342  0.00  0.00    -0.390 OA
ATOM     45  H5  MOL d          -1.423  13.006  13.639  0.00  0.00     0.210 HD
ENDBRANCH  36  44
BRANCH  37  46
ATOM     46  O3  MOL d          -3.179  14.773  12.626  0.00  0.00    -0.388 OA
ATOM     47  H3  MOL d          -3.581  14.303  11.905  0.00  0.00     0.210 HD
ENDBRANCH  37  46
BRANCH  39  48
ATOM     48  N10 MOL d          -5.313  12.519  13.161  0.00  0.00    -0.294 N 
ATOM     49  C9  MOL d          -6.442  13.280  13.555  0.00  0.00     0.070 A 
ATOM     50  N8  MOL d          -7.533  12.806  13.048  0.00  0.00    -0.238 NA
ATOM     51  H10 MOL d          -6.397  14.155  14.203  0.00  0.00     0.144 H 
ATOM     52  C12 MOL d          -7.181  11.708  12.340  0.00  0.00     0.128 A 
ATOM     53  C11 MOL d          -5.813  11.509  12.361  0.00  0.00     0.165 A 
ATOM     54  C35 MOL d          -7.948  10.825  11.557  0.00  0.00     0.064 A 
ATOM     55  N40 MOL d          -5.155  10.496  11.769  0.00  0.00    -0.222 NA
ATOM     56  C39 MOL d          -5.933   9.685  11.052  0.00  0.00     0.089 A 
ATOM     57  N38 MOL d          -7.294   9.829  10.944  0.00  0.00    -0.244 NA
ATOM     58  H24 MOL d          -5.463   8.864  10.524  0.00  0.00     0.146 H 
BRANCH  54  59
ATOM     59  C7  MOL d          -9.442  10.969  11.348  0.00  0.00    -0.033 C 
ATOM     60  H7  MOL d          -9.634  11.400  10.354  0.00  0.00     0.035 H 
ATOM     61  H8  MOL d          -9.858  11.631  12.122  0.00  0.00     0.035 H 
ATOM     62  H9  MOL d          -9.918   9.980  11.416  0.00  0.00     0.035 H 
ENDBRANCH  54  59
ENDBRANCH  39  48
ENDBRANCH   1  35
TORSDOF 11
ENDMDL
