MODEL 1
REMARK VINA RESULT:      -7.5      0.000      0.000
REMARK  4 active torsions:
REMARK  status: ('A' for Active; 'I' for Inactive)
REMARK    1  A    between atoms: OH_1  and  CZ3_2 
REMARK    2  A    between atoms: CG_8  and  CB_11 
REMARK    3  A    between atoms: CB_11  and  CA_12 
REMARK    4  A    between atoms: CA_12  and  NZ_13 
ROOT
ATOM      1  CZ3 SRO d          13.347   9.969   9.814  0.00  0.00     0.066 A 
ATOM      2  CH2 SRO d          14.370  10.397   8.953  0.00  0.00    -0.049 A 
ATOM      3  CZ2 SRO d          14.390  10.003   7.615  0.00  0.00    -0.054 A 
ATOM      4  CE2 SRO d          13.361   9.174   7.110  0.00  0.00     0.043 A 
ATOM      5  NE1 SRO d          13.138   8.639   5.850  0.00  0.00    -0.365 N 
ATOM      6  CD1 SRO d          12.009   7.899   5.877  0.00  0.00    -0.015 A 
ATOM      7  CG  SRO d          11.496   7.945   7.172  0.00  0.00    -0.029 A 
ATOM      8  CD2 SRO d          12.360   8.750   7.951  0.00  0.00     0.001 A 
ATOM      9  CE3 SRO d          12.344   9.141   9.311  0.00  0.00    -0.038 A 
ATOM     10  H2  SRO d          15.155  11.041   9.333  0.00  0.00     0.087 H 
ATOM     11  H3  SRO d          15.192  10.331   6.964  0.00  0.00     0.087 H 
ATOM     12  H4  SRO d          13.739   8.783   5.026  0.00  0.00     0.165 HD
ATOM     13  H5  SRO d          11.576   7.361   5.035  0.00  0.00     0.112 H 
ATOM     14  H6  SRO d          11.549   8.797   9.964  0.00  0.00     0.089 H 
ENDROOT
BRANCH   7  15
ATOM     15  CB  SRO d          10.264   7.285   7.689  0.00  0.00    -0.017 C 
ATOM     16  H7  SRO d           9.408   7.734   7.165  0.00  0.00     0.042 H 
ATOM     17  H8  SRO d          10.197   7.511   8.763  0.00  0.00     0.042 H 
BRANCH  15  18
ATOM     18  CA  SRO d          10.152   5.812   7.540  0.00  0.00     0.083 C 
ATOM     19  H9  SRO d           9.654   5.612   6.580  0.00  0.00     0.075 H 
ATOM     20  H10 SRO d           9.524   5.441   8.363  0.00  0.00     0.075 H 
BRANCH  18  21
ATOM     21  NZ  SRO d          11.372   5.065   7.557  0.00  0.00    -0.079 N 
ATOM     22  H11 SRO d          11.262   4.228   7.007  0.00  0.00     0.274 HD
ATOM     23  H12 SRO d          11.600   4.816   8.506  0.00  0.00     0.274 HD
ATOM     24  H13 SRO d          12.115   5.627   7.169  0.00  0.00     0.274 HD
ENDBRANCH  18  21
ENDBRANCH  15  18
ENDBRANCH   7  15
BRANCH   1  25
ATOM     25  OH  SRO d          13.323  10.346  11.150  0.00  0.00    -0.361 OA
ATOM     26  H1  SRO d          12.985  11.232  11.221  0.00  0.00     0.217 HD
ENDBRANCH   1  25
TORSDOF 4
ENDMDL
MODEL 2
REMARK VINA RESULT:      -6.3      2.407      4.512
REMARK  4 active torsions:
REMARK  status: ('A' for Active; 'I' for Inactive)
REMARK    1  A    between atoms: OH_1  and  CZ3_2 
REMARK    2  A    between atoms: CG_8  and  CB_11 
REMARK    3  A    between atoms: CB_11  and  CA_12 
REMARK    4  A    between atoms: CA_12  and  NZ_13 
ROOT
ATOM      1  CZ3 SRO d          10.349   6.781   7.688  0.00  0.00     0.066 A 
ATOM      2  CH2 SRO d          10.670   6.462   6.359  0.00  0.00    -0.049 A 
ATOM      3  CZ2 SRO d          11.701   7.125   5.693  0.00  0.00    -0.054 A 
ATOM      4  CE2 SRO d          12.446   8.123   6.365  0.00  0.00     0.043 A 
ATOM      5  NE1 SRO d          13.498   8.927   5.954  0.00  0.00    -0.365 N 
ATOM      6  CD1 SRO d          13.863   9.734   6.972  0.00  0.00    -0.015 A 
ATOM      7  CG  SRO d          13.031   9.459   8.057  0.00  0.00    -0.029 A 
ATOM      8  CD2 SRO d          12.131   8.440   7.665  0.00  0.00     0.001 A 
ATOM      9  CE3 SRO d          11.079   7.775   8.338  0.00  0.00    -0.038 A 
ATOM     10  H2  SRO d          10.110   5.689   5.844  0.00  0.00     0.087 H 
ATOM     11  H3  SRO d          11.931   6.876   4.664  0.00  0.00     0.087 H 
ATOM     12  H4  SRO d          13.931   8.910   5.020  0.00  0.00     0.165 HD
ATOM     13  H5  SRO d          14.664  10.471   6.951  0.00  0.00     0.112 H 
ATOM     14  H6  SRO d          10.841   8.039   9.363  0.00  0.00     0.089 H 
ENDROOT
BRANCH   7  15
ATOM     15  CB  SRO d          13.050  10.095   9.404  0.00  0.00    -0.017 C 
ATOM     16  H7  SRO d          13.428   9.345  10.115  0.00  0.00     0.042 H 
ATOM     17  H8  SRO d          12.012  10.352   9.660  0.00  0.00     0.042 H 
BRANCH  15  18
ATOM     18  CA  SRO d          13.866  11.322   9.581  0.00  0.00     0.083 C 
ATOM     19  H9  SRO d          13.567  11.786  10.532  0.00  0.00     0.075 H 
ATOM     20  H10 SRO d          13.627  12.002   8.750  0.00  0.00     0.075 H 
BRANCH  18  21
ATOM     21  NZ  SRO d          15.287  11.156   9.609  0.00  0.00    -0.079 N 
ATOM     22  H11 SRO d          15.707  11.731   8.895  0.00  0.00     0.274 HD
ATOM     23  H12 SRO d          15.516  10.190   9.440  0.00  0.00     0.274 HD
ATOM     24  H13 SRO d          15.640  11.432  10.513  0.00  0.00     0.274 HD
ENDBRANCH  18  21
ENDBRANCH  15  18
ENDBRANCH   7  15
BRANCH   1  25
ATOM     25  OH  SRO d           9.319   6.135   8.357  0.00  0.00    -0.361 OA
ATOM     26  H1  SRO d           8.523   6.192   7.841  0.00  0.00     0.217 HD
ENDBRANCH   1  25
TORSDOF 4
ENDMDL
MODEL 3
REMARK VINA RESULT:      -6.3      2.147      2.671
REMARK  4 active torsions:
REMARK  status: ('A' for Active; 'I' for Inactive)
REMARK    1  A    between atoms: OH_1  and  CZ3_2 
REMARK    2  A    between atoms: CG_8  and  CB_11 
REMARK    3  A    between atoms: CB_11  and  CA_12 
REMARK    4  A    between atoms: CA_12  and  NZ_13 
ROOT
ATOM      1  CZ3 SRO d          14.438   9.850   6.558  0.00  0.00     0.066 A 
ATOM      2  CH2 SRO d          14.660  10.374   7.842  0.00  0.00    -0.049 A 
ATOM      3  CZ2 SRO d          13.796  10.073   8.895  0.00  0.00    -0.054 A 
ATOM      4  CE2 SRO d          12.689   9.219   8.676  0.00  0.00     0.043 A 
ATOM      5  NE1 SRO d          11.689   8.765   9.522  0.00  0.00    -0.365 N 
ATOM      6  CD1 SRO d          10.850   7.967   8.828  0.00  0.00    -0.015 A 
ATOM      7  CG  SRO d          11.305   7.909   7.512  0.00  0.00    -0.029 A 
ATOM      8  CD2 SRO d          12.468   8.708   7.419  0.00  0.00     0.001 A 
ATOM      9  CE3 SRO d          13.338   9.020   6.347  0.00  0.00    -0.038 A 
ATOM     10  H2  SRO d          15.513  11.019   8.017  0.00  0.00     0.087 H 
ATOM     11  H3  SRO d          13.972  10.493   9.878  0.00  0.00     0.087 H 
ATOM     12  H4  SRO d          11.600   9.000  10.521  0.00  0.00     0.165 HD
ATOM     13  H5  SRO d           9.973   7.459   9.226  0.00  0.00     0.112 H 
ATOM     14  H6  SRO d          13.149   8.612   5.361  0.00  0.00     0.089 H 
ENDROOT
BRANCH   7  15
ATOM     15  CB  SRO d          10.709   7.153   6.374  0.00  0.00    -0.017 C 
ATOM     16  H7  SRO d          11.393   7.254   5.519  0.00  0.00     0.042 H 
ATOM     17  H8  SRO d           9.747   7.629   6.133  0.00  0.00     0.042 H 
BRANCH  15  18
ATOM     18  CA  SRO d          10.449   5.704   6.564  0.00  0.00     0.083 C 
ATOM     19  H9  SRO d          10.591   5.211   5.592  0.00  0.00     0.075 H 
ATOM     20  H10 SRO d           9.402   5.593   6.883  0.00  0.00     0.075 H 
BRANCH  18  21
ATOM     21  NZ  SRO d          11.266   5.020   7.519  0.00  0.00    -0.079 N 
ATOM     22  H11 SRO d          11.111   5.410   8.435  0.00  0.00     0.274 HD
ATOM     23  H12 SRO d          12.236   5.127   7.268  0.00  0.00     0.274 HD
ATOM     24  H13 SRO d          11.026   4.040   7.526  0.00  0.00     0.274 HD
ENDBRANCH  18  21
ENDBRANCH  15  18
ENDBRANCH   7  15
BRANCH   1  25
ATOM     25  OH  SRO d          15.286  10.151   5.500  0.00  0.00    -0.361 OA
ATOM     26  H1  SRO d          14.796  10.129   4.687  0.00  0.00     0.217 HD
ENDBRANCH   1  25
TORSDOF 4
ENDMDL
MODEL 4
REMARK VINA RESULT:      -5.0      2.703      4.919
REMARK  4 active torsions:
REMARK  status: ('A' for Active; 'I' for Inactive)
REMARK    1  A    between atoms: OH_1  and  CZ3_2 
REMARK    2  A    between atoms: CG_8  and  CB_11 
REMARK    3  A    between atoms: CB_11  and  CA_12 
REMARK    4  A    between atoms: CA_12  and  NZ_13 
ROOT
ATOM      1  CZ3 SRO d          11.535   7.384   5.846  0.00  0.00     0.066 A 
ATOM      2  CH2 SRO d          10.636   6.900   6.811  0.00  0.00    -0.049 A 
ATOM      3  CZ2 SRO d          10.712   7.327   8.137  0.00  0.00    -0.054 A 
ATOM      4  CE2 SRO d          11.694   8.270   8.518  0.00  0.00     0.043 A 
ATOM      5  NE1 SRO d          11.993   8.852   9.740  0.00  0.00    -0.365 N 
ATOM      6  CD1 SRO d          13.037   9.694   9.586  0.00  0.00    -0.015 A 
ATOM      7  CG  SRO d          13.429   9.652   8.249  0.00  0.00    -0.029 A 
ATOM      8  CD2 SRO d          12.578   8.743   7.577  0.00  0.00     0.001 A 
ATOM      9  CE3 SRO d          12.509   8.304   6.233  0.00  0.00    -0.038 A 
ATOM     10  H2  SRO d           9.874   6.185   6.520  0.00  0.00     0.087 H 
ATOM     11  H3  SRO d          10.019   6.936   8.873  0.00  0.00     0.087 H 
ATOM     12  H4  SRO d          11.497   8.671  10.624  0.00  0.00     0.165 HD
ATOM     13  H5  SRO d          13.493  10.300  10.368  0.00  0.00     0.112 H 
ATOM     14  H6  SRO d          13.214   8.684   5.503  0.00  0.00     0.089 H 
ENDROOT
BRANCH   7  15
ATOM     15  CB  SRO d          14.535  10.409   7.599  0.00  0.00    -0.017 C 
ATOM     16  H7  SRO d          15.413  10.337   8.258  0.00  0.00     0.042 H 
ATOM     17  H8  SRO d          14.216  11.460   7.528  0.00  0.00     0.042 H 
BRANCH  15  18
ATOM     18  CA  SRO d          14.964   9.985   6.242  0.00  0.00     0.083 C 
ATOM     19  H9  SRO d          14.504   9.007   6.040  0.00  0.00     0.075 H 
ATOM     20  H10 SRO d          16.058   9.881   6.257  0.00  0.00     0.075 H 
BRANCH  18  21
ATOM     21  NZ  SRO d          14.627  10.854   5.157  0.00  0.00    -0.079 N 
ATOM     22  H11 SRO d          15.348  10.809   4.454  0.00  0.00     0.274 HD
ATOM     23  H12 SRO d          14.546  11.799   5.495  0.00  0.00     0.274 HD
ATOM     24  H13 SRO d          13.748  10.565   4.755  0.00  0.00     0.274 HD
ENDBRANCH  18  21
ENDBRANCH  15  18
ENDBRANCH   7  15
BRANCH   1  25
ATOM     25  OH  SRO d          11.475   6.959   4.526  0.00  0.00    -0.361 OA
ATOM     26  H1  SRO d          10.948   7.568   4.022  0.00  0.00     0.217 HD
ENDBRANCH   1  25
TORSDOF 4
ENDMDL
