MODEL 1
REMARK VINA RESULT:      -9.6      0.000      0.000
REMARK  7 active torsions:
REMARK  status: ('A' for Active; 'I' for Inactive)
REMARK    1  A    between atoms: C2_3  and  C5_9 
REMARK    2  A    between atoms: C11_15  and  C2_3 
REMARK    3  A    between atoms: C3_5  and  N3_7 
REMARK    4  A    between atoms: N2_6  and  C4_8 
REMARK    5  A    between atoms: C19_23  and  C15_19 
REMARK    6  A    between atoms: C22_26  and  O2_27 
REMARK    7  A    between atoms: O2_27  and  C23_28 
ROOT
ATOM      1  O1  MOL d          22.769  13.101  21.910  0.00  0.00    -0.269 OA
ATOM      2  C1  MOL d          22.655  11.945  22.267  0.00  0.00     0.276 A 
ATOM      3  C2  MOL d          22.399  10.702  21.332  0.00  0.00     0.183 A 
ATOM      4  N1  MOL d          22.530   9.567  22.304  0.00  0.00    -0.199 N 
ATOM      5  C3  MOL d          22.679  10.061  23.544  0.00  0.00     0.677 A 
ATOM      6  N2  MOL d          22.797  11.480  23.554  0.00  0.00    -0.153 N 
ATOM      7  H1  MOL d          22.509   8.566  22.060  0.00  0.00     0.179 HD
ENDROOT
BRANCH   3   8
ATOM      8  C5  MOL d          20.974  10.739  20.745  0.00  0.00    -0.015 A 
ATOM      9  C6  MOL d          20.223   9.572  20.640  0.00  0.00    -0.074 A 
ATOM     10  C7  MOL d          18.928   9.599  20.125  0.00  0.00    -0.082 A 
ATOM     11  H7  MOL d          20.651   8.629  20.962  0.00  0.00     0.084 H 
ATOM     12  C8  MOL d          18.369  10.788  19.716  0.00  0.00    -0.083 A 
ATOM     13  H8  MOL d          18.359   8.679  20.046  0.00  0.00     0.083 H 
ATOM     14  C9  MOL d          19.101  11.956  19.809  0.00  0.00    -0.082 A 
ATOM     15  H9  MOL d          17.359  10.807  19.323  0.00  0.00     0.083 H 
ATOM     16  C10 MOL d          20.399  11.933  20.314  0.00  0.00    -0.074 A 
ATOM     17  H10 MOL d          18.663  12.895  19.487  0.00  0.00     0.083 H 
ATOM     18  H11 MOL d          20.968  12.854  20.371  0.00  0.00     0.084 H 
ENDBRANCH   3   8
BRANCH   3  19
ATOM     19  C11 MOL d          23.523  10.664  20.279  0.00  0.00    -0.015 A 
ATOM     20  C12 MOL d          23.249  10.817  18.923  0.00  0.00    -0.074 A 
ATOM     21  C13 MOL d          24.278  10.925  17.999  0.00  0.00    -0.082 A 
ATOM     22  H12 MOL d          22.219  10.854  18.585  0.00  0.00     0.084 H 
ATOM     23  C14 MOL d          25.593  10.867  18.419  0.00  0.00    -0.072 A 
ATOM     24  H13 MOL d          24.049  11.055  16.947  0.00  0.00     0.083 H 
ATOM     25  C15 MOL d          25.900  10.682  19.770  0.00  0.00    -0.025 A 
ATOM     26  H14 MOL d          26.394  10.966  17.694  0.00  0.00     0.084 H 
ATOM     27  C16 MOL d          24.853  10.575  20.693  0.00  0.00    -0.063 A 
ATOM     28  H15 MOL d          25.077  10.422  21.743  0.00  0.00     0.085 H 
BRANCH  25  29
ATOM     29  C19 MOL d          27.310  10.610  20.241  0.00  0.00    -0.023 A 
ATOM     30  C18 MOL d          27.711   9.577  21.089  0.00  0.00    -0.040 A 
ATOM     31  C22 MOL d          28.961   9.595  21.698  0.00  0.00     0.069 A 
ATOM     32  H17 MOL d          27.038   8.748  21.276  0.00  0.00     0.089 H 
ATOM     33  C17 MOL d          29.844  10.642  21.456  0.00  0.00    -0.051 A 
ATOM     34  C21 MOL d          29.475  11.648  20.576  0.00  0.00    -0.080 A 
ATOM     35  H16 MOL d          30.808  10.671  21.950  0.00  0.00     0.087 H 
ATOM     36  C20 MOL d          28.222  11.634  19.973  0.00  0.00    -0.072 A 
ATOM     37  H19 MOL d          30.168  12.452  20.356  0.00  0.00     0.083 H 
ATOM     38  H18 MOL d          27.949  12.428  19.286  0.00  0.00     0.084 H 
BRANCH  31  39
ATOM     39  O2  MOL d          29.183   8.535  22.542  0.00  0.00    -0.356 OA
BRANCH  39  40
ATOM     40  C23 MOL d          30.141   8.705  23.598  0.00  0.00     0.010 C 
ATOM     41  H20 MOL d          30.135   7.816  24.246  0.00  0.00     0.066 H 
ATOM     42  H21 MOL d          29.879   9.593  24.191  0.00  0.00     0.066 H 
ATOM     43  H22 MOL d          31.144   8.836  23.166  0.00  0.00     0.066 H 
ENDBRANCH  39  40
ENDBRANCH  31  39
ENDBRANCH  25  29
ENDBRANCH   3  19
BRANCH   6  44
ATOM     44  C4  MOL d          23.035  12.348  24.714  0.00  0.00     0.005 C 
ATOM     45  H4  MOL d          23.483  11.758  25.528  0.00  0.00     0.058 H 
ATOM     46  H5  MOL d          22.080  12.776  25.054  0.00  0.00     0.058 H 
ATOM     47  H6  MOL d          23.721  13.160  24.431  0.00  0.00     0.058 H 
ENDBRANCH   6  44
BRANCH   5  48
ATOM     48  N3  MOL d          22.777   9.332  24.654  0.00  0.00    -0.234 N 
ATOM     49  H2  MOL d          23.587   9.452  25.280  0.00  0.00     0.174 HD
ATOM     50  H3  MOL d          22.043   8.647  24.888  0.00  0.00     0.174 HD
ENDBRANCH   5  48
TORSDOF 7
ENDMDL
MODEL 2
REMARK VINA RESULT:      -7.8      1.394      1.831
REMARK  7 active torsions:
REMARK  status: ('A' for Active; 'I' for Inactive)
REMARK    1  A    between atoms: C2_3  and  C5_9 
REMARK    2  A    between atoms: C11_15  and  C2_3 
REMARK    3  A    between atoms: C3_5  and  N3_7 
REMARK    4  A    between atoms: N2_6  and  C4_8 
REMARK    5  A    between atoms: C19_23  and  C15_19 
REMARK    6  A    between atoms: C22_26  and  O2_27 
REMARK    7  A    between atoms: O2_27  and  C23_28 
ROOT
ATOM      1  O1  MOL d          21.864  13.102  22.554  0.00  0.00    -0.269 OA
ATOM      2  C1  MOL d          21.902  11.898  22.715  0.00  0.00     0.276 A 
ATOM      3  C2  MOL d          21.769  10.802  21.589  0.00  0.00     0.183 A 
ATOM      4  N1  MOL d          22.070   9.549  22.358  0.00  0.00    -0.199 N 
ATOM      5  C3  MOL d          22.199   9.849  23.660  0.00  0.00     0.677 A 
ATOM      6  N2  MOL d          22.144  11.251  23.904  0.00  0.00    -0.153 N 
ATOM      7  H1  MOL d          22.162   8.607  21.950  0.00  0.00     0.179 HD
ENDROOT
BRANCH   3   8
ATOM      8  C5  MOL d          20.331  10.755  21.035  0.00  0.00    -0.015 A 
ATOM      9  C6  MOL d          19.513  11.879  21.096  0.00  0.00    -0.074 A 
ATOM     10  C7  MOL d          18.217  11.849  20.583  0.00  0.00    -0.082 A 
ATOM     11  H7  MOL d          19.888  12.790  21.548  0.00  0.00     0.084 H 
ATOM     12  C8  MOL d          17.727  10.702  20.002  0.00  0.00    -0.083 A 
ATOM     13  H8  MOL d          17.592  12.733  20.643  0.00  0.00     0.083 H 
ATOM     14  C9  MOL d          18.523   9.574  19.937  0.00  0.00    -0.082 A 
ATOM     15  H9  MOL d          16.722  10.683  19.597  0.00  0.00     0.083 H 
ATOM     16  C10 MOL d          19.816   9.596  20.457  0.00  0.00    -0.074 A 
ATOM     17  H10 MOL d          18.140   8.668  19.480  0.00  0.00     0.083 H 
ATOM     18  H11 MOL d          20.427   8.702  20.411  0.00  0.00     0.084 H 
ENDBRANCH   3   8
BRANCH   3  19
ATOM     19  C11 MOL d          22.853  11.078  20.530  0.00  0.00    -0.015 A 
ATOM     20  C12 MOL d          22.536  11.658  19.305  0.00  0.00    -0.074 A 
ATOM     21  C13 MOL d          23.534  12.032  18.418  0.00  0.00    -0.082 A 
ATOM     22  H12 MOL d          21.496  11.818  19.040  0.00  0.00     0.084 H 
ATOM     23  C14 MOL d          24.861  11.820  18.740  0.00  0.00    -0.072 A 
ATOM     24  H13 MOL d          23.273  12.492  17.472  0.00  0.00     0.083 H 
ATOM     25  C15 MOL d          25.210  11.211  19.950  0.00  0.00    -0.025 A 
ATOM     26  H14 MOL d          25.639  12.127  18.050  0.00  0.00     0.084 H 
ATOM     27  C16 MOL d          24.193  10.838  20.837  0.00  0.00    -0.063 A 
ATOM     28  H15 MOL d          24.449  10.356  21.774  0.00  0.00     0.085 H 
BRANCH  25  29
ATOM     29  C19 MOL d          26.632  10.968  20.312  0.00  0.00    -0.023 A 
ATOM     30  C18 MOL d          27.251  11.758  21.283  0.00  0.00    -0.040 A 
ATOM     31  C22 MOL d          28.622  11.684  21.499  0.00  0.00     0.069 A 
ATOM     32  H17 MOL d          26.652  12.439  21.877  0.00  0.00     0.089 H 
ATOM     33  C17 MOL d          29.402  10.803  20.758  0.00  0.00    -0.051 A 
ATOM     34  C21 MOL d          28.791   9.977  19.826  0.00  0.00    -0.080 A 
ATOM     35  H16 MOL d          30.475  10.762  20.906  0.00  0.00     0.087 H 
ATOM     36  C20 MOL d          27.420  10.057  19.605  0.00  0.00    -0.072 A 
ATOM     37  H19 MOL d          29.386   9.265  19.266  0.00  0.00     0.083 H 
ATOM     38  H18 MOL d          26.957   9.403  18.873  0.00  0.00     0.084 H 
BRANCH  31  39
ATOM     39  O2  MOL d          29.083  12.562  22.450  0.00  0.00    -0.356 OA
BRANCH  39  40
ATOM     40  C23 MOL d          28.133  13.102  23.382  0.00  0.00     0.010 C 
ATOM     41  H20 MOL d          27.676  14.007  22.956  0.00  0.00     0.066 H 
ATOM     42  H21 MOL d          28.645  13.357  24.321  0.00  0.00     0.066 H 
ATOM     43  H22 MOL d          27.350  12.355  23.582  0.00  0.00     0.066 H 
ENDBRANCH  39  40
ENDBRANCH  31  39
ENDBRANCH  25  29
ENDBRANCH   3  19
BRANCH   6  44
ATOM     44  C4  MOL d          22.313  11.940  25.190  0.00  0.00     0.005 C 
ATOM     45  H4  MOL d          22.446  11.197  25.990  0.00  0.00     0.058 H 
ATOM     46  H5  MOL d          21.422  12.550  25.399  0.00  0.00     0.058 H 
ATOM     47  H6  MOL d          23.200  12.590  25.143  0.00  0.00     0.058 H 
ENDBRANCH   6  44
BRANCH   5  48
ATOM     48  N3  MOL d          22.422   8.966  24.633  0.00  0.00    -0.234 N 
ATOM     49  H2  MOL d          21.970   9.086  25.551  0.00  0.00     0.174 HD
ATOM     50  H3  MOL d          23.047   8.164  24.467  0.00  0.00     0.174 HD
ENDBRANCH   5  48
TORSDOF 7
ENDMDL
