MODEL 1
REMARK VINA RESULT:      -4.8      0.000      0.000
REMARK  8 active torsions:
REMARK  status: ('A' for Active; 'I' for Inactive)
REMARK    1  A    between atoms: C5'_1  and  C4'_2 
REMARK    2  A    between atoms: C4'_2  and  O2'_3 
REMARK    3  A    between atoms: O2'_3  and  C3'_4 
REMARK    4  A    between atoms: C3'_4  and  C2'_6 
REMARK    5  A    between atoms: C2'_6  and  C1'_7 
REMARK    6  A    between atoms: C1'_7  and  C1_8 
REMARK    7  A    between atoms: C4_12  and  O4_13 
REMARK    8  A    between atoms: C3_14  and  O3_15 
ROOT
ATOM      1  C1' MOL d           7.057 -16.370 116.611  0.00  0.00    -0.067 C 
ATOM      2  H7  MOL d           7.299 -15.405 117.053  0.00  0.00     0.085 H 
ENDROOT
BRANCH   1   3
ATOM      3  C2' MOL d           6.901 -17.662 117.411  0.00  0.00    -0.010 C 
ATOM      4  H6  MOL d           6.380 -18.551 117.059  0.00  0.00     0.092 H 
BRANCH   3   5
ATOM      5  C3' MOL d           7.578 -17.533 118.777  0.00  0.00     0.282 C 
ATOM      6  O1' MOL d           7.301 -16.604 119.536  0.00  0.00    -0.260 OA
BRANCH   5   7
ATOM      7  O2' MOL d           8.482 -18.480 119.141  0.00  0.00    -0.319 OA
BRANCH   7   8
ATOM      8  C4' MOL d           8.646 -19.469 118.118  0.00  0.00     0.026 C 
ATOM      9  H4  MOL d           7.786 -19.443 117.433  0.00  0.00     0.074 H 
ATOM     10  H5  MOL d           9.570 -19.273 117.554  0.00  0.00     0.074 H 
BRANCH   8  11
ATOM     11  C5' MOL d           8.730 -20.840 118.796  0.00  0.00    -0.056 C 
ATOM     12  H1  MOL d           8.277 -20.783 119.797  0.00  0.00     0.030 H 
ATOM     13  H2  MOL d           9.785 -21.140 118.888  0.00  0.00     0.030 H 
ATOM     14  H3  MOL d           8.190 -21.583 118.190  0.00  0.00     0.030 H 
ENDBRANCH   8  11
ENDBRANCH   7   8
ENDBRANCH   5   7
ENDBRANCH   3   5
ENDBRANCH   1   3
BRANCH   1  15
ATOM     15  C1  MOL d           6.833 -16.593 115.117  0.00  0.00    -0.033 A 
ATOM     16  C2  MOL d           6.535 -17.852 114.606  0.00  0.00    -0.038 A 
ATOM     17  C3  MOL d           6.255 -18.004 113.250  0.00  0.00     0.099 A 
ATOM     18  H8  MOL d           6.520 -18.715 115.263  0.00  0.00     0.089 H 
ATOM     19  C4  MOL d           6.280 -16.899 112.407  0.00  0.00     0.098 A 
ATOM     20  C5  MOL d           6.585 -15.641 112.916  0.00  0.00    -0.047 A 
ATOM     21  C6  MOL d           6.862 -15.491 114.272  0.00  0.00    -0.070 A 
ATOM     22  H10 MOL d           6.608 -14.780 112.258  0.00  0.00     0.087 H 
ATOM     23  H9  MOL d           7.100 -14.511 114.669  0.00  0.00     0.084 H 
BRANCH  17  24
ATOM     24  O3  MOL d           5.936 -19.222 112.737  0.00  0.00    -0.358 OA
ATOM     25  H12 MOL d           5.559 -19.764 113.420  0.00  0.00     0.217 HD
ENDBRANCH  17  24
BRANCH  19  26
ATOM     26  O4  MOL d           6.010 -17.049 111.084  0.00  0.00    -0.358 OA
ATOM     27  H11 MOL d           5.080 -17.199 110.967  0.00  0.00     0.217 HD
ENDBRANCH  19  26
ENDBRANCH   1  15
TORSDOF 8
ENDMDL
MODEL 2
REMARK VINA RESULT:      -4.6      1.575      2.073
REMARK  8 active torsions:
REMARK  status: ('A' for Active; 'I' for Inactive)
REMARK    1  A    between atoms: C5'_1  and  C4'_2 
REMARK    2  A    between atoms: C4'_2  and  O2'_3 
REMARK    3  A    between atoms: O2'_3  and  C3'_4 
REMARK    4  A    between atoms: C3'_4  and  C2'_6 
REMARK    5  A    between atoms: C2'_6  and  C1'_7 
REMARK    6  A    between atoms: C1'_7  and  C1_8 
REMARK    7  A    between atoms: C4_12  and  O4_13 
REMARK    8  A    between atoms: C3_14  and  O3_15 
ROOT
ATOM      1  C1' MOL d           6.692 -16.569 116.800  0.00  0.00    -0.067 C 
ATOM      2  H7  MOL d           5.832 -16.550 117.466  0.00  0.00     0.085 H 
ENDROOT
BRANCH   1   3
ATOM      3  C2' MOL d           8.141 -16.452 117.271  0.00  0.00    -0.010 C 
ATOM      4  H6  MOL d           8.633 -15.518 117.541  0.00  0.00     0.092 H 
BRANCH   3   5
ATOM      5  C3' MOL d           8.806 -17.829 117.311  0.00  0.00     0.282 C 
ATOM      6  O1' MOL d           8.234 -18.794 117.819  0.00  0.00    -0.260 OA
BRANCH   5   7
ATOM      7  O2' MOL d          10.039 -17.967 116.756  0.00  0.00    -0.319 OA
BRANCH   7   8
ATOM      8  C4' MOL d           9.984 -18.715 115.536  0.00  0.00     0.026 C 
ATOM      9  H4  MOL d          10.825 -19.422 115.493  0.00  0.00     0.074 H 
ATOM     10  H5  MOL d           9.036 -19.269 115.480  0.00  0.00     0.074 H 
BRANCH   8  11
ATOM     11  C5' MOL d          10.078 -17.725 114.371  0.00  0.00    -0.056 C 
ATOM     12  H1  MOL d           9.299 -16.956 114.479  0.00  0.00     0.030 H 
ATOM     13  H2  MOL d           9.934 -18.261 113.421  0.00  0.00     0.030 H 
ATOM     14  H3  MOL d          11.069 -17.246 114.375  0.00  0.00     0.030 H 
ENDBRANCH   8  11
ENDBRANCH   7   8
ENDBRANCH   5   7
ENDBRANCH   3   5
ENDBRANCH   1   3
BRANCH   1  15
ATOM     15  C1  MOL d           6.596 -16.714 115.283  0.00  0.00    -0.033 A 
ATOM     16  C2  MOL d           6.361 -17.946 114.683  0.00  0.00    -0.038 A 
ATOM     17  C3  MOL d           6.197 -18.027 113.302  0.00  0.00     0.099 A 
ATOM     18  H8  MOL d           6.305 -18.843 115.289  0.00  0.00     0.089 H 
ATOM     19  C4  MOL d           6.275 -16.878 112.524  0.00  0.00     0.098 A 
ATOM     20  C5  MOL d           6.518 -15.646 113.122  0.00  0.00    -0.047 A 
ATOM     21  C6  MOL d           6.679 -15.566 114.502  0.00  0.00    -0.070 A 
ATOM     22  H10 MOL d           6.582 -14.751 112.515  0.00  0.00     0.087 H 
ATOM     23  H9  MOL d           6.868 -14.607 114.970  0.00  0.00     0.084 H 
BRANCH  17  24
ATOM     24  O3  MOL d           5.941 -19.219 112.700  0.00  0.00    -0.358 OA
ATOM     25  H12 MOL d           5.033 -19.459 112.848  0.00  0.00     0.217 HD
ENDBRANCH  17  24
BRANCH  19  26
ATOM     26  O4  MOL d           6.118 -16.959 111.176  0.00  0.00    -0.358 OA
ATOM     27  H11 MOL d           6.317 -17.842 110.888  0.00  0.00     0.217 HD
ENDBRANCH  19  26
ENDBRANCH   1  15
TORSDOF 8
ENDMDL
MODEL 3
REMARK VINA RESULT:      -4.5      1.539      2.204
REMARK  8 active torsions:
REMARK  status: ('A' for Active; 'I' for Inactive)
REMARK    1  A    between atoms: C5'_1  and  C4'_2 
REMARK    2  A    between atoms: C4'_2  and  O2'_3 
REMARK    3  A    between atoms: O2'_3  and  C3'_4 
REMARK    4  A    between atoms: C3'_4  and  C2'_6 
REMARK    5  A    between atoms: C2'_6  and  C1'_7 
REMARK    6  A    between atoms: C1'_7  and  C1_8 
REMARK    7  A    between atoms: C4_12  and  O4_13 
REMARK    8  A    between atoms: C3_14  and  O3_15 
ROOT
ATOM      1  C1' MOL d           6.937 -17.484 117.450  0.00  0.00    -0.067 C 
ATOM      2  H7  MOL d           6.623 -16.797 118.234  0.00  0.00     0.085 H 
ENDROOT
BRANCH   1   3
ATOM      3  C2' MOL d           7.838 -18.696 117.684  0.00  0.00    -0.010 C 
ATOM      4  H6  MOL d           7.544 -19.730 117.512  0.00  0.00     0.092 H 
BRANCH   3   5
ATOM      5  C3' MOL d           9.210 -18.254 118.195  0.00  0.00     0.282 C 
ATOM      6  O1' MOL d           9.703 -17.182 117.843  0.00  0.00    -0.260 OA
BRANCH   5   7
ATOM      7  O2' MOL d           9.869 -19.067 119.064  0.00  0.00    -0.319 OA
BRANCH   7   8
ATOM      8  C4' MOL d           8.989 -19.579 120.071  0.00  0.00     0.026 C 
ATOM      9  H4  MOL d           9.197 -19.088 121.033  0.00  0.00     0.074 H 
ATOM     10  H5  MOL d           7.944 -19.394 119.783  0.00  0.00     0.074 H 
BRANCH   8  11
ATOM     11  C5' MOL d           9.237 -21.086 120.193  0.00  0.00    -0.056 C 
ATOM     12  H1  MOL d           8.656 -21.486 121.037  0.00  0.00     0.030 H 
ATOM     13  H2  MOL d          10.308 -21.268 120.366  0.00  0.00     0.030 H 
ATOM     14  H3  MOL d           8.926 -21.585 119.263  0.00  0.00     0.030 H 
ENDBRANCH   8  11
ENDBRANCH   7   8
ENDBRANCH   5   7
ENDBRANCH   3   5
ENDBRANCH   1   3
BRANCH   1  15
ATOM     15  C1  MOL d           6.531 -17.351 115.984  0.00  0.00    -0.033 A 
ATOM     16  C2  MOL d           5.853 -16.230 115.515  0.00  0.00    -0.038 A 
ATOM     17  C3  MOL d           5.572 -16.106 114.157  0.00  0.00     0.099 A 
ATOM     18  H8  MOL d           5.545 -15.454 116.206  0.00  0.00     0.089 H 
ATOM     19  C4  MOL d           5.962 -17.104 113.271  0.00  0.00     0.098 A 
ATOM     20  C5  MOL d           6.633 -18.229 113.740  0.00  0.00    -0.047 A 
ATOM     21  C6  MOL d           6.916 -18.350 115.098  0.00  0.00    -0.070 A 
ATOM     22  H10 MOL d           6.934 -19.008 113.051  0.00  0.00     0.087 H 
ATOM     23  H9  MOL d           7.438 -19.226 115.465  0.00  0.00     0.084 H 
BRANCH  17  24
ATOM     24  O3  MOL d           4.934 -15.006 113.675  0.00  0.00    -0.358 OA
ATOM     25  H12 MOL d           5.577 -14.382 113.357  0.00  0.00     0.217 HD
ENDBRANCH  17  24
BRANCH  19  26
ATOM     26  O4  MOL d           5.685 -16.983 111.946  0.00  0.00    -0.358 OA
ATOM     27  H11 MOL d           5.843 -17.814 111.514  0.00  0.00     0.217 HD
ENDBRANCH  19  26
ENDBRANCH   1  15
TORSDOF 8
ENDMDL
MODEL 4
REMARK VINA RESULT:      -4.5      1.079      1.786
REMARK  8 active torsions:
REMARK  status: ('A' for Active; 'I' for Inactive)
REMARK    1  A    between atoms: C5'_1  and  C4'_2 
REMARK    2  A    between atoms: C4'_2  and  O2'_3 
REMARK    3  A    between atoms: O2'_3  and  C3'_4 
REMARK    4  A    between atoms: C3'_4  and  C2'_6 
REMARK    5  A    between atoms: C2'_6  and  C1'_7 
REMARK    6  A    between atoms: C1'_7  and  C1_8 
REMARK    7  A    between atoms: C4_12  and  O4_13 
REMARK    8  A    between atoms: C3_14  and  O3_15 
ROOT
ATOM      1  C1' MOL d           6.766 -16.600 116.794  0.00  0.00    -0.067 C 
ATOM      2  H7  MOL d           6.640 -15.664 117.336  0.00  0.00     0.085 H 
ENDROOT
BRANCH   1   3
ATOM      3  C2' MOL d           7.101 -17.934 117.458  0.00  0.00    -0.010 C 
ATOM      4  H6  MOL d           6.563 -18.866 117.287  0.00  0.00     0.092 H 
BRANCH   3   5
ATOM      5  C3' MOL d           8.298 -17.780 118.398  0.00  0.00     0.282 C 
ATOM      6  O1' MOL d           9.401 -17.441 117.970  0.00  0.00    -0.260 OA
BRANCH   5   7
ATOM      7  O2' MOL d           8.111 -18.011 119.725  0.00  0.00    -0.319 OA
BRANCH   7   8
ATOM      8  C4' MOL d           7.844 -16.797 120.436  0.00  0.00     0.026 C 
ATOM      9  H4  MOL d           8.770 -16.424 120.898  0.00  0.00     0.074 H 
ATOM     10  H5  MOL d           7.449 -16.039 119.744  0.00  0.00     0.074 H 
BRANCH   8  11
ATOM     11  C5' MOL d           6.807 -17.103 121.521  0.00  0.00    -0.056 C 
ATOM     12  H1  MOL d           6.742 -16.253 122.217  0.00  0.00     0.030 H 
ATOM     13  H2  MOL d           7.110 -18.006 122.073  0.00  0.00     0.030 H 
ATOM     14  H3  MOL d           5.826 -17.271 121.054  0.00  0.00     0.030 H 
ENDBRANCH   8  11
ENDBRANCH   7   8
ENDBRANCH   5   7
ENDBRANCH   3   5
ENDBRANCH   1   3
BRANCH   1  15
ATOM     15  C1  MOL d           6.628 -16.736 115.279  0.00  0.00    -0.033 A 
ATOM     16  C2  MOL d           6.407 -17.969 114.676  0.00  0.00    -0.038 A 
ATOM     17  C3  MOL d           6.204 -18.044 113.300  0.00  0.00     0.099 A 
ATOM     18  H8  MOL d           6.392 -18.872 115.276  0.00  0.00     0.089 H 
ATOM     19  C4  MOL d           6.230 -16.887 112.529  0.00  0.00     0.098 A 
ATOM     20  C5  MOL d           6.459 -15.654 113.130  0.00  0.00    -0.047 A 
ATOM     21  C6  MOL d           6.658 -15.581 114.506  0.00  0.00    -0.070 A 
ATOM     22  H10 MOL d           6.482 -14.753 112.529  0.00  0.00     0.087 H 
ATOM     23  H9  MOL d           6.837 -14.621 114.976  0.00  0.00     0.084 H 
BRANCH  17  24
ATOM     24  O3  MOL d           5.960 -19.238 112.696  0.00  0.00    -0.358 OA
ATOM     25  H12 MOL d           6.574 -19.361 111.981  0.00  0.00     0.217 HD
ENDBRANCH  17  24
BRANCH  19  26
ATOM     26  O4  MOL d           6.035 -16.962 111.186  0.00  0.00    -0.358 OA
ATOM     27  H11 MOL d           5.446 -16.268 110.914  0.00  0.00     0.217 HD
ENDBRANCH  19  26
ENDBRANCH   1  15
TORSDOF 8
ENDMDL
MODEL 5
REMARK VINA RESULT:      -4.4      1.779      5.276
REMARK  8 active torsions:
REMARK  status: ('A' for Active; 'I' for Inactive)
REMARK    1  A    between atoms: C5'_1  and  C4'_2 
REMARK    2  A    between atoms: C4'_2  and  O2'_3 
REMARK    3  A    between atoms: O2'_3  and  C3'_4 
REMARK    4  A    between atoms: C3'_4  and  C2'_6 
REMARK    5  A    between atoms: C2'_6  and  C1'_7 
REMARK    6  A    between atoms: C1'_7  and  C1_8 
REMARK    7  A    between atoms: C4_12  and  O4_13 
REMARK    8  A    between atoms: C3_14  and  O3_15 
ROOT
ATOM      1  C1' MOL d           5.178 -16.213 115.240  0.00  0.00    -0.067 C 
ATOM      2  H7  MOL d           4.156 -16.172 115.611  0.00  0.00     0.085 H 
ENDROOT
BRANCH   1   3
ATOM      3  C2' MOL d           5.584 -15.856 113.811  0.00  0.00    -0.010 C 
ATOM      4  H6  MOL d           5.811 -14.849 113.463  0.00  0.00     0.092 H 
BRANCH   3   5
ATOM      5  C3' MOL d           5.626 -17.109 112.935  0.00  0.00     0.282 C 
ATOM      6  O1' MOL d           4.592 -17.599 112.479  0.00  0.00    -0.260 OA
BRANCH   5   7
ATOM      7  O2' MOL d           6.836 -17.663 112.658  0.00  0.00    -0.319 OA
BRANCH   7   8
ATOM      8  C4' MOL d           7.867 -16.670 112.605  0.00  0.00     0.026 C 
ATOM      9  H4  MOL d           8.218 -16.551 111.570  0.00  0.00     0.074 H 
ATOM     10  H5  MOL d           7.478 -15.709 112.973  0.00  0.00     0.074 H 
BRANCH   8  11
ATOM     11  C5' MOL d           9.022 -17.140 113.495  0.00  0.00    -0.056 C 
ATOM     12  H1  MOL d           9.958 -16.671 113.159  0.00  0.00     0.030 H 
ATOM     13  H2  MOL d           9.114 -18.234 113.428  0.00  0.00     0.030 H 
ATOM     14  H3  MOL d           8.822 -16.853 114.538  0.00  0.00     0.030 H 
ENDBRANCH   8  11
ENDBRANCH   7   8
ENDBRANCH   5   7
ENDBRANCH   3   5
ENDBRANCH   1   3
BRANCH   1  15
ATOM     15  C1  MOL d           6.379 -16.634 116.085  0.00  0.00    -0.033 A 
ATOM     16  C2  MOL d           6.594 -17.964 116.431  0.00  0.00    -0.038 A 
ATOM     17  C3  MOL d           7.743 -18.322 117.131  0.00  0.00     0.099 A 
ATOM     18  H8  MOL d           5.868 -18.721 116.155  0.00  0.00     0.089 H 
ATOM     19  C4  MOL d           8.671 -17.351 117.490  0.00  0.00     0.098 A 
ATOM     20  C5  MOL d           8.452 -16.020 117.151  0.00  0.00    -0.047 A 
ATOM     21  C6  MOL d           7.305 -15.664 116.448  0.00  0.00    -0.070 A 
ATOM     22  H10 MOL d           9.174 -15.262 117.433  0.00  0.00     0.087 H 
ATOM     23  H9  MOL d           7.133 -14.626 116.183  0.00  0.00     0.084 H 
BRANCH  17  24
ATOM     24  O3  MOL d           7.984 -19.620 117.456  0.00  0.00    -0.358 OA
ATOM     25  H12 MOL d           8.393 -19.661 118.314  0.00  0.00     0.217 HD
ENDBRANCH  17  24
BRANCH  19  26
ATOM     26  O4  MOL d           9.790 -17.701 118.176  0.00  0.00    -0.358 OA
ATOM     27  H11 MOL d           9.544 -18.042 119.028  0.00  0.00     0.217 HD
ENDBRANCH  19  26
ENDBRANCH   1  15
TORSDOF 8
ENDMDL
MODEL 6
REMARK VINA RESULT:      -4.4      1.652      6.025
REMARK  8 active torsions:
REMARK  status: ('A' for Active; 'I' for Inactive)
REMARK    1  A    between atoms: C5'_1  and  C4'_2 
REMARK    2  A    between atoms: C4'_2  and  O2'_3 
REMARK    3  A    between atoms: O2'_3  and  C3'_4 
REMARK    4  A    between atoms: C3'_4  and  C2'_6 
REMARK    5  A    between atoms: C2'_6  and  C1'_7 
REMARK    6  A    between atoms: C1'_7  and  C1_8 
REMARK    7  A    between atoms: C4_12  and  O4_13 
REMARK    8  A    between atoms: C3_14  and  O3_15 
ROOT
ATOM      1  C1' MOL d           6.472 -16.300 116.506  0.00  0.00    -0.067 C 
ATOM      2  H7  MOL d           6.010 -15.351 116.774  0.00  0.00     0.085 H 
ENDROOT
BRANCH   1   3
ATOM      3  C2' MOL d           6.486 -16.875 115.091  0.00  0.00    -0.010 C 
ATOM      4  H6  MOL d           7.126 -17.692 114.759  0.00  0.00     0.092 H 
BRANCH   3   5
ATOM      5  C3' MOL d           5.477 -16.144 114.204  0.00  0.00     0.282 C 
ATOM      6  O1' MOL d           5.103 -15.004 114.476  0.00  0.00    -0.260 OA
BRANCH   5   7
ATOM      7  O2' MOL d           5.013 -16.780 113.095  0.00  0.00    -0.319 OA
BRANCH   7   8
ATOM      8  C4' MOL d           6.033 -17.577 112.483  0.00  0.00     0.026 C 
ATOM      9  H4  MOL d           6.790 -17.853 113.231  0.00  0.00     0.074 H 
ATOM     10  H5  MOL d           5.588 -18.489 112.058  0.00  0.00     0.074 H 
BRANCH   8  11
ATOM     11  C5' MOL d           6.679 -16.746 111.370  0.00  0.00    -0.056 C 
ATOM     12  H1  MOL d           6.974 -17.407 110.542  0.00  0.00     0.030 H 
ATOM     13  H2  MOL d           7.569 -16.234 111.765  0.00  0.00     0.030 H 
ATOM     14  H3  MOL d           5.958 -15.999 111.005  0.00  0.00     0.030 H 
ENDBRANCH   8  11
ENDBRANCH   7   8
ENDBRANCH   5   7
ENDBRANCH   3   5
ENDBRANCH   1   3
BRANCH   1  15
ATOM     15  C1  MOL d           7.184 -17.215 117.501  0.00  0.00    -0.033 A 
ATOM     16  C2  MOL d           7.596 -18.495 117.146  0.00  0.00    -0.038 A 
ATOM     17  C3  MOL d           8.316 -19.270 118.052  0.00  0.00     0.099 A 
ATOM     18  H8  MOL d           7.358 -18.889 116.164  0.00  0.00     0.089 H 
ATOM     19  C4  MOL d           8.616 -18.766 119.313  0.00  0.00     0.098 A 
ATOM     20  C5  MOL d           8.197 -17.489 119.671  0.00  0.00    -0.047 A 
ATOM     21  C6  MOL d           7.481 -16.715 118.763  0.00  0.00    -0.070 A 
ATOM     22  H10 MOL d           8.429 -17.098 120.655  0.00  0.00     0.087 H 
ATOM     23  H9  MOL d           7.154 -15.720 119.041  0.00  0.00     0.084 H 
BRANCH  17  24
ATOM     24  O3  MOL d           8.750 -20.513 117.715  0.00  0.00    -0.358 OA
ATOM     25  H12 MOL d           8.006 -21.052 117.469  0.00  0.00     0.217 HD
ENDBRANCH  17  24
BRANCH  19  26
ATOM     26  O4  MOL d           9.315 -19.525 120.198  0.00  0.00    -0.358 OA
ATOM     27  H11 MOL d           9.044 -20.432 120.119  0.00  0.00     0.217 HD
ENDBRANCH  19  26
ENDBRANCH   1  15
TORSDOF 8
ENDMDL
MODEL 7
REMARK VINA RESULT:      -3.8      1.737      2.235
REMARK  8 active torsions:
REMARK  status: ('A' for Active; 'I' for Inactive)
REMARK    1  A    between atoms: C5'_1  and  C4'_2 
REMARK    2  A    between atoms: C4'_2  and  O2'_3 
REMARK    3  A    between atoms: O2'_3  and  C3'_4 
REMARK    4  A    between atoms: C3'_4  and  C2'_6 
REMARK    5  A    between atoms: C2'_6  and  C1'_7 
REMARK    6  A    between atoms: C1'_7  and  C1_8 
REMARK    7  A    between atoms: C4_12  and  O4_13 
REMARK    8  A    between atoms: C3_14  and  O3_15 
ROOT
ATOM      1  C1' MOL d           7.640 -18.812 117.098  0.00  0.00    -0.067 C 
ATOM      2  H7  MOL d           7.074 -19.388 117.828  0.00  0.00     0.085 H 
ENDROOT
BRANCH   1   3
ATOM      3  C2' MOL d           9.165 -18.819 117.001  0.00  0.00    -0.010 C 
ATOM      4  H6  MOL d           9.738 -19.382 116.265  0.00  0.00     0.092 H 
BRANCH   3   5
ATOM      5  C3' MOL d           9.776 -17.924 118.081  0.00  0.00     0.282 C 
ATOM      6  O1' MOL d           9.649 -16.700 118.037  0.00  0.00    -0.260 OA
BRANCH   5   7
ATOM      7  O2' MOL d          10.450 -18.515 119.103  0.00  0.00    -0.319 OA
BRANCH   7   8
ATOM      8  C4' MOL d           9.623 -19.449 119.806  0.00  0.00     0.026 C 
ATOM      9  H4  MOL d           8.975 -19.982 119.094  0.00  0.00     0.074 H 
ATOM     10  H5  MOL d          10.252 -20.174 120.343  0.00  0.00     0.074 H 
BRANCH   8  11
ATOM     11  C5' MOL d           8.765 -18.664 120.803  0.00  0.00    -0.056 C 
ATOM     12  H1  MOL d           8.914 -19.071 121.815  0.00  0.00     0.030 H 
ATOM     13  H2  MOL d           7.704 -18.753 120.525  0.00  0.00     0.030 H 
ATOM     14  H3  MOL d           9.061 -17.604 120.787  0.00  0.00     0.030 H 
ENDBRANCH   8  11
ENDBRANCH   7   8
ENDBRANCH   5   7
ENDBRANCH   3   5
ENDBRANCH   1   3
BRANCH   1  15
ATOM     15  C1  MOL d           7.006 -17.901 116.048  0.00  0.00    -0.033 A 
ATOM     16  C2  MOL d           6.898 -18.290 114.717  0.00  0.00    -0.038 A 
ATOM     17  C3  MOL d           6.240 -17.469 113.805  0.00  0.00     0.099 A 
ATOM     18  H8  MOL d           7.326 -19.231 114.390  0.00  0.00     0.089 H 
ATOM     19  C4  MOL d           5.697 -16.259 114.223  0.00  0.00     0.098 A 
ATOM     20  C5  MOL d           5.811 -15.867 115.552  0.00  0.00    -0.047 A 
ATOM     21  C6  MOL d           6.467 -16.690 116.463  0.00  0.00    -0.070 A 
ATOM     22  H10 MOL d           5.390 -14.922 115.878  0.00  0.00     0.087 H 
ATOM     23  H9  MOL d           6.557 -16.385 117.500  0.00  0.00     0.084 H 
BRANCH  17  24
ATOM     24  O3  MOL d           6.101 -17.843 112.505  0.00  0.00    -0.358 OA
ATOM     25  H12 MOL d           5.301 -17.470 112.152  0.00  0.00     0.217 HD
ENDBRANCH  17  24
BRANCH  19  26
ATOM     26  O4  MOL d           5.058 -15.458 113.331  0.00  0.00    -0.358 OA
ATOM     27  H11 MOL d           4.420 -14.922 113.789  0.00  0.00     0.217 HD
ENDBRANCH  19  26
ENDBRANCH   1  15
TORSDOF 8
ENDMDL
MODEL 8
REMARK VINA RESULT:      -3.7      1.801      5.547
REMARK  8 active torsions:
REMARK  status: ('A' for Active; 'I' for Inactive)
REMARK    1  A    between atoms: C5'_1  and  C4'_2 
REMARK    2  A    between atoms: C4'_2  and  O2'_3 
REMARK    3  A    between atoms: O2'_3  and  C3'_4 
REMARK    4  A    between atoms: C3'_4  and  C2'_6 
REMARK    5  A    between atoms: C2'_6  and  C1'_7 
REMARK    6  A    between atoms: C1'_7  and  C1_8 
REMARK    7  A    between atoms: C4_12  and  O4_13 
REMARK    8  A    between atoms: C3_14  and  O3_15 
ROOT
ATOM      1  C1' MOL d           8.956 -16.899 113.374  0.00  0.00    -0.067 C 
ATOM      2  H7  MOL d           9.788 -17.298 112.796  0.00  0.00     0.085 H 
ENDROOT
BRANCH   1   3
ATOM      3  C2' MOL d           7.814 -16.080 112.775  0.00  0.00    -0.010 C 
ATOM      4  H6  MOL d           7.862 -15.015 112.555  0.00  0.00     0.092 H 
BRANCH   3   5
ATOM      5  C3' MOL d           6.592 -16.966 112.526  0.00  0.00     0.282 C 
ATOM      6  O1' MOL d           6.680 -17.994 111.855  0.00  0.00    -0.260 OA
BRANCH   5   7
ATOM      7  O2' MOL d           5.405 -16.600 113.080  0.00  0.00    -0.319 OA
BRANCH   7   8
ATOM      8  C4' MOL d           5.582 -15.578 114.068  0.00  0.00     0.026 C 
ATOM      9  H4  MOL d           6.609 -15.188 114.023  0.00  0.00     0.074 H 
ATOM     10  H5  MOL d           4.870 -14.759 113.889  0.00  0.00     0.074 H 
BRANCH   8  11
ATOM     11  C5' MOL d           5.323 -16.202 115.444  0.00  0.00    -0.056 C 
ATOM     12  H1  MOL d           4.369 -15.826 115.843  0.00  0.00     0.030 H 
ATOM     13  H2  MOL d           6.140 -15.930 116.129  0.00  0.00     0.030 H 
ATOM     14  H3  MOL d           5.274 -17.297 115.347  0.00  0.00     0.030 H 
ENDBRANCH   8  11
ENDBRANCH   7   8
ENDBRANCH   5   7
ENDBRANCH   3   5
ENDBRANCH   1   3
BRANCH   1  15
ATOM     15  C1  MOL d           8.792 -17.090 114.881  0.00  0.00    -0.033 A 
ATOM     16  C2  MOL d           8.400 -18.309 115.421  0.00  0.00    -0.038 A 
ATOM     17  C3  MOL d           8.341 -18.470 116.803  0.00  0.00     0.099 A 
ATOM     18  H8  MOL d           8.140 -19.134 114.767  0.00  0.00     0.089 H 
ATOM     19  C4  MOL d           8.667 -17.410 117.642  0.00  0.00     0.098 A 
ATOM     20  C5  MOL d           9.052 -16.188 117.101  0.00  0.00    -0.047 A 
ATOM     21  C6  MOL d           9.114 -16.029 115.720  0.00  0.00    -0.070 A 
ATOM     22  H10 MOL d           9.304 -15.360 117.755  0.00  0.00     0.087 H 
ATOM     23  H9  MOL d           9.414 -15.077 115.298  0.00  0.00     0.084 H 
BRANCH  17  24
ATOM     24  O3  MOL d           7.985 -19.663 117.351  0.00  0.00    -0.358 OA
ATOM     25  H12 MOL d           7.037 -19.737 117.357  0.00  0.00     0.217 HD
ENDBRANCH  17  24
BRANCH  19  26
ATOM     26  O4  MOL d           8.606 -17.567 118.990  0.00  0.00    -0.358 OA
ATOM     27  H11 MOL d           9.274 -17.031 119.401  0.00  0.00     0.217 HD
ENDBRANCH  19  26
ENDBRANCH   1  15
TORSDOF 8
ENDMDL
MODEL 9
REMARK VINA RESULT:      -3.6      1.419      6.002
REMARK  8 active torsions:
REMARK  status: ('A' for Active; 'I' for Inactive)
REMARK    1  A    between atoms: C5'_1  and  C4'_2 
REMARK    2  A    between atoms: C4'_2  and  O2'_3 
REMARK    3  A    between atoms: O2'_3  and  C3'_4 
REMARK    4  A    between atoms: C3'_4  and  C2'_6 
REMARK    5  A    between atoms: C2'_6  and  C1'_7 
REMARK    6  A    between atoms: C1'_7  and  C1_8 
REMARK    7  A    between atoms: C4_12  and  O4_13 
REMARK    8  A    between atoms: C3_14  and  O3_15 
ROOT
ATOM      1  C1' MOL d           6.105 -15.802 115.206  0.00  0.00    -0.067 C 
ATOM      2  H7  MOL d           6.232 -14.725 115.111  0.00  0.00     0.085 H 
ENDROOT
BRANCH   1   3
ATOM      3  C2' MOL d           5.190 -16.637 114.311  0.00  0.00    -0.010 C 
ATOM      4  H6  MOL d           4.228 -17.046 114.617  0.00  0.00     0.092 H 
BRANCH   3   5
ATOM      5  C3' MOL d           5.814 -16.819 112.926  0.00  0.00     0.282 C 
ATOM      6  O1' MOL d           5.340 -17.617 112.118  0.00  0.00    -0.260 OA
BRANCH   5   7
ATOM      7  O2' MOL d           6.898 -16.065 112.602  0.00  0.00    -0.319 OA
BRANCH   7   8
ATOM      8  C4' MOL d           7.977 -16.877 112.125  0.00  0.00     0.026 C 
ATOM      9  H4  MOL d           8.641 -17.144 112.961  0.00  0.00     0.074 H 
ATOM     10  H5  MOL d           7.580 -17.794 111.666  0.00  0.00     0.074 H 
BRANCH   8  11
ATOM     11  C5' MOL d           8.753 -16.066 111.083  0.00  0.00    -0.056 C 
ATOM     12  H1  MOL d           8.699 -16.573 110.109  0.00  0.00     0.030 H 
ATOM     13  H2  MOL d           9.805 -15.980 111.394  0.00  0.00     0.030 H 
ATOM     14  H3  MOL d           8.313 -15.061 110.998  0.00  0.00     0.030 H 
ENDBRANCH   8  11
ENDBRANCH   7   8
ENDBRANCH   5   7
ENDBRANCH   3   5
ENDBRANCH   1   3
BRANCH   1  15
ATOM     15  C1  MOL d           6.820 -16.659 116.249  0.00  0.00    -0.033 A 
ATOM     16  C2  MOL d           6.936 -16.249 117.572  0.00  0.00    -0.038 A 
ATOM     17  C3  MOL d           7.521 -17.093 118.513  0.00  0.00     0.099 A 
ATOM     18  H8  MOL d           6.572 -15.272 117.871  0.00  0.00     0.089 H 
ATOM     19  C4  MOL d           7.994 -18.342 118.128  0.00  0.00     0.098 A 
ATOM     20  C5  MOL d           7.884 -18.751 116.803  0.00  0.00    -0.047 A 
ATOM     21  C6  MOL d           7.297 -17.907 115.864  0.00  0.00    -0.070 A 
ATOM     22  H10 MOL d           8.255 -19.723 116.502  0.00  0.00     0.087 H 
ATOM     23  H9  MOL d           7.211 -18.224 114.831  0.00  0.00     0.084 H 
BRANCH  17  24
ATOM     24  O3  MOL d           7.621 -16.720 119.817  0.00  0.00    -0.358 OA
ATOM     25  H12 MOL d           8.444 -17.033 120.173  0.00  0.00     0.217 HD
ENDBRANCH  17  24
BRANCH  19  26
ATOM     26  O4  MOL d           8.567 -19.164 119.046  0.00  0.00    -0.358 OA
ATOM     27  H11 MOL d           7.891 -19.542 119.596  0.00  0.00     0.217 HD
ENDBRANCH  19  26
ENDBRANCH   1  15
TORSDOF 8
ENDMDL
MODEL 10
REMARK VINA RESULT:      -3.2      1.706      6.597
REMARK  8 active torsions:
REMARK  status: ('A' for Active; 'I' for Inactive)
REMARK    1  A    between atoms: C5'_1  and  C4'_2 
REMARK    2  A    between atoms: C4'_2  and  O2'_3 
REMARK    3  A    between atoms: O2'_3  and  C3'_4 
REMARK    4  A    between atoms: C3'_4  and  C2'_6 
REMARK    5  A    between atoms: C2'_6  and  C1'_7 
REMARK    6  A    between atoms: C1'_7  and  C1_8 
REMARK    7  A    between atoms: C4_12  and  O4_13 
REMARK    8  A    between atoms: C3_14  and  O3_15 
ROOT
ATOM      1  C1' MOL d           6.849 -16.574 116.908  0.00  0.00    -0.067 C 
ATOM      2  H7  MOL d           6.709 -15.495 116.865  0.00  0.00     0.085 H 
ENDROOT
BRANCH   1   3
ATOM      3  C2' MOL d           6.398 -17.539 115.813  0.00  0.00    -0.010 C 
ATOM      4  H6  MOL d           5.678 -18.345 115.954  0.00  0.00     0.092 H 
BRANCH   3   5
ATOM      5  C3' MOL d           7.099 -17.217 114.492  0.00  0.00     0.282 C 
ATOM      6  O1' MOL d           8.287 -17.490 114.322  0.00  0.00    -0.260 OA
BRANCH   5   7
ATOM      7  O2' MOL d           6.371 -16.637 113.500  0.00  0.00    -0.319 OA
BRANCH   7   8
ATOM      8  C4' MOL d           6.311 -17.471 112.338  0.00  0.00     0.026 C 
ATOM      9  H4  MOL d           6.880 -18.395 112.512  0.00  0.00     0.074 H 
ATOM     10  H5  MOL d           5.264 -17.721 112.113  0.00  0.00     0.074 H 
BRANCH   8  11
ATOM     11  C5' MOL d           6.923 -16.695 111.167  0.00  0.00    -0.056 C 
ATOM     12  H1  MOL d           7.658 -17.330 110.651  0.00  0.00     0.030 H 
ATOM     13  H2  MOL d           7.423 -15.791 111.548  0.00  0.00     0.030 H 
ATOM     14  H3  MOL d           6.129 -16.405 110.463  0.00  0.00     0.030 H 
ENDBRANCH   8  11
ENDBRANCH   7   8
ENDBRANCH   5   7
ENDBRANCH   3   5
ENDBRANCH   1   3
BRANCH   1  15
ATOM     15  C1  MOL d           7.519 -17.303 118.071  0.00  0.00    -0.033 A 
ATOM     16  C2  MOL d           7.450 -16.817 119.372  0.00  0.00    -0.038 A 
ATOM     17  C3  MOL d           8.002 -17.551 120.419  0.00  0.00     0.099 A 
ATOM     18  H8  MOL d           6.966 -15.868 119.571  0.00  0.00     0.089 H 
ATOM     19  C4  MOL d           8.628 -18.766 120.162  0.00  0.00     0.098 A 
ATOM     20  C5  MOL d           8.704 -19.249 118.860  0.00  0.00    -0.047 A 
ATOM     21  C6  MOL d           8.150 -18.515 117.815  0.00  0.00    -0.070 A 
ATOM     22  H10 MOL d           9.195 -20.195 118.659  0.00  0.00     0.087 H 
ATOM     23  H9  MOL d           8.209 -18.891 116.800  0.00  0.00     0.084 H 
BRANCH  17  24
ATOM     24  O3  MOL d           7.921 -17.106 121.701  0.00  0.00    -0.358 OA
ATOM     25  H12 MOL d           8.733 -17.302 122.155  0.00  0.00     0.217 HD
ENDBRANCH  17  24
BRANCH  19  26
ATOM     26  O4  MOL d           9.169 -19.480 121.184  0.00  0.00    -0.358 OA
ATOM     27  H11 MOL d           8.989 -20.404 121.053  0.00  0.00     0.217 HD
ENDBRANCH  19  26
ENDBRANCH   1  15
TORSDOF 8
ENDMDL
