MODEL 1
REMARK VINA RESULT:      -9.2      0.000      0.000
REMARK  6 active torsions:
REMARK  status: ('A' for Active; 'I' for Inactive)
REMARK    1  A    between atoms: C07_7  and  N03_3 
REMARK    2  A    between atoms: N03_3  and  C09_9 
REMARK    3  A    between atoms: C06_6  and  N04_4 
REMARK    4  A    between atoms: N04_4  and  C16_16 
REMARK    5  A    between atoms: C14_14  and  C15_15 
REMARK    6  A    between atoms: C19_19  and  C22_22 
ROOT
ATOM      1  N01 MOL d           7.923  29.896   1.257  0.00  0.00    -0.075 NA
ATOM      2  N02 MOL d           6.497  29.578   3.088  0.00  0.00    -0.045 NA
ATOM      3  C05 MOL d           6.891  30.301   0.499  0.00  0.00     0.025 A 
ATOM      4  C06 MOL d           7.714  29.538   2.528  0.00  0.00     0.728 A 
ATOM      5  C07 MOL d           5.431  29.979   2.364  0.00  0.00     0.148 A 
ATOM      6  C08 MOL d           5.608  30.354   1.033  0.00  0.00    -0.021 A 
ATOM      7  H3  MOL d           7.059  30.589  -0.533  0.00  0.00     0.115 H 
ATOM      8  H4  MOL d           4.767  30.678   0.430  0.00  0.00     0.091 H 
ENDROOT
BRANCH   5   9
ATOM      9  N03 MOL d           4.108  30.028   2.933  0.00  0.00    -0.340 N 
ATOM     10  H1  MOL d           3.603  29.145   3.095  0.00  0.00     0.167 HD
BRANCH   9  11
ATOM     11  C09 MOL d           3.470  31.267   3.283  0.00  0.00     0.044 A 
ATOM     12  C10 MOL d           2.966  32.089   2.286  0.00  0.00    -0.056 A 
ATOM     13  C11 MOL d           2.354  33.288   2.619  0.00  0.00    -0.081 A 
ATOM     14  H5  MOL d           3.050  31.793   1.247  0.00  0.00     0.086 H 
ATOM     15  C12 MOL d           2.243  33.681   3.943  0.00  0.00    -0.082 A 
ATOM     16  H6  MOL d           1.959  33.925   1.835  0.00  0.00     0.083 H 
ATOM     17  C13 MOL d           2.750  32.863   4.939  0.00  0.00    -0.070 A 
ATOM     18  H7  MOL d           1.764  34.620   4.196  0.00  0.00     0.083 H 
ATOM     19  C14 MOL d           3.363  31.660   4.615  0.00  0.00     0.001 A 
ATOM     20  H8  MOL d           2.668  33.163   5.977  0.00  0.00     0.084 H 
BRANCH  19  21
ATOM     21  C15 MOL d           3.893  30.802   5.717  0.00  0.00    -0.024 A 
ATOM     22  C23 MOL d           4.856  29.836   5.460  0.00  0.00    -0.072 A 
ATOM     23  C24 MOL d           5.340  29.053   6.496  0.00  0.00    -0.082 A 
ATOM     24  H13 MOL d           5.228  29.694   4.452  0.00  0.00     0.084 H 
ATOM     25  C25 MOL d           4.864  29.237   7.785  0.00  0.00    -0.083 A 
ATOM     26  H14 MOL d           6.091  28.296   6.298  0.00  0.00     0.083 H 
ATOM     27  C26 MOL d           3.904  30.201   8.045  0.00  0.00    -0.082 A 
ATOM     28  H15 MOL d           5.245  28.623   8.594  0.00  0.00     0.083 H 
ATOM     29  C27 MOL d           3.421  30.985   7.009  0.00  0.00    -0.072 A 
ATOM     30  H16 MOL d           3.532  30.342   9.054  0.00  0.00     0.083 H 
ATOM     31  H17 MOL d           2.673  31.743   7.209  0.00  0.00     0.084 H 
ENDBRANCH  19  21
ENDBRANCH   9  11
ENDBRANCH   5   9
BRANCH   4  32
ATOM     32  N04 MOL d           8.869  29.125   3.275  0.00  0.00    -0.188 N 
ATOM     33  H2  MOL d           9.779  29.190   2.797  0.00  0.00     0.184 HD
BRANCH  32  34
ATOM     34  C16 MOL d           8.881  28.631   4.621  0.00  0.00     0.049 A 
ATOM     35  C17 MOL d           8.957  29.553   5.657  0.00  0.00    -0.056 A 
ATOM     36  C18 MOL d           8.956  29.127   6.977  0.00  0.00    -0.064 A 
ATOM     37  H9  MOL d           9.016  30.612   5.433  0.00  0.00     0.087 H 
ATOM     38  C19 MOL d           8.878  27.771   7.263  0.00  0.00     0.041 A 
ATOM     39  H10 MOL d           9.017  29.850   7.782  0.00  0.00     0.085 H 
ATOM     40  C20 MOL d           8.796  26.845   6.228  0.00  0.00    -0.064 A 
ATOM     41  C21 MOL d           8.793  27.275   4.907  0.00  0.00    -0.056 A 
ATOM     42  H11 MOL d           8.734  25.786   6.452  0.00  0.00     0.085 H 
ATOM     43  H12 MOL d           8.723  26.554   4.101  0.00  0.00     0.087 H 
BRANCH  38  44
ATOM     44  C22 MOL d           8.881  27.317   8.685  0.00  0.00     0.209 C 
ATOM     45  O28 MOL d           7.970  27.701   9.466  0.00  0.00    -0.644 OA
ATOM     46  O29 MOL d           9.794  26.551   9.104  0.00  0.00    -0.644 OA
ENDBRANCH  38  44
ENDBRANCH  32  34
ENDBRANCH   4  32
TORSDOF 6
ENDMDL
MODEL 2
REMARK VINA RESULT:      -9.1      0.845      3.312
REMARK  6 active torsions:
REMARK  status: ('A' for Active; 'I' for Inactive)
REMARK    1  A    between atoms: C07_7  and  N03_3 
REMARK    2  A    between atoms: N03_3  and  C09_9 
REMARK    3  A    between atoms: C06_6  and  N04_4 
REMARK    4  A    between atoms: N04_4  and  C16_16 
REMARK    5  A    between atoms: C14_14  and  C15_15 
REMARK    6  A    between atoms: C19_19  and  C22_22 
ROOT
ATOM      1  N01 MOL d           7.826  29.218   1.616  0.00  0.00    -0.075 NA
ATOM      2  N02 MOL d           6.421  29.180   3.490  0.00  0.00    -0.045 NA
ATOM      3  C05 MOL d           6.858  29.783   0.877  0.00  0.00     0.025 A 
ATOM      4  C06 MOL d           7.596  28.922   2.899  0.00  0.00     0.728 A 
ATOM      5  C07 MOL d           5.420  29.747   2.786  0.00  0.00     0.148 A 
ATOM      6  C08 MOL d           5.619  30.064   1.443  0.00  0.00    -0.021 A 
ATOM      7  H3  MOL d           7.043  30.020  -0.164  0.00  0.00     0.115 H 
ATOM      8  H4  MOL d           4.830  30.519   0.856  0.00  0.00     0.091 H 
ENDROOT
BRANCH   5   9
ATOM      9  N03 MOL d           4.142  30.033   3.389  0.00  0.00    -0.340 N 
ATOM     10  H1  MOL d           3.293  29.970   2.809  0.00  0.00     0.167 HD
BRANCH   9  11
ATOM     11  C09 MOL d           4.013  30.402   4.771  0.00  0.00     0.044 A 
ATOM     12  C10 MOL d           4.496  29.556   5.759  0.00  0.00    -0.056 A 
ATOM     13  C11 MOL d           4.368  29.906   7.095  0.00  0.00    -0.081 A 
ATOM     14  H5  MOL d           4.973  28.621   5.486  0.00  0.00     0.086 H 
ATOM     15  C12 MOL d           3.758  31.095   7.459  0.00  0.00    -0.082 A 
ATOM     16  H6  MOL d           4.751  29.241   7.862  0.00  0.00     0.083 H 
ATOM     17  C13 MOL d           3.272  31.938   6.473  0.00  0.00    -0.070 A 
ATOM     18  H7  MOL d           3.662  31.362   8.505  0.00  0.00     0.083 H 
ATOM     19  C14 MOL d           3.396  31.596   5.133  0.00  0.00     0.001 A 
ATOM     20  H8  MOL d           2.793  32.870   6.750  0.00  0.00     0.084 H 
BRANCH  19  21
ATOM     21  C15 MOL d           2.865  32.534   4.099  0.00  0.00    -0.024 A 
ATOM     22  C23 MOL d           1.597  33.083   4.228  0.00  0.00    -0.072 A 
ATOM     23  C24 MOL d           1.122  33.956   3.261  0.00  0.00    -0.082 A 
ATOM     24  H13 MOL d           0.979  32.829   5.081  0.00  0.00     0.084 H 
ATOM     25  C25 MOL d           1.915  34.280   2.171  0.00  0.00    -0.083 A 
ATOM     26  H14 MOL d           0.131  34.385   3.357  0.00  0.00     0.083 H 
ATOM     27  C26 MOL d           3.182  33.736   2.040  0.00  0.00    -0.082 A 
ATOM     28  H15 MOL d           1.541  34.964   1.416  0.00  0.00     0.083 H 
ATOM     29  C27 MOL d           3.657  32.864   3.007  0.00  0.00    -0.072 A 
ATOM     30  H16 MOL d           3.799  33.990   1.186  0.00  0.00     0.083 H 
ATOM     31  H17 MOL d           4.649  32.438   2.911  0.00  0.00     0.084 H 
ENDBRANCH  19  21
ENDBRANCH   9  11
ENDBRANCH   5   9
BRANCH   4  32
ATOM     32  N04 MOL d           8.685  28.327   3.625  0.00  0.00    -0.188 N 
ATOM     33  H2  MOL d           9.525  28.082   3.082  0.00  0.00     0.184 HD
BRANCH  32  34
ATOM     34  C16 MOL d           8.718  28.043   5.029  0.00  0.00     0.049 A 
ATOM     35  C17 MOL d           8.346  29.049   5.911  0.00  0.00    -0.056 A 
ATOM     36  C18 MOL d           8.346  28.819   7.278  0.00  0.00    -0.064 A 
ATOM     37  H9  MOL d           8.053  30.020   5.528  0.00  0.00     0.087 H 
ATOM     38  C19 MOL d           8.719  27.575   7.767  0.00  0.00     0.041 A 
ATOM     39  H10 MOL d           8.056  29.608   7.963  0.00  0.00     0.085 H 
ATOM     40  C20 MOL d           9.086  26.563   6.888  0.00  0.00    -0.064 A 
ATOM     41  C21 MOL d           9.082  26.795   5.518  0.00  0.00    -0.056 A 
ATOM     42  H11 MOL d           9.377  25.591   7.270  0.00  0.00     0.085 H 
ATOM     43  H12 MOL d           9.362  26.004   4.832  0.00  0.00     0.087 H 
BRANCH  38  44
ATOM     44  C22 MOL d           8.722  27.333   9.241  0.00  0.00     0.209 C 
ATOM     45  O28 MOL d           9.571  26.551   9.744  0.00  0.00    -0.644 OA
ATOM     46  O29 MOL d           7.875  27.910   9.979  0.00  0.00    -0.644 OA
ENDBRANCH  38  44
ENDBRANCH  32  34
ENDBRANCH   4  32
TORSDOF 6
ENDMDL
MODEL 3
REMARK VINA RESULT:      -7.9      3.009      5.428
REMARK  6 active torsions:
REMARK  status: ('A' for Active; 'I' for Inactive)
REMARK    1  A    between atoms: C07_7  and  N03_3 
REMARK    2  A    between atoms: N03_3  and  C09_9 
REMARK    3  A    between atoms: C06_6  and  N04_4 
REMARK    4  A    between atoms: N04_4  and  C16_16 
REMARK    5  A    between atoms: C14_14  and  C15_15 
REMARK    6  A    between atoms: C19_19  and  C22_22 
ROOT
ATOM      1  N01 MOL d           3.666  32.663   2.512  0.00  0.00    -0.075 NA
ATOM      2  N02 MOL d           4.076  30.517   3.357  0.00  0.00    -0.045 NA
ATOM      3  C05 MOL d           3.111  33.038   3.676  0.00  0.00     0.025 A 
ATOM      4  C06 MOL d           4.132  31.419   2.367  0.00  0.00     0.728 A 
ATOM      5  C07 MOL d           3.527  30.850   4.544  0.00  0.00     0.148 A 
ATOM      6  C08 MOL d           3.024  32.136   4.731  0.00  0.00    -0.021 A 
ATOM      7  H3  MOL d           2.730  34.046   3.793  0.00  0.00     0.115 H 
ATOM      8  H4  MOL d           2.577  32.427   5.675  0.00  0.00     0.091 H 
ENDROOT
BRANCH   5   9
ATOM      9  N03 MOL d           3.445  29.903   5.628  0.00  0.00    -0.340 N 
ATOM     10  H1  MOL d           3.218  28.921   5.415  0.00  0.00     0.167 HD
BRANCH   9  11
ATOM     11  C09 MOL d           3.669  30.283   6.995  0.00  0.00     0.044 A 
ATOM     12  C10 MOL d           2.767  31.120   7.635  0.00  0.00    -0.056 A 
ATOM     13  C11 MOL d           2.982  31.494   8.953  0.00  0.00    -0.081 A 
ATOM     14  H5  MOL d           1.893  31.482   7.104  0.00  0.00     0.086 H 
ATOM     15  C12 MOL d           4.096  31.043   9.643  0.00  0.00    -0.082 A 
ATOM     16  H6  MOL d           2.271  32.146   9.449  0.00  0.00     0.083 H 
ATOM     17  C13 MOL d           4.999  30.211   9.003  0.00  0.00    -0.070 A 
ATOM     18  H7  MOL d           4.258  31.339  10.673  0.00  0.00     0.083 H 
ATOM     19  C14 MOL d           4.791  29.831   7.684  0.00  0.00     0.001 A 
ATOM     20  H8  MOL d           5.873  29.854   9.536  0.00  0.00     0.084 H 
BRANCH  19  21
ATOM     21  C15 MOL d           5.785  28.927   7.030  0.00  0.00    -0.024 A 
ATOM     22  C23 MOL d           6.576  29.386   5.986  0.00  0.00    -0.072 A 
ATOM     23  C24 MOL d           7.498  28.535   5.394  0.00  0.00    -0.082 A 
ATOM     24  H13 MOL d           6.475  30.406   5.633  0.00  0.00     0.084 H 
ATOM     25  C25 MOL d           7.628  27.231   5.847  0.00  0.00    -0.083 A 
ATOM     26  H14 MOL d           8.116  28.890   4.577  0.00  0.00     0.083 H 
ATOM     27  C26 MOL d           6.841  26.771   6.890  0.00  0.00    -0.082 A 
ATOM     28  H15 MOL d           8.350  26.568   5.383  0.00  0.00     0.083 H 
ATOM     29  C27 MOL d           5.921  27.622   7.482  0.00  0.00    -0.072 A 
ATOM     30  H16 MOL d           6.944  25.751   7.241  0.00  0.00     0.083 H 
ATOM     31  H17 MOL d           5.306  27.268   8.301  0.00  0.00     0.084 H 
ENDBRANCH  19  21
ENDBRANCH   9  11
ENDBRANCH   5   9
BRANCH   4  32
ATOM     32  N04 MOL d           4.719  31.099   1.095  0.00  0.00    -0.188 N 
ATOM     33  H2  MOL d           4.287  31.527   0.264  0.00  0.00     0.184 HD
BRANCH  32  34
ATOM     34  C16 MOL d           5.846  30.243   0.868  0.00  0.00     0.049 A 
ATOM     35  C17 MOL d           7.094  30.830   0.709  0.00  0.00    -0.056 A 
ATOM     36  C18 MOL d           8.218  30.045   0.502  0.00  0.00    -0.064 A 
ATOM     37  H9  MOL d           7.190  31.909   0.747  0.00  0.00     0.087 H 
ATOM     38  C19 MOL d           8.094  28.664   0.456  0.00  0.00     0.041 A 
ATOM     39  H10 MOL d           9.190  30.509   0.377  0.00  0.00     0.085 H 
ATOM     40  C20 MOL d           6.847  28.071   0.621  0.00  0.00    -0.064 A 
ATOM     41  C21 MOL d           5.723  28.860   0.831  0.00  0.00    -0.056 A 
ATOM     42  H11 MOL d           6.751  26.992   0.586  0.00  0.00     0.085 H 
ATOM     43  H12 MOL d           4.752  28.398   0.966  0.00  0.00     0.087 H 
BRANCH  38  44
ATOM     44  C22 MOL d           9.307  27.823   0.230  0.00  0.00     0.209 C 
ATOM     45  O28 MOL d          10.437  28.371   0.124  0.00  0.00    -0.644 OA
ATOM     46  O29 MOL d           9.201  26.567   0.143  0.00  0.00    -0.644 OA
ENDBRANCH  38  44
ENDBRANCH  32  34
ENDBRANCH   4  32
TORSDOF 6
ENDMDL
MODEL 4
REMARK VINA RESULT:      -7.1      2.713      5.146
REMARK  6 active torsions:
REMARK  status: ('A' for Active; 'I' for Inactive)
REMARK    1  A    between atoms: C07_7  and  N03_3 
REMARK    2  A    between atoms: N03_3  and  C09_9 
REMARK    3  A    between atoms: C06_6  and  N04_4 
REMARK    4  A    between atoms: N04_4  and  C16_16 
REMARK    5  A    between atoms: C14_14  and  C15_15 
REMARK    6  A    between atoms: C19_19  and  C22_22 
ROOT
ATOM      1  N01 MOL d           3.733  30.306   8.657  0.00  0.00    -0.075 NA
ATOM      2  N02 MOL d           4.136  30.363   6.350  0.00  0.00    -0.045 NA
ATOM      3  C05 MOL d           3.051  31.460   8.587  0.00  0.00     0.025 A 
ATOM      4  C06 MOL d           4.266  29.779   7.550  0.00  0.00     0.728 A 
ATOM      5  C07 MOL d           3.458  31.524   6.232  0.00  0.00     0.148 A 
ATOM      6  C08 MOL d           2.894  32.107   7.365  0.00  0.00    -0.021 A 
ATOM      7  H3  MOL d           2.621  31.889   9.484  0.00  0.00     0.115 H 
ATOM      8  H4  MOL d           2.347  33.040   7.296  0.00  0.00     0.091 H 
ENDROOT
BRANCH   5   9
ATOM      9  N03 MOL d           3.305  32.180   4.959  0.00  0.00    -0.340 N 
ATOM     10  H1  MOL d           4.003  32.006   4.221  0.00  0.00     0.167 HD
BRANCH   9  11
ATOM     11  C09 MOL d           2.211  33.071   4.683  0.00  0.00     0.044 A 
ATOM     12  C10 MOL d           1.335  33.423   5.699  0.00  0.00    -0.056 A 
ATOM     13  C11 MOL d           0.275  34.277   5.436  0.00  0.00    -0.081 A 
ATOM     14  H5  MOL d           1.480  33.030   6.699  0.00  0.00     0.086 H 
ATOM     15  C12 MOL d           0.075  34.784   4.163  0.00  0.00    -0.082 A 
ATOM     16  H6  MOL d          -0.404  34.551   6.236  0.00  0.00     0.083 H 
ATOM     17  C13 MOL d           0.947  34.430   3.146  0.00  0.00    -0.070 A 
ATOM     18  H7  MOL d          -0.755  35.452   3.964  0.00  0.00     0.083 H 
ATOM     19  C14 MOL d           2.012  33.575   3.401  0.00  0.00     0.001 A 
ATOM     20  H8  MOL d           0.797  34.822   2.147  0.00  0.00     0.084 H 
BRANCH  19  21
ATOM     21  C15 MOL d           2.934  33.220   2.280  0.00  0.00    -0.024 A 
ATOM     22  C23 MOL d           3.161  31.893   1.946  0.00  0.00    -0.072 A 
ATOM     23  C24 MOL d           4.015  31.582   0.899  0.00  0.00    -0.082 A 
ATOM     24  H13 MOL d           2.672  31.101   2.501  0.00  0.00     0.084 H 
ATOM     25  C25 MOL d           4.638  32.597   0.188  0.00  0.00    -0.083 A 
ATOM     26  H14 MOL d           4.196  30.546   0.637  0.00  0.00     0.083 H 
ATOM     27  C26 MOL d           4.412  33.923   0.519  0.00  0.00    -0.082 A 
ATOM     28  H15 MOL d           5.306  32.350  -0.630  0.00  0.00     0.083 H 
ATOM     29  C27 MOL d           3.557  34.233   1.564  0.00  0.00    -0.072 A 
ATOM     30  H16 MOL d           4.902  34.714  -0.038  0.00  0.00     0.083 H 
ATOM     31  H17 MOL d           3.374  35.269   1.823  0.00  0.00     0.084 H 
ENDBRANCH  19  21
ENDBRANCH   9  11
ENDBRANCH   5   9
BRANCH   4  32
ATOM     32  N04 MOL d           4.973  28.539   7.707  0.00  0.00    -0.188 N 
ATOM     33  H2  MOL d           4.674  27.929   8.481  0.00  0.00     0.184 HD
BRANCH  32  34
ATOM     34  C16 MOL d           6.053  28.065   6.892  0.00  0.00     0.049 A 
ATOM     35  C17 MOL d           6.074  28.431   5.552  0.00  0.00    -0.056 A 
ATOM     36  C18 MOL d           7.105  28.012   4.726  0.00  0.00    -0.064 A 
ATOM     37  H9  MOL d           5.279  29.050   5.151  0.00  0.00     0.087 H 
ATOM     38  C19 MOL d           8.123  27.222   5.242  0.00  0.00     0.041 A 
ATOM     39  H10 MOL d           7.116  28.300   3.681  0.00  0.00     0.085 H 
ATOM     40  C20 MOL d           8.110  26.858   6.584  0.00  0.00    -0.064 A 
ATOM     41  C21 MOL d           7.077  27.283   7.410  0.00  0.00    -0.056 A 
ATOM     42  H11 MOL d           8.906  26.242   6.986  0.00  0.00     0.085 H 
ATOM     43  H12 MOL d           7.069  27.004   8.458  0.00  0.00     0.087 H 
BRANCH  38  44
ATOM     44  C22 MOL d           9.229  26.770   4.347  0.00  0.00     0.209 C 
ATOM     45  O28 MOL d           8.997  26.551   3.128  0.00  0.00    -0.644 OA
ATOM     46  O29 MOL d          10.393  26.606   4.810  0.00  0.00    -0.644 OA
ENDBRANCH  38  44
ENDBRANCH  32  34
ENDBRANCH   4  32
TORSDOF 6
ENDMDL
