MODEL 1
REMARK VINA RESULT:      -8.9      0.000      0.000
REMARK  6 active torsions:
REMARK  status: ('A' for Active; 'I' for Inactive)
REMARK    1  A    between atoms: C10_10  and  C5_5 
REMARK    2  A    between atoms: C7_7  and  C14_14 
REMARK    3  A    between atoms: C8_8  and  N17_17 
REMARK    4  A    between atoms: N17_17  and  S18_18 
REMARK    5  A    between atoms: S18_18  and  C20_20 
REMARK    6  A    between atoms: C19_19  and  C25_25 
ROOT
ATOM      1  C1  CCT d          13.205  30.721  73.531  0.00  0.00    -0.062 A 
ATOM      2  C2  CCT d          13.112  29.458  72.870  0.00  0.00     0.044 A 
ATOM      3  C3  CCT d          11.848  28.804  72.826  0.00  0.00    -0.062 A 
ATOM      4  C4  CCT d          10.708  29.392  73.421  0.00  0.00    -0.070 A 
ATOM      5  C5  CCT d          10.792  30.655  74.079  0.00  0.00    -0.019 A 
ATOM      6  C6  CCT d          12.060  31.310  74.126  0.00  0.00    -0.070 A 
ATOM      7  C12 CCT d          14.258  28.856  72.257  0.00  0.00     0.099 C 
ATOM      8  N13 CCT d          15.191  28.358  71.736  0.00  0.00    -0.191 NA
ATOM      9  H1  CCT d          14.159  31.234  73.579  0.00  0.00     0.085 H 
ATOM     10  H2  CCT d          11.758  27.843  72.332  0.00  0.00     0.085 H 
ATOM     11  H3  CCT d           9.756  28.876  73.376  0.00  0.00     0.084 H 
ATOM     12  H4  CCT d          12.148  32.270  74.623  0.00  0.00     0.084 H 
ENDROOT
BRANCH   5  13
ATOM     13  C10 CCT d           9.581  31.249  74.673  0.00  0.00     0.018 A 
ATOM     14  C9  CCT d           9.459  32.059  75.790  0.00  0.00    -0.038 A 
ATOM     15  C8  CCT d           8.104  32.456  76.067  0.00  0.00     0.068 A 
ATOM     16  H5  CCT d          10.307  32.366  76.400  0.00  0.00     0.089 H 
ATOM     17  C7  CCT d           7.222  31.927  75.136  0.00  0.00     0.109 A 
ATOM     18  S11 CCT d           8.042  30.985  73.984  0.00  0.00    -0.080 SA
BRANCH  15  19
ATOM     19  N17 CCT d           7.720  33.298  77.191  0.00  0.00    -0.279 N 
ATOM     20  H6  CCT d           6.884  33.094  77.701  0.00  0.00     0.179 HD
BRANCH  19  21
ATOM     21  S18 CCT d           8.676  34.621  77.643  0.00  0.00     0.263 S 
ATOM     22  O26 CCT d           9.945  34.087  78.117  0.00  0.00    -0.200 OA
ATOM     23  O27 CCT d           7.925  35.281  78.690  0.00  0.00    -0.200 OA
BRANCH  21  24
ATOM     24  C20 CCT d           8.965  35.797  76.331  0.00  0.00     0.085 A 
ATOM     25  C19 CCT d           7.919  36.554  75.714  0.00  0.00    -0.039 A 
ATOM     26  C24 CCT d           8.262  37.473  74.671  0.00  0.00    -0.076 A 
ATOM     27  C23 CCT d           9.611  37.638  74.255  0.00  0.00    -0.082 A 
ATOM     28  H10 CCT d           7.481  38.052  74.191  0.00  0.00     0.084 H 
ATOM     29  C22 CCT d          10.642  36.881  74.874  0.00  0.00    -0.081 A 
ATOM     30  H9  CCT d           9.853  38.341  73.466  0.00  0.00     0.083 H 
ATOM     31  C21 CCT d          10.316  35.972  75.904  0.00  0.00    -0.060 A 
ATOM     32  H8  CCT d          11.672  37.001  74.557  0.00  0.00     0.083 H 
ATOM     33  H7  CCT d          11.104  35.398  76.377  0.00  0.00     0.085 H 
BRANCH  25  34
ATOM     34  C25 CCT d           6.466  36.424  76.111  0.00  0.00    -0.050 C 
ATOM     35  H11 CCT d           6.372  35.683  76.919  0.00  0.00     0.033 H 
ATOM     36  H12 CCT d           5.876  36.096  75.243  0.00  0.00     0.033 H 
ATOM     37  H13 CCT d           6.094  37.398  76.462  0.00  0.00     0.033 H 
ENDBRANCH  25  34
ENDBRANCH  21  24
ENDBRANCH  19  21
ENDBRANCH  15  19
BRANCH  17  38
ATOM     38  C14 CCT d           5.750  32.153  75.141  0.00  0.00     0.219 C 
ATOM     39  O15 CCT d           5.071  31.453  74.371  0.00  0.00    -0.643 OA
ATOM     40  O16 CCT d           5.269  33.042  75.887  0.00  0.00    -0.643 OA
ENDBRANCH  17  38
ENDBRANCH   5  13
TORSDOF 6
ENDMDL
