MODEL 1
REMARK VINA RESULT:      -8.7      0.000      0.000
REMARK  17 active torsions:
REMARK  status: ('A' for Active; 'I' for Inactive)
REMARK    1  A    between atoms: C_1  and  OA_3 
REMARK       I    between atoms: N_11  and  C_1 
REMARK    2  A    between atoms: OA_3  and  CB_4 
REMARK    3  A    between atoms: CB_4  and  CG_5 
REMARK    4  A    between atoms: CA_12  and  N_11 
REMARK    5  A    between atoms: P_13  and  CA_12 
REMARK    6  A    between atoms: CA_12  and  CB_16 
REMARK    7  A    between atoms: P_13  and  N_23 
REMARK    8  A    between atoms: CB_16  and  CG_17 
REMARK    9  A    between atoms: N_23  and  CA_24 
REMARK   10  A    between atoms: CA_24  and  CB_27 
REMARK   11  A    between atoms: CA_24  and  C_25 
REMARK       I    between atoms: C_25  and  N_31 
REMARK   12  A    between atoms: CB_27  and  CG_28 
REMARK   13  A    between atoms: CG_28  and  CD1_29 
REMARK   14  A    between atoms: CG_28  and  CD2_30 
REMARK   15  A    between atoms: N_31  and  CA_32 
REMARK   16  A    between atoms: CA_32  and  CB_35 
REMARK   17  A    between atoms: CA_32  and  C_33 
ROOT
ATOM      1  CA  MOL d          50.594  18.520  -6.823  0.00  0.00     0.112 C 
ATOM      2  H9  MOL d          49.726  19.050  -6.403  0.00  0.00     0.092 H 
ENDROOT
BRANCH   1   3
ATOM      3  N   MOL d          50.806  18.818  -8.267  0.00  0.00    -0.321 N 
ATOM      4  C   MOL d          50.481  20.010  -8.791  0.00  0.00     0.361 C 
ATOM      5  O   MOL d          49.901  20.969  -8.177  0.00  0.00    -0.238 OA
ATOM      6  H8  MOL d          51.199  18.115  -8.858  0.00  0.00     0.165 HD
BRANCH   4   7
ATOM      7  OA  MOL d          50.936  20.027 -10.092  0.00  0.00    -0.299 OA
BRANCH   7   8
ATOM      8  CB  MOL d          50.016  19.988 -11.195  0.00  0.00     0.054 C 
ATOM      9  H1  MOL d          48.994  20.240 -10.874  0.00  0.00     0.082 H 
ATOM     10  H2  MOL d          50.014  19.002 -11.683  0.00  0.00     0.082 H 
BRANCH   8  11
ATOM     11  CG  MOL d          50.576  21.035 -12.091  0.00  0.00    -0.034 A 
ATOM     12  CD1 MOL d          51.515  22.031 -11.804  0.00  0.00    -0.075 A 
ATOM     13  CE1 MOL d          52.012  22.947 -12.768  0.00  0.00    -0.082 A 
ATOM     14  H3  MOL d          51.885  22.108 -10.787  0.00  0.00     0.084 H 
ATOM     15  CZ  MOL d          51.651  22.908 -14.046  0.00  0.00    -0.083 A 
ATOM     16  H5  MOL d          52.714  23.709 -12.449  0.00  0.00     0.083 H 
ATOM     17  CE2 MOL d          50.744  21.944 -14.236  0.00  0.00    -0.082 A 
ATOM     18  H7  MOL d          52.034  23.562 -14.821  0.00  0.00     0.083 H 
ATOM     19  CD2 MOL d          50.180  20.984 -13.371  0.00  0.00    -0.075 A 
ATOM     20  H6  MOL d          50.369  21.890 -15.252  0.00  0.00     0.083 H 
ATOM     21  H4  MOL d          49.468  20.246 -13.721  0.00  0.00     0.084 H 
ENDBRANCH   8  11
ENDBRANCH   7   8
ENDBRANCH   4   7
ENDBRANCH   1   3
BRANCH   1  22
ATOM     22  P   MOL d          51.994  18.950  -6.060  0.00  0.00     0.229 P 
ATOM     23  OP1 MOL d          53.246  18.218  -6.677  0.00  0.00    -0.650 OA
ATOM     24  OP2 MOL d          52.191  20.522  -5.990  0.00  0.00    -0.650 OA
BRANCH  22  25
ATOM     25  N   MOL d          51.617  18.389  -4.286  0.00  0.00    -0.334 N 
ATOM     26  H17 MOL d          50.689  18.186  -3.973  0.00  0.00     0.164 HD
BRANCH  25  27
ATOM     27  CA  MOL d          52.788  18.274  -3.405  0.00  0.00     0.091 C 
ATOM     28  H18 MOL d          53.545  18.968  -3.799  0.00  0.00     0.087 H 
BRANCH  27  29
ATOM     29  CB  MOL d          52.479  18.671  -1.957  0.00  0.00    -0.035 C 
ATOM     30  H19 MOL d          51.832  17.899  -1.514  0.00  0.00     0.037 H 
ATOM     31  H20 MOL d          51.947  19.634  -1.965  0.00  0.00     0.037 H 
BRANCH  29  32
ATOM     32  CG  MOL d          53.712  18.814  -1.095  0.00  0.00    -0.059 C 
ATOM     33  H21 MOL d          54.508  18.121  -1.404  0.00  0.00     0.038 H 
BRANCH  32  34
ATOM     34  CD1 MOL d          54.249  20.255  -1.162  0.00  0.00    -0.073 C 
ATOM     35  H22 MOL d          53.623  20.848  -1.845  0.00  0.00     0.028 H 
ATOM     36  H23 MOL d          55.285  20.244  -1.531  0.00  0.00     0.028 H 
ATOM     37  H24 MOL d          54.223  20.704  -0.158  0.00  0.00     0.028 H 
ENDBRANCH  32  34
BRANCH  32  38
ATOM     38  CD2 MOL d          53.140  18.417   0.249  0.00  0.00    -0.073 C 
ATOM     39  H25 MOL d          53.926  18.484   1.016  0.00  0.00     0.028 H 
ATOM     40  H26 MOL d          52.766  17.384   0.198  0.00  0.00     0.028 H 
ATOM     41  H27 MOL d          52.313  19.094   0.510  0.00  0.00     0.028 H 
ENDBRANCH  32  38
ENDBRANCH  29  32
ENDBRANCH  27  29
BRANCH  27  42
ATOM     42  C   MOL d          53.425  16.876  -3.338  0.00  0.00     0.241 C 
ATOM     43  O   MOL d          54.613  16.695  -3.627  0.00  0.00    -0.271 OA
ATOM     44  N   MOL d          52.648  15.913  -2.884  0.00  0.00    -0.345 N 
ATOM     45  H28 MOL d          51.703  16.152  -2.660  0.00  0.00     0.163 HD
BRANCH  44  46
ATOM     46  CA  MOL d          53.059  14.509  -2.680  0.00  0.00     0.093 C 
ATOM     47  H29 MOL d          54.140  14.475  -2.482  0.00  0.00     0.089 H 
BRANCH  46  48
ATOM     48  CB  MOL d          52.314  13.962  -1.476  0.00  0.00    -0.048 C 
ATOM     49  H30 MOL d          51.237  14.153  -1.593  0.00  0.00     0.030 H 
ATOM     50  H31 MOL d          52.677  14.459  -0.564  0.00  0.00     0.030 H 
ATOM     51  H32 MOL d          52.489  12.879  -1.397  0.00  0.00     0.030 H 
ENDBRANCH  46  48
BRANCH  46  52
ATOM     52  C   MOL d          52.758  13.660  -3.941  0.00  0.00     0.196 C 
ATOM     53  O   MOL d          51.678  13.043  -4.048  0.00  0.00    -0.646 OA
ATOM     54  OXT MOL d          53.492  13.589  -4.993  0.00  0.00    -0.646 OA
ENDBRANCH  46  52
ENDBRANCH  44  46
ENDBRANCH  27  42
ENDBRANCH  25  27
ENDBRANCH  22  25
ENDBRANCH   1  22
BRANCH   1  55
ATOM     55  CB  MOL d          50.413  17.039  -6.778  0.00  0.00    -0.011 C 
ATOM     56  H10 MOL d          50.468  16.679  -5.741  0.00  0.00     0.044 H 
ATOM     57  H11 MOL d          51.188  16.542  -7.380  0.00  0.00     0.044 H 
BRANCH  55  58
ATOM     58  CG  MOL d          49.041  16.768  -7.360  0.00  0.00    -0.056 A 
ATOM     59  CD1 MOL d          48.998  16.333  -8.691  0.00  0.00    -0.077 A 
ATOM     60  CE1 MOL d          47.773  16.039  -9.301  0.00  0.00    -0.082 A 
ATOM     61  H12 MOL d          49.920  16.225  -9.252  0.00  0.00     0.084 H 
ATOM     62  CZ  MOL d          46.610  16.180  -8.553  0.00  0.00    -0.083 A 
ATOM     63  H14 MOL d          47.733  15.708 -10.333  0.00  0.00     0.083 H 
ATOM     64  CE2 MOL d          46.667  16.597  -7.192  0.00  0.00    -0.082 A 
ATOM     65  H16 MOL d          45.650  15.971  -9.010  0.00  0.00     0.083 H 
ATOM     66  CD2 MOL d          47.906  16.877  -6.597  0.00  0.00    -0.077 A 
ATOM     67  H15 MOL d          45.754  16.699  -6.617  0.00  0.00     0.083 H 
ATOM     68  H13 MOL d          47.964  17.174  -5.556  0.00  0.00     0.084 H 
ENDBRANCH  55  58
ENDBRANCH   1  55
TORSDOF 17
ENDMDL
MODEL 2
REMARK VINA RESULT:      -8.0      1.546      3.410
REMARK  17 active torsions:
REMARK  status: ('A' for Active; 'I' for Inactive)
REMARK    1  A    between atoms: C_1  and  OA_3 
REMARK       I    between atoms: N_11  and  C_1 
REMARK    2  A    between atoms: OA_3  and  CB_4 
REMARK    3  A    between atoms: CB_4  and  CG_5 
REMARK    4  A    between atoms: CA_12  and  N_11 
REMARK    5  A    between atoms: P_13  and  CA_12 
REMARK    6  A    between atoms: CA_12  and  CB_16 
REMARK    7  A    between atoms: P_13  and  N_23 
REMARK    8  A    between atoms: CB_16  and  CG_17 
REMARK    9  A    between atoms: N_23  and  CA_24 
REMARK   10  A    between atoms: CA_24  and  CB_27 
REMARK   11  A    between atoms: CA_24  and  C_25 
REMARK       I    between atoms: C_25  and  N_31 
REMARK   12  A    between atoms: CB_27  and  CG_28 
REMARK   13  A    between atoms: CG_28  and  CD1_29 
REMARK   14  A    between atoms: CG_28  and  CD2_30 
REMARK   15  A    between atoms: N_31  and  CA_32 
REMARK   16  A    between atoms: CA_32  and  CB_35 
REMARK   17  A    between atoms: CA_32  and  C_33 
ROOT
ATOM      1  CA  MOL d          50.637  18.186  -6.695  0.00  0.00     0.112 C 
ATOM      2  H9  MOL d          49.791  18.737  -6.259  0.00  0.00     0.092 H 
ENDROOT
BRANCH   1   3
ATOM      3  N   MOL d          51.082  18.751  -7.999  0.00  0.00    -0.321 N 
ATOM      4  C   MOL d          50.703  19.975  -8.398  0.00  0.00     0.361 C 
ATOM      5  O   MOL d          49.888  20.747  -7.786  0.00  0.00    -0.238 OA
ATOM      6  H8  MOL d          51.675  18.206  -8.591  0.00  0.00     0.165 HD
BRANCH   4   7
ATOM      7  OA  MOL d          51.394  20.265  -9.555  0.00  0.00    -0.299 OA
BRANCH   7   8
ATOM      8  CB  MOL d          51.070  21.427 -10.336  0.00  0.00     0.054 C 
ATOM      9  H1  MOL d          51.970  22.007 -10.584  0.00  0.00     0.082 H 
ATOM     10  H2  MOL d          50.349  22.073  -9.812  0.00  0.00     0.082 H 
BRANCH   8  11
ATOM     11  CG  MOL d          50.466  20.816 -11.550  0.00  0.00    -0.034 A 
ATOM     12  CD1 MOL d          49.605  19.716 -11.648  0.00  0.00    -0.075 A 
ATOM     13  CE1 MOL d          49.052  19.257 -12.872  0.00  0.00    -0.082 A 
ATOM     14  H3  MOL d          49.347  19.186 -10.738  0.00  0.00     0.084 H 
ATOM     15  CZ  MOL d          49.276  19.864 -14.033  0.00  0.00    -0.083 A 
ATOM     16  H5  MOL d          48.420  18.376 -12.860  0.00  0.00     0.083 H 
ATOM     17  CE2 MOL d          50.116  20.890 -13.858  0.00  0.00    -0.082 A 
ATOM     18  H7  MOL d          48.843  19.570 -14.982  0.00  0.00     0.083 H 
ATOM     19  CD2 MOL d          50.723  21.437 -12.709  0.00  0.00    -0.075 A 
ATOM     20  H6  MOL d          50.380  21.400 -14.777  0.00  0.00     0.083 H 
ATOM     21  H4  MOL d          51.363  22.311 -12.761  0.00  0.00     0.084 H 
ENDBRANCH   8  11
ENDBRANCH   7   8
ENDBRANCH   4   7
ENDBRANCH   1   3
BRANCH   1  22
ATOM     22  P   MOL d          51.961  18.232  -5.706  0.00  0.00     0.229 P 
ATOM     23  OP1 MOL d          53.207  18.872  -6.428  0.00  0.00    -0.650 OA
ATOM     24  OP2 MOL d          51.654  18.918  -4.310  0.00  0.00    -0.650 OA
BRANCH  22  25
ATOM     25  N   MOL d          52.194  16.383  -5.343  0.00  0.00    -0.334 N 
ATOM     26  H17 MOL d          52.101  15.681  -6.050  0.00  0.00     0.164 HD
BRANCH  25  27
ATOM     27  CA  MOL d          52.523  16.058  -3.948  0.00  0.00     0.091 C 
ATOM     28  H18 MOL d          51.626  16.288  -3.354  0.00  0.00     0.087 H 
BRANCH  27  29
ATOM     29  CB  MOL d          52.862  14.575  -3.752  0.00  0.00    -0.035 C 
ATOM     30  H19 MOL d          53.724  14.327  -4.389  0.00  0.00     0.037 H 
ATOM     31  H20 MOL d          51.994  13.974  -4.061  0.00  0.00     0.037 H 
BRANCH  29  32
ATOM     32  CG  MOL d          53.206  14.220  -2.324  0.00  0.00    -0.059 C 
ATOM     33  H21 MOL d          53.743  15.035  -1.818  0.00  0.00     0.038 H 
BRANCH  32  34
ATOM     34  CD1 MOL d          51.927  13.895  -1.530  0.00  0.00    -0.073 C 
ATOM     35  H22 MOL d          52.000  14.331  -0.523  0.00  0.00     0.028 H 
ATOM     36  H23 MOL d          51.813  12.804  -1.450  0.00  0.00     0.028 H 
ATOM     37  H24 MOL d          51.055  14.317  -2.050  0.00  0.00     0.028 H 
ENDBRANCH  32  34
BRANCH  32  38
ATOM     38  CD2 MOL d          54.119  13.035  -2.561  0.00  0.00    -0.073 C 
ATOM     39  H25 MOL d          54.713  12.844  -1.655  0.00  0.00     0.028 H 
ATOM     40  H26 MOL d          54.793  13.254  -3.401  0.00  0.00     0.028 H 
ATOM     41  H27 MOL d          53.513  12.148  -2.798  0.00  0.00     0.028 H 
ENDBRANCH  32  38
ENDBRANCH  29  32
ENDBRANCH  27  29
BRANCH  27  42
ATOM     42  C   MOL d          53.697  16.848  -3.348  0.00  0.00     0.241 C 
ATOM     43  O   MOL d          54.796  16.897  -3.913  0.00  0.00    -0.271 OA
ATOM     44  N   MOL d          53.432  17.522  -2.247  0.00  0.00    -0.345 N 
ATOM     45  H28 MOL d          52.511  17.437  -1.866  0.00  0.00     0.163 HD
BRANCH  44  46
ATOM     46  CA  MOL d          54.385  18.392  -1.528  0.00  0.00     0.093 C 
ATOM     47  H29 MOL d          55.410  18.047  -1.727  0.00  0.00     0.089 H 
BRANCH  46  48
ATOM     48  CB  MOL d          54.227  19.809  -2.051  0.00  0.00    -0.048 C 
ATOM     49  H30 MOL d          53.285  20.235  -1.677  0.00  0.00     0.030 H 
ATOM     50  H31 MOL d          54.212  19.794  -3.151  0.00  0.00     0.030 H 
ATOM     51  H32 MOL d          55.071  20.424  -1.705  0.00  0.00     0.030 H 
ENDBRANCH  46  48
BRANCH  46  52
ATOM     52  C   MOL d          54.130  18.342  -0.001  0.00  0.00     0.196 C 
ATOM     53  O   MOL d          55.039  18.634   0.804  0.00  0.00    -0.646 OA
ATOM     54  OXT MOL d          53.001  18.112   0.566  0.00  0.00    -0.646 OA
ENDBRANCH  46  52
ENDBRANCH  44  46
ENDBRANCH  27  42
ENDBRANCH  25  27
ENDBRANCH  22  25
ENDBRANCH   1  22
BRANCH   1  55
ATOM     55  CB  MOL d          50.276  16.773  -7.012  0.00  0.00    -0.011 C 
ATOM     56  H10 MOL d          50.265  16.167  -6.095  0.00  0.00     0.044 H 
ATOM     57  H11 MOL d          50.996  16.346  -7.725  0.00  0.00     0.044 H 
BRANCH  55  58
ATOM     58  CG  MOL d          48.893  16.824  -7.627  0.00  0.00    -0.056 A 
ATOM     59  CD1 MOL d          48.830  16.887  -9.025  0.00  0.00    -0.077 A 
ATOM     60  CE1 MOL d          47.592  16.916  -9.679  0.00  0.00    -0.082 A 
ATOM     61  H12 MOL d          49.746  16.914  -9.605  0.00  0.00     0.084 H 
ATOM     62  CZ  MOL d          46.436  16.872  -8.909  0.00  0.00    -0.083 A 
ATOM     63  H14 MOL d          47.536  16.971 -10.760  0.00  0.00     0.083 H 
ATOM     64  CE2 MOL d          46.511  16.781  -7.488  0.00  0.00    -0.082 A 
ATOM     65  H16 MOL d          45.467  16.907  -9.393  0.00  0.00     0.083 H 
ATOM     66  CD2 MOL d          47.762  16.743  -6.854  0.00  0.00    -0.077 A 
ATOM     67  H15 MOL d          45.603  16.742  -6.898  0.00  0.00     0.083 H 
ATOM     68  H13 MOL d          47.833  16.652  -5.777  0.00  0.00     0.084 H 
ENDBRANCH  55  58
ENDBRANCH   1  55
TORSDOF 17
ENDMDL
MODEL 3
REMARK VINA RESULT:      -7.9      2.366      9.507
REMARK  17 active torsions:
REMARK  status: ('A' for Active; 'I' for Inactive)
REMARK    1  A    between atoms: C_1  and  OA_3 
REMARK       I    between atoms: N_11  and  C_1 
REMARK    2  A    between atoms: OA_3  and  CB_4 
REMARK    3  A    between atoms: CB_4  and  CG_5 
REMARK    4  A    between atoms: CA_12  and  N_11 
REMARK    5  A    between atoms: P_13  and  CA_12 
REMARK    6  A    between atoms: CA_12  and  CB_16 
REMARK    7  A    between atoms: P_13  and  N_23 
REMARK    8  A    between atoms: CB_16  and  CG_17 
REMARK    9  A    between atoms: N_23  and  CA_24 
REMARK   10  A    between atoms: CA_24  and  CB_27 
REMARK   11  A    between atoms: CA_24  and  C_25 
REMARK       I    between atoms: C_25  and  N_31 
REMARK   12  A    between atoms: CB_27  and  CG_28 
REMARK   13  A    between atoms: CG_28  and  CD1_29 
REMARK   14  A    between atoms: CG_28  and  CD2_30 
REMARK   15  A    between atoms: N_31  and  CA_32 
REMARK   16  A    between atoms: CA_32  and  CB_35 
REMARK   17  A    between atoms: CA_32  and  C_33 
ROOT
ATOM      1  CA  MOL d          50.440  18.938  -8.090  0.00  0.00     0.112 C 
ATOM      2  H9  MOL d          51.057  18.220  -8.650  0.00  0.00     0.092 H 
ENDROOT
BRANCH   1   3
ATOM      3  N   MOL d          51.015  19.272  -6.756  0.00  0.00    -0.321 N 
ATOM      4  C   MOL d          51.594  18.337  -5.989  0.00  0.00     0.361 C 
ATOM      5  O   MOL d          51.656  17.086  -6.244  0.00  0.00    -0.238 OA
ATOM      6  H8  MOL d          50.968  20.215  -6.426  0.00  0.00     0.165 HD
BRANCH   4   7
ATOM      7  OA  MOL d          52.156  18.980  -4.906  0.00  0.00    -0.299 OA
BRANCH   7   8
ATOM      8  CB  MOL d          53.471  18.633  -4.444  0.00  0.00     0.054 C 
ATOM      9  H1  MOL d          54.218  19.376  -4.764  0.00  0.00     0.082 H 
ATOM     10  H2  MOL d          53.771  17.636  -4.799  0.00  0.00     0.082 H 
BRANCH   8  11
ATOM     11  CG  MOL d          53.287  18.651  -2.969  0.00  0.00    -0.034 A 
ATOM     12  CD1 MOL d          52.313  18.011  -2.194  0.00  0.00    -0.075 A 
ATOM     13  CE1 MOL d          52.273  18.065  -0.776  0.00  0.00    -0.082 A 
ATOM     14  H3  MOL d          51.545  17.442  -2.706  0.00  0.00     0.084 H 
ATOM     15  CZ  MOL d          53.192  18.703  -0.058  0.00  0.00    -0.083 A 
ATOM     16  H5  MOL d          51.461  17.567  -0.259  0.00  0.00     0.083 H 
ATOM     17  CE2 MOL d          54.074  19.298  -0.867  0.00  0.00    -0.082 A 
ATOM     18  H7  MOL d          53.221  18.736   1.025  0.00  0.00     0.083 H 
ATOM     19  CD2 MOL d          54.217  19.317  -2.269  0.00  0.00    -0.075 A 
ATOM     20  H6  MOL d          54.825  19.878  -0.343  0.00  0.00     0.083 H 
ATOM     21  H4  MOL d          55.033  19.840  -2.755  0.00  0.00     0.084 H 
ENDBRANCH   8  11
ENDBRANCH   7   8
ENDBRANCH   4   7
ENDBRANCH   1   3
BRANCH   1  22
ATOM     22  P   MOL d          50.300  20.374  -8.896  0.00  0.00     0.229 P 
ATOM     23  OP1 MOL d          50.195  21.594  -7.903  0.00  0.00    -0.650 OA
ATOM     24  OP2 MOL d          51.438  20.576  -9.981  0.00  0.00    -0.650 OA
BRANCH  22  25
ATOM     25  N   MOL d          48.695  20.078  -9.866  0.00  0.00    -0.334 N 
ATOM     26  H17 MOL d          47.791  20.226  -9.465  0.00  0.00     0.164 HD
BRANCH  25  27
ATOM     27  CA  MOL d          48.878  19.616 -11.249  0.00  0.00     0.091 C 
ATOM     28  H18 MOL d          49.846  19.095 -11.279  0.00  0.00     0.087 H 
BRANCH  27  29
ATOM     29  CB  MOL d          47.788  18.632 -11.692  0.00  0.00    -0.035 C 
ATOM     30  H19 MOL d          47.274  19.053 -12.568  0.00  0.00     0.037 H 
ATOM     31  H20 MOL d          47.070  18.513 -10.868  0.00  0.00     0.037 H 
BRANCH  29  32
ATOM     32  CG  MOL d          48.323  17.268 -12.062  0.00  0.00    -0.059 C 
ATOM     33  H21 MOL d          49.285  17.059 -11.571  0.00  0.00     0.038 H 
BRANCH  32  34
ATOM     34  CD1 MOL d          47.314  16.173 -11.671  0.00  0.00    -0.073 C 
ATOM     35  H22 MOL d          46.784  15.825 -12.569  0.00  0.00     0.028 H 
ATOM     36  H23 MOL d          46.589  16.581 -10.952  0.00  0.00     0.028 H 
ATOM     37  H24 MOL d          47.849  15.328 -11.212  0.00  0.00     0.028 H 
ENDBRANCH  32  34
BRANCH  32  38
ATOM     38  CD2 MOL d          48.505  17.453 -13.553  0.00  0.00    -0.073 C 
ATOM     39  H25 MOL d          49.129  18.340 -13.738  0.00  0.00     0.028 H 
ATOM     40  H26 MOL d          47.523  17.591 -14.029  0.00  0.00     0.028 H 
ATOM     41  H27 MOL d          48.996  16.564 -13.975  0.00  0.00     0.028 H 
ENDBRANCH  32  38
ENDBRANCH  29  32
ENDBRANCH  27  29
BRANCH  27  42
ATOM     42  C   MOL d          48.911  20.725 -12.313  0.00  0.00     0.241 C 
ATOM     43  O   MOL d          47.870  21.234 -12.746  0.00  0.00    -0.271 OA
ATOM     44  N   MOL d          50.109  21.143 -12.671  0.00  0.00    -0.345 N 
ATOM     45  H28 MOL d          50.897  20.684 -12.259  0.00  0.00     0.163 HD
BRANCH  44  46
ATOM     46  CA  MOL d          50.383  22.232 -13.630  0.00  0.00     0.093 C 
ATOM     47  H29 MOL d          50.056  21.920 -14.633  0.00  0.00     0.089 H 
BRANCH  46  48
ATOM     48  CB  MOL d          49.589  23.454 -13.205  0.00  0.00    -0.048 C 
ATOM     49  H30 MOL d          49.974  24.341 -13.729  0.00  0.00     0.030 H 
ATOM     50  H31 MOL d          49.688  23.597 -12.119  0.00  0.00     0.030 H 
ATOM     51  H32 MOL d          48.528  23.309 -13.460  0.00  0.00     0.030 H 
ENDBRANCH  46  48
BRANCH  46  52
ATOM     52  C   MOL d          51.898  22.553 -13.677  0.00  0.00     0.196 C 
ATOM     53  O   MOL d          52.526  22.807 -12.629  0.00  0.00    -0.646 OA
ATOM     54  OXT MOL d          52.647  22.492 -14.719  0.00  0.00    -0.646 OA
ENDBRANCH  46  52
ENDBRANCH  44  46
ENDBRANCH  27  42
ENDBRANCH  25  27
ENDBRANCH  22  25
ENDBRANCH   1  22
BRANCH   1  55
ATOM     55  CB  MOL d          49.090  18.385  -7.777  0.00  0.00    -0.011 C 
ATOM     56  H10 MOL d          48.314  18.939  -8.325  0.00  0.00     0.044 H 
ATOM     57  H11 MOL d          48.892  18.448  -6.698  0.00  0.00     0.044 H 
BRANCH  55  58
ATOM     58  CG  MOL d          49.119  16.937  -8.224  0.00  0.00    -0.056 A 
ATOM     59  CD1 MOL d          50.117  16.584  -9.141  0.00  0.00    -0.077 A 
ATOM     60  CE1 MOL d          50.230  15.262  -9.591  0.00  0.00    -0.082 A 
ATOM     61  H12 MOL d          50.806  17.337  -9.506  0.00  0.00     0.084 H 
ATOM     62  CZ  MOL d          49.337  14.317  -9.100  0.00  0.00    -0.083 A 
ATOM     63  H14 MOL d          50.996  14.984 -10.306  0.00  0.00     0.083 H 
ATOM     64  CE2 MOL d          48.343  14.682  -8.147  0.00  0.00    -0.082 A 
ATOM     65  H16 MOL d          49.398  13.292  -9.445  0.00  0.00     0.083 H 
ATOM     66  CD2 MOL d          48.254  16.009  -7.701  0.00  0.00    -0.077 A 
ATOM     67  H15 MOL d          47.656  13.935  -7.767  0.00  0.00     0.083 H 
ATOM     68  H13 MOL d          47.516  16.295  -6.960  0.00  0.00     0.084 H 
ENDBRANCH  55  58
ENDBRANCH   1  55
TORSDOF 17
ENDMDL
MODEL 4
REMARK VINA RESULT:      -7.2      1.887      3.708
REMARK  17 active torsions:
REMARK  status: ('A' for Active; 'I' for Inactive)
REMARK    1  A    between atoms: C_1  and  OA_3 
REMARK       I    between atoms: N_11  and  C_1 
REMARK    2  A    between atoms: OA_3  and  CB_4 
REMARK    3  A    between atoms: CB_4  and  CG_5 
REMARK    4  A    between atoms: CA_12  and  N_11 
REMARK    5  A    between atoms: P_13  and  CA_12 
REMARK    6  A    between atoms: CA_12  and  CB_16 
REMARK    7  A    between atoms: P_13  and  N_23 
REMARK    8  A    between atoms: CB_16  and  CG_17 
REMARK    9  A    between atoms: N_23  and  CA_24 
REMARK   10  A    between atoms: CA_24  and  CB_27 
REMARK   11  A    between atoms: CA_24  and  C_25 
REMARK       I    between atoms: C_25  and  N_31 
REMARK   12  A    between atoms: CB_27  and  CG_28 
REMARK   13  A    between atoms: CG_28  and  CD1_29 
REMARK   14  A    between atoms: CG_28  and  CD2_30 
REMARK   15  A    between atoms: N_31  and  CA_32 
REMARK   16  A    between atoms: CA_32  and  CB_35 
REMARK   17  A    between atoms: CA_32  and  C_33 
ROOT
ATOM      1  CA  MOL d          49.467  17.639  -7.326  0.00  0.00     0.112 C 
ATOM      2  H9  MOL d          49.502  18.250  -6.412  0.00  0.00     0.092 H 
ENDROOT
BRANCH   1   3
ATOM      3  N   MOL d          49.678  18.442  -8.562  0.00  0.00    -0.321 N 
ATOM      4  C   MOL d          50.433  19.551  -8.558  0.00  0.00     0.361 C 
ATOM      5  O   MOL d          50.976  20.087  -7.532  0.00  0.00    -0.238 OA
ATOM      6  H8  MOL d          49.247  18.148  -9.415  0.00  0.00     0.165 HD
BRANCH   4   7
ATOM      7  OA  MOL d          50.558  19.972  -9.865  0.00  0.00    -0.299 OA
BRANCH   7   8
ATOM      8  CB  MOL d          51.039  21.290 -10.171  0.00  0.00     0.054 C 
ATOM      9  H1  MOL d          52.095  21.408  -9.886  0.00  0.00     0.082 H 
ATOM     10  H2  MOL d          50.436  22.064  -9.673  0.00  0.00     0.082 H 
BRANCH   8  11
ATOM     11  CG  MOL d          50.868  21.338 -11.648  0.00  0.00    -0.034 A 
ATOM     12  CD1 MOL d          49.989  20.610 -12.457  0.00  0.00    -0.075 A 
ATOM     13  CE1 MOL d          49.885  20.784 -13.862  0.00  0.00    -0.082 A 
ATOM     14  H3  MOL d          49.351  19.871 -11.984  0.00  0.00     0.084 H 
ATOM     15  CZ  MOL d          50.593  21.691 -14.526  0.00  0.00    -0.083 A 
ATOM     16  H5  MOL d          49.199  20.152 -14.416  0.00  0.00     0.083 H 
ATOM     17  CE2 MOL d          51.416  22.331 -13.689  0.00  0.00    -0.082 A 
ATOM     18  H7  MOL d          50.516  21.883 -15.590  0.00  0.00     0.083 H 
ATOM     19  CD2 MOL d          51.609  22.249 -12.295  0.00  0.00    -0.075 A 
ATOM     20  H6  MOL d          52.061  23.054 -14.177  0.00  0.00     0.083 H 
ATOM     21  H4  MOL d          52.315  22.886 -11.775  0.00  0.00     0.084 H 
ENDBRANCH   8  11
ENDBRANCH   7   8
ENDBRANCH   4   7
ENDBRANCH   1   3
BRANCH   1  22
ATOM     22  P   MOL d          50.649  16.485  -7.327  0.00  0.00     0.229 P 
ATOM     23  OP1 MOL d          50.179  15.165  -6.604  0.00  0.00    -0.650 OA
ATOM     24  OP2 MOL d          51.223  16.204  -8.779  0.00  0.00    -0.650 OA
BRANCH  22  25
ATOM     25  N   MOL d          52.026  17.388  -6.383  0.00  0.00    -0.334 N 
ATOM     26  H17 MOL d          52.656  18.022  -6.830  0.00  0.00     0.164 HD
BRANCH  25  27
ATOM     27  CA  MOL d          52.097  17.088  -4.946  0.00  0.00     0.091 C 
ATOM     28  H18 MOL d          51.100  16.726  -4.652  0.00  0.00     0.087 H 
BRANCH  27  29
ATOM     29  CB  MOL d          53.120  15.992  -4.622  0.00  0.00    -0.035 C 
ATOM     30  H19 MOL d          53.756  16.342  -3.796  0.00  0.00     0.037 H 
ATOM     31  H20 MOL d          53.740  15.819  -5.513  0.00  0.00     0.037 H 
BRANCH  29  32
ATOM     32  CG  MOL d          52.489  14.680  -4.215  0.00  0.00    -0.059 C 
ATOM     33  H21 MOL d          51.391  14.726  -4.254  0.00  0.00     0.038 H 
BRANCH  32  34
ATOM     34  CD1 MOL d          52.976  13.544  -5.133  0.00  0.00    -0.073 C 
ATOM     35  H22 MOL d          52.172  12.804  -5.258  0.00  0.00     0.028 H 
ATOM     36  H23 MOL d          53.855  13.060  -4.683  0.00  0.00     0.028 H 
ATOM     37  H24 MOL d          53.249  13.957  -6.115  0.00  0.00     0.028 H 
ENDBRANCH  32  34
BRANCH  32  38
ATOM     38  CD2 MOL d          52.976  14.587  -2.785  0.00  0.00    -0.073 C 
ATOM     39  H25 MOL d          52.343  15.214  -2.141  0.00  0.00     0.028 H 
ATOM     40  H26 MOL d          54.017  14.939  -2.728  0.00  0.00     0.028 H 
ATOM     41  H27 MOL d          52.923  13.542  -2.447  0.00  0.00     0.028 H 
ENDBRANCH  32  38
ENDBRANCH  29  32
ENDBRANCH  27  29
BRANCH  27  42
ATOM     42  C   MOL d          52.448  18.280  -4.042  0.00  0.00     0.241 C 
ATOM     43  O   MOL d          52.575  19.422  -4.501  0.00  0.00    -0.271 OA
ATOM     44  N   MOL d          52.527  18.019  -2.752  0.00  0.00    -0.345 N 
ATOM     45  H28 MOL d          52.395  17.070  -2.466  0.00  0.00     0.163 HD
BRANCH  44  46
ATOM     46  CA  MOL d          52.794  19.015  -1.694  0.00  0.00     0.093 C 
ATOM     47  H29 MOL d          52.284  19.956  -1.947  0.00  0.00     0.089 H 
BRANCH  46  48
ATOM     48  CB  MOL d          52.236  18.484  -0.386  0.00  0.00    -0.048 C 
ATOM     49  H30 MOL d          52.867  18.827   0.447  0.00  0.00     0.030 H 
ATOM     50  H31 MOL d          52.226  17.385  -0.410  0.00  0.00     0.030 H 
ATOM     51  H32 MOL d          51.210  18.857  -0.246  0.00  0.00     0.030 H 
ENDBRANCH  46  48
BRANCH  46  52
ATOM     52  C   MOL d          54.313  19.290  -1.570  0.00  0.00     0.196 C 
ATOM     53  O   MOL d          55.145  18.422  -1.908  0.00  0.00    -0.646 OA
ATOM     54  OXT MOL d          54.851  20.406  -1.230  0.00  0.00    -0.646 OA
ENDBRANCH  46  52
ENDBRANCH  44  46
ENDBRANCH  27  42
ENDBRANCH  25  27
ENDBRANCH  22  25
ENDBRANCH   1  22
BRANCH   1  55
ATOM     55  CB  MOL d          48.128  17.010  -7.522  0.00  0.00    -0.011 C 
ATOM     56  H10 MOL d          47.395  17.448  -6.829  0.00  0.00     0.044 H 
ATOM     57  H11 MOL d          48.187  15.925  -7.354  0.00  0.00     0.044 H 
BRANCH  55  58
ATOM     58  CG  MOL d          47.736  17.301  -8.956  0.00  0.00    -0.056 A 
ATOM     59  CD1 MOL d          48.076  16.331  -9.908  0.00  0.00    -0.077 A 
ATOM     60  CE1 MOL d          47.733  16.508 -11.255  0.00  0.00    -0.082 A 
ATOM     61  H12 MOL d          48.608  15.437  -9.601  0.00  0.00     0.084 H 
ATOM     62  CZ  MOL d          47.045  17.659 -11.616  0.00  0.00    -0.083 A 
ATOM     63  H14 MOL d          47.999  15.764 -11.997  0.00  0.00     0.083 H 
ATOM     64  CE2 MOL d          46.681  18.628 -10.635  0.00  0.00    -0.082 A 
ATOM     65  H16 MOL d          46.782  17.824 -12.655  0.00  0.00     0.083 H 
ATOM     66  CD2 MOL d          47.025  18.425  -9.291  0.00  0.00    -0.077 A 
ATOM     67  H15 MOL d          46.139  19.519 -10.929  0.00  0.00     0.083 H 
ATOM     68  H13 MOL d          46.735  19.143  -8.532  0.00  0.00     0.084 H 
ENDBRANCH  55  58
ENDBRANCH   1  55
TORSDOF 17
ENDMDL
MODEL 5
REMARK VINA RESULT:      -6.8      3.135      8.677
REMARK  17 active torsions:
REMARK  status: ('A' for Active; 'I' for Inactive)
REMARK    1  A    between atoms: C_1  and  OA_3 
REMARK       I    between atoms: N_11  and  C_1 
REMARK    2  A    between atoms: OA_3  and  CB_4 
REMARK    3  A    between atoms: CB_4  and  CG_5 
REMARK    4  A    between atoms: CA_12  and  N_11 
REMARK    5  A    between atoms: P_13  and  CA_12 
REMARK    6  A    between atoms: CA_12  and  CB_16 
REMARK    7  A    between atoms: P_13  and  N_23 
REMARK    8  A    between atoms: CB_16  and  CG_17 
REMARK    9  A    between atoms: N_23  and  CA_24 
REMARK   10  A    between atoms: CA_24  and  CB_27 
REMARK   11  A    between atoms: CA_24  and  C_25 
REMARK       I    between atoms: C_25  and  N_31 
REMARK   12  A    between atoms: CB_27  and  CG_28 
REMARK   13  A    between atoms: CG_28  and  CD1_29 
REMARK   14  A    between atoms: CG_28  and  CD2_30 
REMARK   15  A    between atoms: N_31  and  CA_32 
REMARK   16  A    between atoms: CA_32  and  CB_35 
REMARK   17  A    between atoms: CA_32  and  C_33 
ROOT
ATOM      1  CA  MOL d          49.251  19.988 -10.320  0.00  0.00     0.112 C 
ATOM      2  H9  MOL d          48.906  21.031 -10.273  0.00  0.00     0.092 H 
ENDROOT
BRANCH   1   3
ATOM      3  N   MOL d          50.002  19.575  -9.102  0.00  0.00    -0.321 N 
ATOM      4  C   MOL d          50.329  20.459  -8.147  0.00  0.00     0.361 C 
ATOM      5  O   MOL d          50.124  21.720  -8.188  0.00  0.00    -0.238 OA
ATOM      6  H8  MOL d          50.269  18.618  -8.994  0.00  0.00     0.165 HD
BRANCH   4   7
ATOM      7  OA  MOL d          50.873  19.751  -7.097  0.00  0.00    -0.299 OA
BRANCH   7   8
ATOM      8  CB  MOL d          50.628  18.342  -6.954  0.00  0.00     0.054 C 
ATOM      9  H1  MOL d          50.851  17.800  -7.884  0.00  0.00     0.082 H 
ATOM     10  H2  MOL d          49.589  18.143  -6.653  0.00  0.00     0.082 H 
BRANCH   8  11
ATOM     11  CG  MOL d          51.583  17.979  -5.873  0.00  0.00    -0.034 A 
ATOM     12  CD1 MOL d          51.923  16.713  -5.385  0.00  0.00    -0.075 A 
ATOM     13  CE1 MOL d          52.896  16.493  -4.375  0.00  0.00    -0.082 A 
ATOM     14  H3  MOL d          51.415  15.850  -5.803  0.00  0.00     0.084 H 
ATOM     15  CZ  MOL d          53.599  17.480  -3.831  0.00  0.00    -0.083 A 
ATOM     16  H5  MOL d          53.071  15.479  -4.033  0.00  0.00     0.083 H 
ATOM     17  CE2 MOL d          53.207  18.654  -4.335  0.00  0.00    -0.082 A 
ATOM     18  H7  MOL d          54.377  17.352  -3.086  0.00  0.00     0.083 H 
ATOM     19  CD2 MOL d          52.266  18.996  -5.328  0.00  0.00    -0.075 A 
ATOM     20  H6  MOL d          53.710  19.509  -3.896  0.00  0.00     0.083 H 
ATOM     21  H4  MOL d          52.104  20.024  -5.634  0.00  0.00     0.084 H 
ENDBRANCH   8  11
ENDBRANCH   7   8
ENDBRANCH   4   7
ENDBRANCH   1   3
BRANCH   1  22
ATOM     22  P   MOL d          47.983  18.937 -10.449  0.00  0.00     0.229 P 
ATOM     23  OP1 MOL d          47.570  18.344  -9.048  0.00  0.00    -0.650 OA
ATOM     24  OP2 MOL d          46.749  19.563 -11.225  0.00  0.00    -0.650 OA
BRANCH  22  25
ATOM     25  N   MOL d          48.724  17.629 -11.609  0.00  0.00    -0.334 N 
ATOM     26  H17 MOL d          49.662  17.685 -11.950  0.00  0.00     0.164 HD
BRANCH  25  27
ATOM     27  CA  MOL d          47.818  16.529 -11.969  0.00  0.00     0.091 C 
ATOM     28  H18 MOL d          46.822  16.976 -12.104  0.00  0.00     0.087 H 
BRANCH  27  29
ATOM     29  CB  MOL d          48.218  15.841 -13.280  0.00  0.00    -0.035 C 
ATOM     30  H19 MOL d          47.753  14.845 -13.307  0.00  0.00     0.037 H 
ATOM     31  H20 MOL d          49.313  15.734 -13.299  0.00  0.00     0.037 H 
BRANCH  29  32
ATOM     32  CG  MOL d          47.790  16.601 -14.514  0.00  0.00    -0.059 C 
ATOM     33  H21 MOL d          47.647  15.933 -15.376  0.00  0.00     0.038 H 
BRANCH  32  34
ATOM     34  CD1 MOL d          46.478  17.361 -14.247  0.00  0.00    -0.073 C 
ATOM     35  H22 MOL d          46.314  17.439 -13.162  0.00  0.00     0.028 H 
ATOM     36  H23 MOL d          45.640  16.819 -14.707  0.00  0.00     0.028 H 
ATOM     37  H24 MOL d          46.544  18.370 -14.681  0.00  0.00     0.028 H 
ENDBRANCH  32  34
BRANCH  32  38
ATOM     38  CD2 MOL d          49.003  17.486 -14.710  0.00  0.00    -0.073 C 
ATOM     39  H25 MOL d          48.962  18.325 -14.000  0.00  0.00     0.028 H 
ATOM     40  H26 MOL d          49.009  17.877 -15.738  0.00  0.00     0.028 H 
ATOM     41  H27 MOL d          49.916  16.899 -14.535  0.00  0.00     0.028 H 
ENDBRANCH  32  38
ENDBRANCH  29  32
ENDBRANCH  27  29
BRANCH  27  42
ATOM     42  C   MOL d          47.693  15.411 -10.921  0.00  0.00     0.241 C 
ATOM     43  O   MOL d          46.931  14.452 -11.090  0.00  0.00    -0.271 OA
ATOM     44  N   MOL d          48.497  15.507  -9.881  0.00  0.00    -0.345 N 
ATOM     45  H28 MOL d          49.092  16.309  -9.832  0.00  0.00     0.163 HD
BRANCH  44  46
ATOM     46  CA  MOL d          48.592  14.524  -8.782  0.00  0.00     0.093 C 
ATOM     47  H29 MOL d          48.271  13.539  -9.150  0.00  0.00     0.089 H 
BRANCH  46  48
ATOM     48  CB  MOL d          50.042  14.441  -8.339  0.00  0.00    -0.048 C 
ATOM     49  H30 MOL d          50.700  14.598  -9.206  0.00  0.00     0.030 H 
ATOM     50  H31 MOL d          50.236  13.449  -7.905  0.00  0.00     0.030 H 
ATOM     51  H32 MOL d          50.239  15.216  -7.583  0.00  0.00     0.030 H 
ENDBRANCH  46  48
BRANCH  46  52
ATOM     52  C   MOL d          47.681  14.935  -7.599  0.00  0.00     0.196 C 
ATOM     53  O   MOL d          46.534  14.455  -7.485  0.00  0.00    -0.646 OA
ATOM     54  OXT MOL d          48.020  15.682  -6.611  0.00  0.00    -0.646 OA
ENDBRANCH  46  52
ENDBRANCH  44  46
ENDBRANCH  27  42
ENDBRANCH  25  27
ENDBRANCH  22  25
ENDBRANCH   1  22
BRANCH   1  55
ATOM     55  CB  MOL d          50.217  19.773 -11.436  0.00  0.00    -0.011 C 
ATOM     56  H10 MOL d          49.871  18.959 -12.090  0.00  0.00     0.044 H 
ATOM     57  H11 MOL d          51.212  19.525 -11.038  0.00  0.00     0.044 H 
BRANCH  55  58
ATOM     58  CG  MOL d          50.268  21.079 -12.203  0.00  0.00    -0.056 A 
ATOM     59  CD1 MOL d          50.878  22.162 -11.557  0.00  0.00    -0.077 A 
ATOM     60  CE1 MOL d          50.987  23.401 -12.201  0.00  0.00    -0.082 A 
ATOM     61  H12 MOL d          51.268  22.040 -10.553  0.00  0.00     0.084 H 
ATOM     62  CZ  MOL d          50.485  23.523 -13.490  0.00  0.00    -0.083 A 
ATOM     63  H14 MOL d          51.452  24.245 -11.704  0.00  0.00     0.083 H 
ATOM     64  CE2 MOL d          49.890  22.408 -14.148  0.00  0.00    -0.082 A 
ATOM     65  H16 MOL d          50.546  24.477 -14.002  0.00  0.00     0.083 H 
ATOM     66  CD2 MOL d          49.800  21.173 -13.490  0.00  0.00    -0.077 A 
ATOM     67  H15 MOL d          49.506  22.514 -15.157  0.00  0.00     0.083 H 
ATOM     68  H13 MOL d          49.370  20.311 -13.987  0.00  0.00     0.084 H 
ENDBRANCH  55  58
ENDBRANCH   1  55
TORSDOF 17
ENDMDL
MODEL 6
REMARK VINA RESULT:      -6.7      2.263      9.268
REMARK  17 active torsions:
REMARK  status: ('A' for Active; 'I' for Inactive)
REMARK    1  A    between atoms: C_1  and  OA_3 
REMARK       I    between atoms: N_11  and  C_1 
REMARK    2  A    between atoms: OA_3  and  CB_4 
REMARK    3  A    between atoms: CB_4  and  CG_5 
REMARK    4  A    between atoms: CA_12  and  N_11 
REMARK    5  A    between atoms: P_13  and  CA_12 
REMARK    6  A    between atoms: CA_12  and  CB_16 
REMARK    7  A    between atoms: P_13  and  N_23 
REMARK    8  A    between atoms: CB_16  and  CG_17 
REMARK    9  A    between atoms: N_23  and  CA_24 
REMARK   10  A    between atoms: CA_24  and  CB_27 
REMARK   11  A    between atoms: CA_24  and  C_25 
REMARK       I    between atoms: C_25  and  N_31 
REMARK   12  A    between atoms: CB_27  and  CG_28 
REMARK   13  A    between atoms: CG_28  and  CD1_29 
REMARK   14  A    between atoms: CG_28  and  CD2_30 
REMARK   15  A    between atoms: N_31  and  CA_32 
REMARK   16  A    between atoms: CA_32  and  CB_35 
REMARK   17  A    between atoms: CA_32  and  C_33 
ROOT
ATOM      1  CA  MOL d          51.001  17.359  -7.359  0.00  0.00     0.112 C 
ATOM      2  H9  MOL d          51.668  16.897  -8.102  0.00  0.00     0.092 H 
ENDROOT
BRANCH   1   3
ATOM      3  N   MOL d          51.668  17.577  -6.045  0.00  0.00    -0.321 N 
ATOM      4  C   MOL d          52.097  16.549  -5.297  0.00  0.00     0.361 C 
ATOM      5  O   MOL d          51.927  15.309  -5.555  0.00  0.00    -0.238 OA
ATOM      6  H8  MOL d          51.800  18.511  -5.714  0.00  0.00     0.165 HD
BRANCH   4   7
ATOM      7  OA  MOL d          52.798  17.076  -4.233  0.00  0.00    -0.299 OA
BRANCH   7   8
ATOM      8  CB  MOL d          52.828  18.494  -4.002  0.00  0.00     0.054 C 
ATOM      9  H1  MOL d          51.856  18.958  -4.222  0.00  0.00     0.082 H 
ATOM     10  H2  MOL d          53.612  18.982  -4.601  0.00  0.00     0.082 H 
BRANCH   8  11
ATOM     11  CG  MOL d          53.142  18.555  -2.549  0.00  0.00    -0.034 A 
ATOM     12  CD1 MOL d          52.377  18.116  -1.463  0.00  0.00    -0.075 A 
ATOM     13  CE1 MOL d          52.812  18.184  -0.113  0.00  0.00    -0.082 A 
ATOM     14  H3  MOL d          51.396  17.699  -1.663  0.00  0.00     0.084 H 
ATOM     15  CZ  MOL d          54.012  18.641   0.230  0.00  0.00    -0.083 A 
ATOM     16  H5  MOL d          52.139  17.851   0.669  0.00  0.00     0.083 H 
ATOM     17  CE2 MOL d          54.673  19.054  -0.857  0.00  0.00    -0.082 A 
ATOM     18  H7  MOL d          54.399  18.674   1.242  0.00  0.00     0.083 H 
ATOM     19  CD2 MOL d          54.351  19.037  -2.229  0.00  0.00    -0.075 A 
ATOM     20  H6  MOL d          55.644  19.485  -0.641  0.00  0.00     0.083 H 
ATOM     21  H4  MOL d          55.043  19.394  -2.984  0.00  0.00     0.084 H 
ENDBRANCH   8  11
ENDBRANCH   7   8
ENDBRANCH   4   7
ENDBRANCH   1   3
BRANCH   1  22
ATOM     22  P   MOL d          50.480  18.845  -7.856  0.00  0.00     0.229 P 
ATOM     23  OP1 MOL d          50.419  19.873  -6.663  0.00  0.00    -0.650 OA
ATOM     24  OP2 MOL d          51.310  19.401  -9.088  0.00  0.00    -0.650 OA
BRANCH  22  25
ATOM     25  N   MOL d          48.762  18.408  -8.535  0.00  0.00    -0.334 N 
ATOM     26  H17 MOL d          47.976  18.243  -7.940  0.00  0.00     0.164 HD
BRANCH  25  27
ATOM     27  CA  MOL d          48.670  18.332 -10.000  0.00  0.00     0.091 C 
ATOM     28  H18 MOL d          49.615  17.889 -10.349  0.00  0.00     0.087 H 
BRANCH  27  29
ATOM     29  CB  MOL d          47.517  17.438 -10.474  0.00  0.00    -0.035 C 
ATOM     30  H19 MOL d          46.989  17.954 -11.289  0.00  0.00     0.037 H 
ATOM     31  H20 MOL d          46.827  17.283  -9.631  0.00  0.00     0.037 H 
BRANCH  29  32
ATOM     32  CG  MOL d          47.969  16.087 -10.977  0.00  0.00    -0.059 C 
ATOM     33  H21 MOL d          48.661  15.600 -10.274  0.00  0.00     0.038 H 
BRANCH  32  34
ATOM     34  CD1 MOL d          46.757  15.166 -11.204  0.00  0.00    -0.073 C 
ATOM     35  H22 MOL d          45.830  15.728 -11.017  0.00  0.00     0.028 H 
ATOM     36  H23 MOL d          46.812  14.311 -10.515  0.00  0.00     0.028 H 
ATOM     37  H24 MOL d          46.762  14.802 -12.241  0.00  0.00     0.028 H 
ENDBRANCH  32  34
BRANCH  32  38
ATOM     38  CD2 MOL d          48.688  16.506 -12.241  0.00  0.00    -0.073 C 
ATOM     39  H25 MOL d          49.063  15.613 -12.762  0.00  0.00     0.028 H 
ATOM     40  H26 MOL d          49.533  17.161 -11.983  0.00  0.00     0.028 H 
ATOM     41  H27 MOL d          47.991  17.048 -12.897  0.00  0.00     0.028 H 
ENDBRANCH  32  38
ENDBRANCH  29  32
ENDBRANCH  27  29
BRANCH  27  42
ATOM     42  C   MOL d          48.490  19.679 -10.719  0.00  0.00     0.241 C 
ATOM     43  O   MOL d          47.394  20.250 -10.752  0.00  0.00    -0.271 OA
ATOM     44  N   MOL d          49.586  20.211 -11.223  0.00  0.00    -0.345 N 
ATOM     45  H28 MOL d          50.433  19.686 -11.139  0.00  0.00     0.163 HD
BRANCH  44  46
ATOM     46  CA  MOL d          49.664  21.519 -11.904  0.00  0.00     0.093 C 
ATOM     47  H29 MOL d          48.932  22.205 -11.453  0.00  0.00     0.089 H 
BRANCH  46  48
ATOM     48  CB  MOL d          51.060  22.080 -11.705  0.00  0.00    -0.048 C 
ATOM     49  H30 MOL d          51.066  22.745 -10.829  0.00  0.00     0.030 H 
ATOM     50  H31 MOL d          51.359  22.647 -12.599  0.00  0.00     0.030 H 
ATOM     51  H32 MOL d          51.768  21.253 -11.543  0.00  0.00     0.030 H 
ENDBRANCH  46  48
BRANCH  46  52
ATOM     52  C   MOL d          49.343  21.372 -13.413  0.00  0.00     0.196 C 
ATOM     53  O   MOL d          50.189  20.896 -14.198  0.00  0.00    -0.646 OA
ATOM     54  OXT MOL d          48.209  21.609 -13.968  0.00  0.00    -0.646 OA
ENDBRANCH  46  52
ENDBRANCH  44  46
ENDBRANCH  27  42
ENDBRANCH  25  27
ENDBRANCH  22  25
ENDBRANCH   1  22
BRANCH   1  55
ATOM     55  CB  MOL d          49.838  16.482  -7.037  0.00  0.00    -0.011 C 
ATOM     56  H10 MOL d          48.895  17.031  -7.179  0.00  0.00     0.044 H 
ATOM     57  H11 MOL d          49.902  16.129  -5.997  0.00  0.00     0.044 H 
BRANCH  55  58
ATOM     58  CG  MOL d          49.917  15.313  -7.997  0.00  0.00    -0.056 A 
ATOM     59  CD1 MOL d          48.930  14.327  -7.867  0.00  0.00    -0.077 A 
ATOM     60  CE1 MOL d          48.915  13.222  -8.727  0.00  0.00    -0.082 A 
ATOM     61  H12 MOL d          48.173  14.420  -7.096  0.00  0.00     0.084 H 
ATOM     62  CZ  MOL d          49.893  13.135  -9.710  0.00  0.00    -0.083 A 
ATOM     63  H14 MOL d          48.158  12.453  -8.628  0.00  0.00     0.083 H 
ATOM     64  CE2 MOL d          50.877  14.157  -9.850  0.00  0.00    -0.082 A 
ATOM     65  H16 MOL d          49.908  12.281 -10.378  0.00  0.00     0.083 H 
ATOM     66  CD2 MOL d          50.867  15.261  -8.985  0.00  0.00    -0.077 A 
ATOM     67  H15 MOL d          51.631  14.081 -10.625  0.00  0.00     0.083 H 
ATOM     68  H13 MOL d          51.596  16.056  -9.095  0.00  0.00     0.084 H 
ENDBRANCH  55  58
ENDBRANCH   1  55
TORSDOF 17
ENDMDL
MODEL 7
REMARK VINA RESULT:      -6.5      2.327      7.431
REMARK  17 active torsions:
REMARK  status: ('A' for Active; 'I' for Inactive)
REMARK    1  A    between atoms: C_1  and  OA_3 
REMARK       I    between atoms: N_11  and  C_1 
REMARK    2  A    between atoms: OA_3  and  CB_4 
REMARK    3  A    between atoms: CB_4  and  CG_5 
REMARK    4  A    between atoms: CA_12  and  N_11 
REMARK    5  A    between atoms: P_13  and  CA_12 
REMARK    6  A    between atoms: CA_12  and  CB_16 
REMARK    7  A    between atoms: P_13  and  N_23 
REMARK    8  A    between atoms: CB_16  and  CG_17 
REMARK    9  A    between atoms: N_23  and  CA_24 
REMARK   10  A    between atoms: CA_24  and  CB_27 
REMARK   11  A    between atoms: CA_24  and  C_25 
REMARK       I    between atoms: C_25  and  N_31 
REMARK   12  A    between atoms: CB_27  and  CG_28 
REMARK   13  A    between atoms: CG_28  and  CD1_29 
REMARK   14  A    between atoms: CG_28  and  CD2_30 
REMARK   15  A    between atoms: N_31  and  CA_32 
REMARK   16  A    between atoms: CA_32  and  CB_35 
REMARK   17  A    between atoms: CA_32  and  C_33 
ROOT
ATOM      1  CA  MOL d          49.790  18.455  -7.430  0.00  0.00     0.112 C 
ATOM      2  H9  MOL d          49.063  19.270  -7.562  0.00  0.00     0.092 H 
ENDROOT
BRANCH   1   3
ATOM      3  N   MOL d          50.492  18.519  -6.117  0.00  0.00    -0.321 N 
ATOM      4  C   MOL d          51.799  18.811  -6.035  0.00  0.00     0.361 C 
ATOM      5  O   MOL d          52.595  18.983  -7.021  0.00  0.00    -0.238 OA
ATOM      6  H8  MOL d          49.978  18.340  -5.279  0.00  0.00     0.165 HD
BRANCH   4   7
ATOM      7  OA  MOL d          52.110  18.944  -4.698  0.00  0.00    -0.299 OA
BRANCH   7   8
ATOM      8  CB  MOL d          53.464  18.799  -4.239  0.00  0.00     0.054 C 
ATOM      9  H1  MOL d          54.080  19.662  -4.528  0.00  0.00     0.082 H 
ATOM     10  H2  MOL d          53.921  17.876  -4.625  0.00  0.00     0.082 H 
BRANCH   8  11
ATOM     11  CG  MOL d          53.276  18.735  -2.765  0.00  0.00    -0.034 A 
ATOM     12  CD1 MOL d          52.157  18.317  -2.036  0.00  0.00    -0.075 A 
ATOM     13  CE1 MOL d          52.120  18.254  -0.618  0.00  0.00    -0.082 A 
ATOM     14  H3  MOL d          51.269  18.024  -2.585  0.00  0.00     0.084 H 
ATOM     15  CZ  MOL d          53.169  18.554   0.140  0.00  0.00    -0.083 A 
ATOM     16  H5  MOL d          51.198  17.950  -0.134  0.00  0.00     0.083 H 
ATOM     17  CE2 MOL d          54.188  18.957  -0.626  0.00  0.00    -0.082 A 
ATOM     18  H7  MOL d          53.196  18.482   1.221  0.00  0.00     0.083 H 
ATOM     19  CD2 MOL d          54.344  19.060  -2.023  0.00  0.00    -0.075 A 
ATOM     20  H6  MOL d          55.063  19.264  -0.064  0.00  0.00     0.083 H 
ATOM     21  H4  MOL d          55.276  19.384  -2.473  0.00  0.00     0.084 H 
ENDBRANCH   8  11
ENDBRANCH   7   8
ENDBRANCH   4   7
ENDBRANCH   1   3
BRANCH   1  22
ATOM     22  P   MOL d          49.056  16.976  -7.480  0.00  0.00     0.229 P 
ATOM     23  OP1 MOL d          48.319  16.642  -6.128  0.00  0.00    -0.650 OA
ATOM     24  OP2 MOL d          48.108  16.810  -8.740  0.00  0.00    -0.650 OA
BRANCH  22  25
ATOM     25  N   MOL d          50.552  15.850  -7.797  0.00  0.00    -0.334 N 
ATOM     26  H17 MOL d          51.423  16.200  -8.140  0.00  0.00     0.164 HD
BRANCH  25  27
ATOM     27  CA  MOL d          50.336  14.427  -7.501  0.00  0.00     0.091 C 
ATOM     28  H18 MOL d          49.389  14.364  -6.945  0.00  0.00     0.087 H 
BRANCH  27  29
ATOM     29  CB  MOL d          50.207  13.573  -8.769  0.00  0.00    -0.035 C 
ATOM     30  H19 MOL d          51.006  12.817  -8.762  0.00  0.00     0.037 H 
ATOM     31  H20 MOL d          50.330  14.228  -9.644  0.00  0.00     0.037 H 
BRANCH  29  32
ATOM     32  CG  MOL d          48.878  12.864  -8.884  0.00  0.00    -0.059 C 
ATOM     33  H21 MOL d          49.003  11.775  -8.974  0.00  0.00     0.038 H 
BRANCH  32  34
ATOM     34  CD1 MOL d          48.000  13.168  -7.657  0.00  0.00    -0.073 C 
ATOM     35  H22 MOL d          48.523  12.850  -6.744  0.00  0.00     0.028 H 
ATOM     36  H23 MOL d          47.048  12.623  -7.743  0.00  0.00     0.028 H 
ATOM     37  H24 MOL d          47.800  14.248  -7.607  0.00  0.00     0.028 H 
ENDBRANCH  32  34
BRANCH  32  38
ATOM     38  CD2 MOL d          48.375  13.459 -10.182  0.00  0.00    -0.073 C 
ATOM     39  H25 MOL d          47.497  12.894 -10.528  0.00  0.00     0.028 H 
ATOM     40  H26 MOL d          49.168  13.404 -10.942  0.00  0.00     0.028 H 
ATOM     41  H27 MOL d          48.096  14.510 -10.019  0.00  0.00     0.028 H 
ENDBRANCH  32  38
ENDBRANCH  29  32
ENDBRANCH  27  29
BRANCH  27  42
ATOM     42  C   MOL d          51.426  13.761  -6.646  0.00  0.00     0.241 C 
ATOM     43  O   MOL d          51.947  12.691  -6.984  0.00  0.00    -0.271 OA
ATOM     44  N   MOL d          51.816  14.437  -5.584  0.00  0.00    -0.345 N 
ATOM     45  H28 MOL d          51.350  15.301  -5.393  0.00  0.00     0.163 HD
BRANCH  44  46
ATOM     46  CA  MOL d          52.884  14.022  -4.652  0.00  0.00     0.093 C 
ATOM     47  H29 MOL d          53.652  13.465  -5.208  0.00  0.00     0.089 H 
BRANCH  46  48
ATOM     48  CB  MOL d          53.508  15.269  -4.054  0.00  0.00    -0.048 C 
ATOM     49  H30 MOL d          52.775  16.089  -4.065  0.00  0.00     0.030 H 
ATOM     50  H31 MOL d          54.390  15.558  -4.645  0.00  0.00     0.030 H 
ATOM     51  H32 MOL d          53.814  15.066  -3.017  0.00  0.00     0.030 H 
ENDBRANCH  46  48
BRANCH  46  52
ATOM     52  C   MOL d          52.315  13.107  -3.538  0.00  0.00     0.196 C 
ATOM     53  O   MOL d          52.996  12.841  -2.526  0.00  0.00    -0.646 OA
ATOM     54  OXT MOL d          51.120  12.640  -3.486  0.00  0.00    -0.646 OA
ENDBRANCH  46  52
ENDBRANCH  44  46
ENDBRANCH  27  42
ENDBRANCH  25  27
ENDBRANCH  22  25
ENDBRANCH   1  22
BRANCH   1  55
ATOM     55  CB  MOL d          50.889  18.523  -8.436  0.00  0.00    -0.011 C 
ATOM     56  H10 MOL d          51.063  17.532  -8.880  0.00  0.00     0.044 H 
ATOM     57  H11 MOL d          51.817  18.881  -7.965  0.00  0.00     0.044 H 
BRANCH  55  58
ATOM     58  CG  MOL d          50.426  19.501  -9.496  0.00  0.00    -0.056 A 
ATOM     59  CD1 MOL d          50.970  20.790  -9.441  0.00  0.00    -0.077 A 
ATOM     60  CE1 MOL d          50.613  21.752 -10.395  0.00  0.00    -0.082 A 
ATOM     61  H12 MOL d          51.672  21.046  -8.656  0.00  0.00     0.084 H 
ATOM     62  CZ  MOL d          49.717  21.391 -11.394  0.00  0.00    -0.083 A 
ATOM     63  H14 MOL d          51.026  22.753 -10.354  0.00  0.00     0.083 H 
ATOM     64  CE2 MOL d          49.189  20.069 -11.457  0.00  0.00    -0.082 A 
ATOM     65  H16 MOL d          49.416  22.124 -12.135  0.00  0.00     0.083 H 
ATOM     66  CD2 MOL d          49.568  19.118 -10.497  0.00  0.00    -0.077 A 
ATOM     67  H15 MOL d          48.496  19.798 -12.244  0.00  0.00     0.083 H 
ATOM     68  H13 MOL d          49.192  18.103 -10.546  0.00  0.00     0.084 H 
ENDBRANCH  55  58
ENDBRANCH   1  55
TORSDOF 17
ENDMDL
MODEL 8
REMARK VINA RESULT:      -5.8      2.398      9.250
REMARK  17 active torsions:
REMARK  status: ('A' for Active; 'I' for Inactive)
REMARK    1  A    between atoms: C_1  and  OA_3 
REMARK       I    between atoms: N_11  and  C_1 
REMARK    2  A    between atoms: OA_3  and  CB_4 
REMARK    3  A    between atoms: CB_4  and  CG_5 
REMARK    4  A    between atoms: CA_12  and  N_11 
REMARK    5  A    between atoms: P_13  and  CA_12 
REMARK    6  A    between atoms: CA_12  and  CB_16 
REMARK    7  A    between atoms: P_13  and  N_23 
REMARK    8  A    between atoms: CB_16  and  CG_17 
REMARK    9  A    between atoms: N_23  and  CA_24 
REMARK   10  A    between atoms: CA_24  and  CB_27 
REMARK   11  A    between atoms: CA_24  and  C_25 
REMARK       I    between atoms: C_25  and  N_31 
REMARK   12  A    between atoms: CB_27  and  CG_28 
REMARK   13  A    between atoms: CG_28  and  CD1_29 
REMARK   14  A    between atoms: CG_28  and  CD2_30 
REMARK   15  A    between atoms: N_31  and  CA_32 
REMARK   16  A    between atoms: CA_32  and  CB_35 
REMARK   17  A    between atoms: CA_32  and  C_33 
ROOT
ATOM      1  CA  MOL d          51.905  16.719  -6.101  0.00  0.00     0.112 C 
ATOM      2  H9  MOL d          52.890  16.600  -6.575  0.00  0.00     0.092 H 
ENDROOT
BRANCH   1   3
ATOM      3  N   MOL d          51.971  17.476  -4.820  0.00  0.00    -0.321 N 
ATOM      4  C   MOL d          52.938  18.377  -4.588  0.00  0.00     0.361 C 
ATOM      5  O   MOL d          53.926  18.635  -5.357  0.00  0.00    -0.238 OA
ATOM      6  H8  MOL d          51.280  17.310  -4.118  0.00  0.00     0.165 HD
BRANCH   4   7
ATOM      7  OA  MOL d          52.638  19.009  -3.400  0.00  0.00    -0.299 OA
BRANCH   7   8
ATOM      8  CB  MOL d          51.966  18.306  -2.342  0.00  0.00     0.054 C 
ATOM      9  H1  MOL d          51.746  17.266  -2.627  0.00  0.00     0.082 H 
ATOM     10  H2  MOL d          51.033  18.812  -2.053  0.00  0.00     0.082 H 
BRANCH   8  11
ATOM     11  CG  MOL d          52.976  18.367  -1.251  0.00  0.00    -0.034 A 
ATOM     12  CD1 MOL d          54.216  19.013  -1.234  0.00  0.00    -0.075 A 
ATOM     13  CE1 MOL d          55.074  19.041  -0.103  0.00  0.00    -0.082 A 
ATOM     14  H3  MOL d          54.541  19.522  -2.135  0.00  0.00     0.084 H 
ATOM     15  CZ  MOL d          54.748  18.482   1.058  0.00  0.00    -0.083 A 
ATOM     16  H5  MOL d          56.034  19.538  -0.190  0.00  0.00     0.083 H 
ATOM     17  CE2 MOL d          53.562  17.874   0.956  0.00  0.00    -0.082 A 
ATOM     18  H7  MOL d          55.355  18.513   1.955  0.00  0.00     0.083 H 
ATOM     19  CD2 MOL d          52.629  17.779  -0.097  0.00  0.00    -0.075 A 
ATOM     20  H6  MOL d          53.258  17.354   1.857  0.00  0.00     0.083 H 
ATOM     21  H4  MOL d          51.684  17.260   0.019  0.00  0.00     0.084 H 
ENDBRANCH   8  11
ENDBRANCH   7   8
ENDBRANCH   4   7
ENDBRANCH   1   3
BRANCH   1  22
ATOM     22  P   MOL d          50.863  17.558  -7.071  0.00  0.00     0.229 P 
ATOM     23  OP1 MOL d          49.417  17.634  -6.449  0.00  0.00    -0.650 OA
ATOM     24  OP2 MOL d          51.423  18.987  -7.471  0.00  0.00    -0.650 OA
BRANCH  22  25
ATOM     25  N   MOL d          50.927  16.507  -8.651  0.00  0.00    -0.334 N 
ATOM     26  H17 MOL d          51.729  15.966  -8.903  0.00  0.00     0.164 HD
BRANCH  25  27
ATOM     27  CA  MOL d          49.712  16.546  -9.476  0.00  0.00     0.091 C 
ATOM     28  H18 MOL d          49.985  16.127 -10.455  0.00  0.00     0.087 H 
BRANCH  27  29
ATOM     29  CB  MOL d          48.574  15.700  -8.891  0.00  0.00    -0.035 C 
ATOM     30  H19 MOL d          47.617  16.173  -9.156  0.00  0.00     0.037 H 
ATOM     31  H20 MOL d          48.682  15.678  -7.797  0.00  0.00     0.037 H 
BRANCH  29  32
ATOM     32  CG  MOL d          48.560  14.277  -9.399  0.00  0.00    -0.059 C 
ATOM     33  H21 MOL d          47.640  14.051  -9.957  0.00  0.00     0.038 H 
BRANCH  32  34
ATOM     34  CD1 MOL d          49.774  14.021 -10.310  0.00  0.00    -0.073 C 
ATOM     35  H22 MOL d          50.232  13.055 -10.049  0.00  0.00     0.028 H 
ATOM     36  H23 MOL d          50.512  14.825 -10.173  0.00  0.00     0.028 H 
ATOM     37  H24 MOL d          49.447  13.999 -11.360  0.00  0.00     0.028 H 
ENDBRANCH  32  34
BRANCH  32  38
ATOM     38  CD2 MOL d          48.591  13.529  -8.083  0.00  0.00    -0.073 C 
ATOM     39  H25 MOL d          47.773  13.885  -7.440  0.00  0.00     0.028 H 
ATOM     40  H26 MOL d          49.554  13.707  -7.582  0.00  0.00     0.028 H 
ATOM     41  H27 MOL d          48.469  12.452  -8.271  0.00  0.00     0.028 H 
ENDBRANCH  32  38
ENDBRANCH  29  32
ENDBRANCH  27  29
BRANCH  27  42
ATOM     42  C   MOL d          49.124  17.947  -9.714  0.00  0.00     0.241 C 
ATOM     43  O   MOL d          47.967  18.226  -9.377  0.00  0.00    -0.271 OA
ATOM     44  N   MOL d          49.951  18.837 -10.224  0.00  0.00    -0.345 N 
ATOM     45  H28 MOL d          50.874  18.529 -10.454  0.00  0.00     0.163 HD
BRANCH  44  46
ATOM     46  CA  MOL d          49.626  20.254 -10.484  0.00  0.00     0.093 C 
ATOM     47  H29 MOL d          48.849  20.582  -9.778  0.00  0.00     0.089 H 
BRANCH  46  48
ATOM     48  CB  MOL d          50.879  21.081 -10.265  0.00  0.00    -0.048 C 
ATOM     49  H30 MOL d          51.601  20.873 -11.068  0.00  0.00     0.030 H 
ATOM     50  H31 MOL d          51.325  20.821  -9.294  0.00  0.00     0.030 H 
ATOM     51  H32 MOL d          50.620  22.151 -10.273  0.00  0.00     0.030 H 
ENDBRANCH  46  48
BRANCH  46  52
ATOM     52  C   MOL d          49.094  20.439 -11.928  0.00  0.00     0.196 C 
ATOM     53  O   MOL d          48.341  21.393 -12.210  0.00  0.00    -0.646 OA
ATOM     54  OXT MOL d          49.433  19.738 -12.950  0.00  0.00    -0.646 OA
ENDBRANCH  46  52
ENDBRANCH  44  46
ENDBRANCH  27  42
ENDBRANCH  25  27
ENDBRANCH  22  25
ENDBRANCH   1  22
BRANCH   1  55
ATOM     55  CB  MOL d          51.311  15.405  -5.718  0.00  0.00    -0.011 C 
ATOM     56  H10 MOL d          50.925  14.885  -6.608  0.00  0.00     0.044 H 
ATOM     57  H11 MOL d          50.493  15.551  -4.997  0.00  0.00     0.044 H 
BRANCH  55  58
ATOM     58  CG  MOL d          52.434  14.607  -5.087  0.00  0.00    -0.056 A 
ATOM     59  CD1 MOL d          53.026  15.154  -3.942  0.00  0.00    -0.077 A 
ATOM     60  CE1 MOL d          54.057  14.474  -3.283  0.00  0.00    -0.082 A 
ATOM     61  H12 MOL d          52.685  16.112  -3.564  0.00  0.00     0.084 H 
ATOM     62  CZ  MOL d          54.467  13.245  -3.787  0.00  0.00    -0.083 A 
ATOM     63  H14 MOL d          54.524  14.895  -2.400  0.00  0.00     0.083 H 
ATOM     64  CE2 MOL d          53.839  12.684  -4.937  0.00  0.00    -0.082 A 
ATOM     65  H16 MOL d          55.273  12.708  -3.300  0.00  0.00     0.083 H 
ATOM     66  CD2 MOL d          52.802  13.378  -5.576  0.00  0.00    -0.077 A 
ATOM     67  H15 MOL d          54.164  11.723  -5.317  0.00  0.00     0.083 H 
ATOM     68  H13 MOL d          52.301  12.953  -6.438  0.00  0.00     0.084 H 
ENDBRANCH  55  58
ENDBRANCH   1  55
TORSDOF 17
ENDMDL
