MODEL 1
REMARK VINA RESULT:      -7.4      0.000      0.000
REMARK  10 active torsions:
REMARK  status: ('A' for Active; 'I' for Inactive)
REMARK    1  A    between atoms: C12_12  and  C21_21 
REMARK    2  A    between atoms: C13_13  and  C22_22 
REMARK    3  A    between atoms: C24_24  and  C14_14 
REMARK    4  A    between atoms: C25_25  and  C15_15 
REMARK    5  A    between atoms: C26_26  and  C16_16 
REMARK    6  A    between atoms: C27_27  and  C20_20 
REMARK       I    between atoms: C21_21  and  N28_28 
REMARK    7  A    between atoms: N28_28  and  C24_24 
REMARK    8  A    between atoms: N29_29  and  C25_25 
REMARK    9  A    between atoms: N29_29  and  C26_26 
REMARK   10  A    between atoms: C27_27  and  N29_29 
ROOT
ATOM      1  C25 N44 d          -7.942  46.036   0.892  0.00  0.00     0.109 C 
ATOM      2  H19 N44 d          -8.983  45.717   0.736  0.00  0.00     0.083 H 
ATOM      3  H20 N44 d          -7.472  46.242  -0.081  0.00  0.00     0.083 H 
ENDROOT
BRANCH   1   4
ATOM      4  C15 N44 d          -7.207  44.909   1.530  0.00  0.00    -0.017 A 
ATOM      5  C9  N44 d          -6.471  45.184   2.667  0.00  0.00    -0.074 A 
ATOM      6  C5  N44 d          -5.757  44.192   3.316  0.00  0.00    -0.082 A 
ATOM      7  H9  N44 d          -6.453  46.194   3.058  0.00  0.00     0.084 H 
ATOM      8  C2  N44 d          -5.786  42.917   2.807  0.00  0.00    -0.082 A 
ATOM      9  H5  N44 d          -5.186  44.417   4.209  0.00  0.00     0.083 H 
ATOM     10  C6  N44 d          -6.518  42.629   1.670  0.00  0.00    -0.067 A 
ATOM     11  H2  N44 d          -5.229  42.129   3.299  0.00  0.00     0.083 H 
ATOM     12  C12 N44 d          -7.238  43.618   1.021  0.00  0.00     0.040 A 
ATOM     13  H6  N44 d          -6.529  41.617   1.283  0.00  0.00     0.085 H 
BRANCH  12  14
ATOM     14  C21 N44 d          -8.011  43.269  -0.208  0.00  0.00     0.252 C 
ATOM     15  N28 N44 d          -9.273  42.709  -0.058  0.00  0.00    -0.353 N 
ATOM     16  H25 N44 d          -9.643  42.555   0.858  0.00  0.00     0.163 HD
ATOM     17  O31 N44 d          -7.513  43.477  -1.303  0.00  0.00    -0.268 OA
BRANCH  15  18
ATOM     18  C24 N44 d         -10.054  42.346  -1.222  0.00  0.00     0.019 C 
ATOM     19  H17 N44 d          -9.382  42.227  -2.084  0.00  0.00     0.071 H 
ATOM     20  H18 N44 d         -10.571  41.395  -1.026  0.00  0.00     0.071 H 
BRANCH  18  21
ATOM     21  C14 N44 d         -11.069  43.400  -1.536  0.00  0.00    -0.041 A 
ATOM     22  C7  N44 d         -12.397  43.067  -1.693  0.00  0.00    -0.075 A 
ATOM     23  C3  N44 d         -13.337  44.034  -1.963  0.00  0.00    -0.082 A 
ATOM     24  H7  N44 d         -12.704  42.032  -1.604  0.00  0.00     0.084 H 
ATOM     25  C1  N44 d         -12.955  45.353  -2.084  0.00  0.00    -0.083 A 
ATOM     26  H3  N44 d         -14.378  43.759  -2.081  0.00  0.00     0.083 H 
ATOM     27  C4  N44 d         -11.628  45.694  -1.947  0.00  0.00    -0.082 A 
ATOM     28  H1  N44 d         -13.696  46.119  -2.285  0.00  0.00     0.083 H 
ATOM     29  C8  N44 d         -10.690  44.722  -1.668  0.00  0.00    -0.075 A 
ATOM     30  H4  N44 d         -11.320  46.727  -2.059  0.00  0.00     0.083 H 
ATOM     31  H8  N44 d          -9.647  44.998  -1.552  0.00  0.00     0.084 H 
ENDBRANCH  18  21
ENDBRANCH  15  18
ENDBRANCH  12  14
ENDBRANCH   1   4
BRANCH   1  32
ATOM     32  N29 N44 d          -7.961  47.302   1.670  0.00  0.00    -0.060 N 
ATOM     33  H26 N44 d          -7.070  47.315   2.141  0.00  0.00     0.281 HD
BRANCH  32  34
ATOM     34  C26 N44 d          -8.953  47.370   2.803  0.00  0.00     0.109 C 
ATOM     35  H21 N44 d          -8.565  46.798   3.657  0.00  0.00     0.083 H 
ATOM     36  H22 N44 d          -9.093  48.421   3.098  0.00  0.00     0.083 H 
BRANCH  34  37
ATOM     37  C16 N44 d         -10.274  46.794   2.380  0.00  0.00    -0.013 A 
ATOM     38  C10 N44 d         -10.345  45.415   2.185  0.00  0.00    -0.071 A 
ATOM     39  C11 N44 d         -11.526  44.799   1.789  0.00  0.00    -0.047 A 
ATOM     40  H10 N44 d          -9.460  44.810   2.346  0.00  0.00     0.084 H 
ATOM     41  C17 N44 d         -12.615  45.617   1.596  0.00  0.00     0.106 A 
ATOM     42  H11 N44 d         -11.586  43.726   1.641  0.00  0.00     0.087 H 
ATOM     43  C18 N44 d         -12.557  46.976   1.784  0.00  0.00     0.122 A 
ATOM     44  O33 N44 d         -13.856  45.184   1.200  0.00  0.00    -0.323 OA
ATOM     45  C13 N44 d         -11.388  47.614   2.176  0.00  0.00     0.085 A 
ATOM     46  O34 N44 d         -13.786  47.581   1.517  0.00  0.00    -0.322 OA
ATOM     47  C23 N44 d         -14.580  46.435   1.160  0.00  0.00     0.115 A 
ATOM     48  H15 N44 d         -15.425  46.367   1.862  0.00  0.00     0.118 H 
ATOM     49  H16 N44 d         -14.961  46.581   0.139  0.00  0.00     0.118 H 
BRANCH  45  50
ATOM     50  C22 N44 d         -11.344  49.105   2.398  0.00  0.00     0.212 C 
ATOM     51  O30 N44 d         -11.461  49.498   3.592  0.00  0.00    -0.644 OA
ATOM     52  O32 N44 d         -11.156  49.895   1.425  0.00  0.00    -0.644 OA
ENDBRANCH  45  50
ENDBRANCH  34  37
ENDBRANCH  32  34
BRANCH  32  53
ATOM     53  C27 N44 d          -7.919  48.503   0.769  0.00  0.00     0.099 C 
ATOM     54  H23 N44 d          -8.575  49.276   1.197  0.00  0.00     0.082 H 
ATOM     55  H24 N44 d          -6.884  48.874   0.741  0.00  0.00     0.082 H 
BRANCH  53  56
ATOM     56  C20 N44 d          -8.358  48.241  -0.630  0.00  0.00    -0.087 C 
ATOM     57  C19 N44 d          -9.564  48.616  -1.075  0.00  0.00    -0.123 C 
ATOM     58  H12 N44 d          -9.853  48.408  -2.104  0.00  0.00     0.066 H 
ATOM     59  H13 N44 d         -10.255  49.128  -0.408  0.00  0.00     0.066 H 
ATOM     60  H14 N44 d          -7.680  47.729  -1.311  0.00  0.00     0.078 H 
ENDBRANCH  53  56
ENDBRANCH  32  53
ENDBRANCH   1  32
TORSDOF 10
ENDMDL
MODEL 2
REMARK VINA RESULT:      -7.2      1.922      4.608
REMARK  10 active torsions:
REMARK  status: ('A' for Active; 'I' for Inactive)
REMARK    1  A    between atoms: C12_12  and  C21_21 
REMARK    2  A    between atoms: C13_13  and  C22_22 
REMARK    3  A    between atoms: C24_24  and  C14_14 
REMARK    4  A    between atoms: C25_25  and  C15_15 
REMARK    5  A    between atoms: C26_26  and  C16_16 
REMARK    6  A    between atoms: C27_27  and  C20_20 
REMARK       I    between atoms: C21_21  and  N28_28 
REMARK    7  A    between atoms: N28_28  and  C24_24 
REMARK    8  A    between atoms: N29_29  and  C25_25 
REMARK    9  A    between atoms: N29_29  and  C26_26 
REMARK   10  A    between atoms: C27_27  and  N29_29 
ROOT
ATOM      1  C25 N44 d          -8.909  45.521   0.078  0.00  0.00     0.109 C 
ATOM      2  H19 N44 d          -9.274  45.149  -0.891  0.00  0.00     0.083 H 
ATOM      3  H20 N44 d          -8.226  46.367  -0.088  0.00  0.00     0.083 H 
ENDROOT
BRANCH   1   4
ATOM      4  C15 N44 d          -8.138  44.427   0.730  0.00  0.00    -0.017 A 
ATOM      5  C9  N44 d          -8.171  43.178   0.139  0.00  0.00    -0.074 A 
ATOM      6  C5  N44 d          -7.484  42.108   0.685  0.00  0.00    -0.082 A 
ATOM      7  H9  N44 d          -8.746  43.033  -0.768  0.00  0.00     0.084 H 
ATOM      8  C2  N44 d          -6.764  42.306   1.838  0.00  0.00    -0.082 A 
ATOM      9  H5  N44 d          -7.513  41.134   0.213  0.00  0.00     0.083 H 
ATOM     10  C6  N44 d          -6.722  43.550   2.438  0.00  0.00    -0.067 A 
ATOM     11  H2  N44 d          -6.223  41.478   2.282  0.00  0.00     0.083 H 
ATOM     12  C12 N44 d          -7.404  44.624   1.891  0.00  0.00     0.040 A 
ATOM     13  H6  N44 d          -6.148  43.687   3.347  0.00  0.00     0.085 H 
BRANCH  12  14
ATOM     14  C21 N44 d          -7.340  45.951   2.572  0.00  0.00     0.252 C 
ATOM     15  N28 N44 d          -8.175  46.177   3.658  0.00  0.00    -0.353 N 
ATOM     16  H25 N44 d          -8.794  45.456   3.969  0.00  0.00     0.163 HD
ATOM     17  O31 N44 d          -6.568  46.799   2.153  0.00  0.00    -0.268 OA
BRANCH  15  18
ATOM     18  C24 N44 d          -8.154  47.454   4.343  0.00  0.00     0.019 C 
ATOM     19  H17 N44 d          -8.266  47.284   5.424  0.00  0.00     0.071 H 
ATOM     20  H18 N44 d          -7.193  47.951   4.148  0.00  0.00     0.071 H 
BRANCH  18  21
ATOM     21  C14 N44 d          -9.267  48.334   3.869  0.00  0.00    -0.041 A 
ATOM     22  C7  N44 d         -10.579  47.998   4.119  0.00  0.00    -0.075 A 
ATOM     23  C3  N44 d         -11.606  48.813   3.701  0.00  0.00    -0.082 A 
ATOM     24  H7  N44 d         -10.806  47.082   4.651  0.00  0.00     0.084 H 
ATOM     25  C1  N44 d         -11.328  49.979   3.019  0.00  0.00    -0.083 A 
ATOM     26  H3  N44 d         -12.633  48.539   3.908  0.00  0.00     0.083 H 
ATOM     27  C4  N44 d         -10.020  50.313   2.747  0.00  0.00    -0.082 A 
ATOM     28  H1  N44 d         -12.135  50.629   2.699  0.00  0.00     0.083 H 
ATOM     29  C8  N44 d          -8.994  49.498   3.175  0.00  0.00    -0.075 A 
ATOM     30  H4  N44 d          -9.797  51.219   2.195  0.00  0.00     0.083 H 
ATOM     31  H8  N44 d          -7.966  49.771   2.966  0.00  0.00     0.084 H 
ENDBRANCH  18  21
ENDBRANCH  15  18
ENDBRANCH  12  14
ENDBRANCH   1   4
BRANCH   1  32
ATOM     32  N29 N44 d         -10.078  46.020   0.849  0.00  0.00    -0.060 N 
ATOM     33  H26 N44 d          -9.716  46.165   1.778  0.00  0.00     0.281 HD
BRANCH  32  34
ATOM     34  C26 N44 d         -11.200  45.037   1.064  0.00  0.00     0.109 C 
ATOM     35  H21 N44 d         -10.776  44.036   1.231  0.00  0.00     0.083 H 
ATOM     36  H22 N44 d         -11.783  45.340   1.945  0.00  0.00     0.083 H 
BRANCH  34  37
ATOM     37  C16 N44 d         -12.102  44.998  -0.137  0.00  0.00    -0.013 A 
ATOM     38  C10 N44 d         -11.597  44.430  -1.307  0.00  0.00    -0.071 A 
ATOM     39  C11 N44 d         -12.360  44.357  -2.465  0.00  0.00    -0.047 A 
ATOM     40  H10 N44 d         -10.587  44.037  -1.313  0.00  0.00     0.084 H 
ATOM     41  C17 N44 d         -13.633  44.876  -2.399  0.00  0.00     0.106 A 
ATOM     42  H11 N44 d         -11.973  43.913  -3.375  0.00  0.00     0.087 H 
ATOM     43  C18 N44 d         -14.140  45.438  -1.254  0.00  0.00     0.122 A 
ATOM     44  O33 N44 d         -14.523  44.896  -3.445  0.00  0.00    -0.323 OA
ATOM     45  C13 N44 d         -13.396  45.524  -0.086  0.00  0.00     0.085 A 
ATOM     46  O34 N44 d         -15.445  45.896  -1.446  0.00  0.00    -0.322 OA
ATOM     47  C23 N44 d         -15.659  45.538  -2.823  0.00  0.00     0.115 A 
ATOM     48  H15 N44 d         -16.516  44.849  -2.872  0.00  0.00     0.118 H 
ATOM     49  H16 N44 d         -15.890  46.453  -3.387  0.00  0.00     0.118 H 
BRANCH  45  50
ATOM     50  C22 N44 d         -13.974  46.126   1.171  0.00  0.00     0.212 C 
ATOM     51  O30 N44 d         -14.589  45.336   1.939  0.00  0.00    -0.644 OA
ATOM     52  O32 N44 d         -13.797  47.353   1.436  0.00  0.00    -0.644 OA
ENDBRANCH  45  50
ENDBRANCH  34  37
ENDBRANCH  32  34
BRANCH  32  53
ATOM     53  C27 N44 d         -10.492  47.390   0.397  0.00  0.00     0.099 C 
ATOM     54  H23 N44 d         -11.411  47.292  -0.199  0.00  0.00     0.082 H 
ATOM     55  H24 N44 d         -10.697  48.000   1.290  0.00  0.00     0.082 H 
BRANCH  53  56
ATOM     56  C20 N44 d          -9.475  48.102  -0.429  0.00  0.00    -0.087 C 
ATOM     57  C19 N44 d          -9.646  49.369  -0.824  0.00  0.00    -0.123 C 
ATOM     58  H12 N44 d          -8.883  49.859  -1.427  0.00  0.00     0.066 H 
ATOM     59  H13 N44 d         -10.548  49.910  -0.544  0.00  0.00     0.066 H 
ATOM     60  H14 N44 d          -8.568  47.575  -0.719  0.00  0.00     0.078 H 
ENDBRANCH  53  56
ENDBRANCH  32  53
ENDBRANCH   1  32
TORSDOF 10
ENDMDL
MODEL 3
REMARK VINA RESULT:      -6.9      2.086      5.436
REMARK  10 active torsions:
REMARK  status: ('A' for Active; 'I' for Inactive)
REMARK    1  A    between atoms: C12_12  and  C21_21 
REMARK    2  A    between atoms: C13_13  and  C22_22 
REMARK    3  A    between atoms: C24_24  and  C14_14 
REMARK    4  A    between atoms: C25_25  and  C15_15 
REMARK    5  A    between atoms: C26_26  and  C16_16 
REMARK    6  A    between atoms: C27_27  and  C20_20 
REMARK       I    between atoms: C21_21  and  N28_28 
REMARK    7  A    between atoms: N28_28  and  C24_24 
REMARK    8  A    between atoms: N29_29  and  C25_25 
REMARK    9  A    between atoms: N29_29  and  C26_26 
REMARK   10  A    between atoms: C27_27  and  N29_29 
ROOT
ATOM      1  C25 N44 d         -10.680  46.720   2.789  0.00  0.00     0.109 C 
ATOM      2  H19 N44 d         -11.565  46.467   3.392  0.00  0.00     0.083 H 
ATOM      3  H20 N44 d          -9.826  46.108   3.116  0.00  0.00     0.083 H 
ENDROOT
BRANCH   1   4
ATOM      4  C15 N44 d         -10.346  48.149   3.039  0.00  0.00    -0.017 A 
ATOM      5  C9  N44 d         -11.338  49.088   2.826  0.00  0.00    -0.074 A 
ATOM      6  C5  N44 d         -11.105  50.436   3.033  0.00  0.00    -0.082 A 
ATOM      7  H9  N44 d         -12.315  48.762   2.491  0.00  0.00     0.084 H 
ATOM      8  C2  N44 d          -9.860  50.834   3.453  0.00  0.00    -0.082 A 
ATOM      9  H5  N44 d         -11.890  51.164   2.866  0.00  0.00     0.083 H 
ATOM     10  C6  N44 d          -8.860  49.905   3.670  0.00  0.00    -0.067 A 
ATOM     11  H2  N44 d          -9.659  51.887   3.615  0.00  0.00     0.083 H 
ATOM     12  C12 N44 d          -9.090  48.555   3.470  0.00  0.00     0.040 A 
ATOM     13  H6  N44 d          -7.883  50.238   4.002  0.00  0.00     0.085 H 
BRANCH  12  14
ATOM     14  C21 N44 d          -7.982  47.583   3.709  0.00  0.00     0.252 C 
ATOM     15  N28 N44 d          -7.162  47.241   2.642  0.00  0.00    -0.353 N 
ATOM     16  H25 N44 d          -7.318  47.650   1.743  0.00  0.00     0.163 HD
ATOM     17  O31 N44 d          -7.835  47.111   4.826  0.00  0.00    -0.268 OA
BRANCH  15  18
ATOM     18  C24 N44 d          -6.081  46.294   2.825  0.00  0.00     0.019 C 
ATOM     19  H17 N44 d          -5.184  46.668   2.312  0.00  0.00     0.071 H 
ATOM     20  H18 N44 d          -5.872  46.190   3.901  0.00  0.00     0.071 H 
BRANCH  18  21
ATOM     21  C14 N44 d          -6.442  44.954   2.265  0.00  0.00    -0.041 A 
ATOM     22  C7  N44 d          -7.445  44.835   1.329  0.00  0.00    -0.075 A 
ATOM     23  C3  N44 d          -7.769  43.609   0.797  0.00  0.00    -0.082 A 
ATOM     24  H7  N44 d          -7.986  45.718   1.007  0.00  0.00     0.084 H 
ATOM     25  C1  N44 d          -7.091  42.479   1.203  0.00  0.00    -0.083 A 
ATOM     26  H3  N44 d          -8.558  43.530   0.058  0.00  0.00     0.083 H 
ATOM     27  C4  N44 d          -6.100  42.585   2.153  0.00  0.00    -0.082 A 
ATOM     28  H1  N44 d          -7.337  41.513   0.777  0.00  0.00     0.083 H 
ATOM     29  C8  N44 d          -5.772  43.818   2.678  0.00  0.00    -0.075 A 
ATOM     30  H4  N44 d          -5.576  41.698   2.489  0.00  0.00     0.083 H 
ATOM     31  H8  N44 d          -4.985  43.896   3.419  0.00  0.00     0.084 H 
ENDBRANCH  18  21
ENDBRANCH  15  18
ENDBRANCH  12  14
ENDBRANCH   1   4
BRANCH   1  32
ATOM     32  N29 N44 d         -10.975  46.375   1.373  0.00  0.00    -0.060 N 
ATOM     33  H26 N44 d         -11.850  46.840   1.185  0.00  0.00     0.281 HD
BRANCH  32  34
ATOM     34  C26 N44 d         -11.284  44.928   1.093  0.00  0.00     0.109 C 
ATOM     35  H21 N44 d         -10.345  44.387   0.909  0.00  0.00     0.083 H 
ATOM     36  H22 N44 d         -11.793  44.491   1.965  0.00  0.00     0.083 H 
BRANCH  34  37
ATOM     37  C16 N44 d         -12.172  44.803  -0.112  0.00  0.00    -0.013 A 
ATOM     38  C10 N44 d         -11.688  44.074  -1.199  0.00  0.00    -0.071 A 
ATOM     39  C11 N44 d         -12.440  43.913  -2.355  0.00  0.00    -0.047 A 
ATOM     40  H10 N44 d         -10.704  43.625  -1.140  0.00  0.00     0.084 H 
ATOM     41  C17 N44 d         -13.680  44.510  -2.374  0.00  0.00     0.106 A 
ATOM     42  H11 N44 d         -12.069  43.344  -3.201  0.00  0.00     0.087 H 
ATOM     43  C18 N44 d         -14.166  45.230  -1.311  0.00  0.00     0.122 A 
ATOM     44  O33 N44 d         -14.554  44.461  -3.432  0.00  0.00    -0.323 OA
ATOM     45  C13 N44 d         -13.432  45.407  -0.146  0.00  0.00     0.085 A 
ATOM     46  O34 N44 d         -15.438  45.739  -1.579  0.00  0.00    -0.322 OA
ATOM     47  C23 N44 d         -15.656  45.236  -2.910  0.00  0.00     0.115 A 
ATOM     48  H15 N44 d         -16.553  44.598  -2.896  0.00  0.00     0.118 H 
ATOM     49  H16 N44 d         -15.825  46.092  -3.580  0.00  0.00     0.118 H 
BRANCH  45  50
ATOM     50  C22 N44 d         -13.988  46.183   1.021  0.00  0.00     0.212 C 
ATOM     51  O30 N44 d         -13.853  47.438   0.976  0.00  0.00    -0.644 OA
ATOM     52  O32 N44 d         -14.592  45.585   1.962  0.00  0.00    -0.644 OA
ENDBRANCH  45  50
ENDBRANCH  34  37
ENDBRANCH  32  34
BRANCH  32  53
ATOM     53  C27 N44 d         -10.003  47.027   0.433  0.00  0.00     0.099 C 
ATOM     54  H23 N44 d          -9.347  47.687   1.021  0.00  0.00     0.082 H 
ATOM     55  H24 N44 d          -9.400  46.237  -0.040  0.00  0.00     0.082 H 
BRANCH  53  56
ATOM     56  C20 N44 d         -10.635  47.839  -0.645  0.00  0.00    -0.087 C 
ATOM     57  C19 N44 d         -10.360  49.139  -0.805  0.00  0.00    -0.123 C 
ATOM     58  H12 N44 d         -10.840  49.702  -1.604  0.00  0.00     0.066 H 
ATOM     59  H13 N44 d          -9.656  49.632  -0.138  0.00  0.00     0.066 H 
ATOM     60  H14 N44 d         -11.342  47.361  -1.321  0.00  0.00     0.078 H 
ENDBRANCH  53  56
ENDBRANCH  32  53
ENDBRANCH   1  32
TORSDOF 10
ENDMDL
MODEL 4
REMARK VINA RESULT:      -6.9      1.803      4.219
REMARK  10 active torsions:
REMARK  status: ('A' for Active; 'I' for Inactive)
REMARK    1  A    between atoms: C12_12  and  C21_21 
REMARK    2  A    between atoms: C13_13  and  C22_22 
REMARK    3  A    between atoms: C24_24  and  C14_14 
REMARK    4  A    between atoms: C25_25  and  C15_15 
REMARK    5  A    between atoms: C26_26  and  C16_16 
REMARK    6  A    between atoms: C27_27  and  C20_20 
REMARK       I    between atoms: C21_21  and  N28_28 
REMARK    7  A    between atoms: N28_28  and  C24_24 
REMARK    8  A    between atoms: N29_29  and  C25_25 
REMARK    9  A    between atoms: N29_29  and  C26_26 
REMARK   10  A    between atoms: C27_27  and  N29_29 
ROOT
ATOM      1  C25 N44 d          -7.562  48.828   2.101  0.00  0.00     0.109 C 
ATOM      2  H19 N44 d          -7.664  49.617   2.861  0.00  0.00     0.083 H 
ATOM      3  H20 N44 d          -6.523  48.797   1.742  0.00  0.00     0.083 H 
ENDROOT
BRANCH   1   4
ATOM      4  C15 N44 d          -8.436  49.185   0.949  0.00  0.00    -0.017 A 
ATOM      5  C9  N44 d          -9.312  50.241   1.110  0.00  0.00    -0.074 A 
ATOM      6  C5  N44 d         -10.160  50.632   0.088  0.00  0.00    -0.082 A 
ATOM      7  H9  N44 d          -9.336  50.774   2.054  0.00  0.00     0.084 H 
ATOM      8  C2  N44 d         -10.121  49.945  -1.100  0.00  0.00    -0.082 A 
ATOM      9  H5  N44 d         -10.841  51.464   0.223  0.00  0.00     0.083 H 
ATOM     10  C6  N44 d          -9.249  48.887  -1.274  0.00  0.00    -0.067 A 
ATOM     11  H2  N44 d         -10.781  50.235  -1.909  0.00  0.00     0.083 H 
ATOM     12  C12 N44 d          -8.396  48.497  -0.256  0.00  0.00     0.040 A 
ATOM     13  H6  N44 d          -9.233  48.357  -2.219  0.00  0.00     0.085 H 
BRANCH  12  14
ATOM     14  C21 N44 d          -7.473  47.344  -0.480  0.00  0.00     0.252 C 
ATOM     15  N28 N44 d          -7.992  46.059  -0.411  0.00  0.00    -0.353 N 
ATOM     16  H25 N44 d          -8.965  45.925  -0.222  0.00  0.00     0.163 HD
ATOM     17  O31 N44 d          -6.293  47.563  -0.706  0.00  0.00    -0.268 OA
BRANCH  15  18
ATOM     18  C24 N44 d          -7.132  44.911  -0.611  0.00  0.00     0.019 C 
ATOM     19  H17 N44 d          -6.714  44.947  -1.628  0.00  0.00     0.071 H 
ATOM     20  H18 N44 d          -6.312  44.943   0.122  0.00  0.00     0.071 H 
BRANCH  18  21
ATOM     21  C14 N44 d          -7.893  43.634  -0.441  0.00  0.00    -0.041 A 
ATOM     22  C7  N44 d          -7.532  42.730   0.535  0.00  0.00    -0.075 A 
ATOM     23  C3  N44 d          -8.240  41.564   0.708  0.00  0.00    -0.082 A 
ATOM     24  H7  N44 d          -6.681  42.941   1.172  0.00  0.00     0.084 H 
ATOM     25  C1  N44 d          -9.320  41.284  -0.101  0.00  0.00    -0.083 A 
ATOM     26  H3  N44 d          -7.947  40.863   1.482  0.00  0.00     0.083 H 
ATOM     27  C4  N44 d          -9.677  42.173  -1.091  0.00  0.00    -0.082 A 
ATOM     28  H1  N44 d          -9.887  40.371   0.042  0.00  0.00     0.083 H 
ATOM     29  C8  N44 d          -8.970  43.345  -1.257  0.00  0.00    -0.075 A 
ATOM     30  H4  N44 d         -10.514  41.950  -1.742  0.00  0.00     0.083 H 
ATOM     31  H8  N44 d          -9.262  44.045  -2.032  0.00  0.00     0.084 H 
ENDBRANCH  18  21
ENDBRANCH  15  18
ENDBRANCH  12  14
ENDBRANCH   1   4
BRANCH   1  32
ATOM     32  N29 N44 d          -7.864  47.524   2.747  0.00  0.00    -0.060 N 
ATOM     33  H26 N44 d          -8.056  46.906   1.975  0.00  0.00     0.281 HD
BRANCH  32  34
ATOM     34  C26 N44 d          -9.131  47.465   3.561  0.00  0.00     0.109 C 
ATOM     35  H21 N44 d          -8.945  46.889   4.478  0.00  0.00     0.083 H 
ATOM     36  H22 N44 d          -9.439  48.487   3.826  0.00  0.00     0.083 H 
BRANCH  34  37
ATOM     37  C16 N44 d         -10.229  46.805   2.777  0.00  0.00    -0.013 A 
ATOM     38  C10 N44 d          -9.930  45.607   2.128  0.00  0.00    -0.071 A 
ATOM     39  C11 N44 d         -10.884  44.932   1.377  0.00  0.00    -0.047 A 
ATOM     40  H10 N44 d          -8.932  45.193   2.211  0.00  0.00     0.084 H 
ATOM     41  C17 N44 d         -12.132  45.507   1.303  0.00  0.00     0.106 A 
ATOM     42  H11 N44 d         -10.657  43.998   0.874  0.00  0.00     0.087 H 
ATOM     43  C18 N44 d         -12.438  46.685   1.936  0.00  0.00     0.122 A 
ATOM     44  O33 N44 d         -13.191  44.984   0.602  0.00  0.00    -0.323 OA
ATOM     45  C13 N44 d         -11.501  47.379   2.690  0.00  0.00     0.085 A 
ATOM     46  O34 N44 d         -13.761  47.062   1.701  0.00  0.00    -0.322 OA
ATOM     47  C23 N44 d         -14.209  45.976   0.870  0.00  0.00     0.115 A 
ATOM     48  H15 N44 d         -15.052  45.480   1.373  0.00  0.00     0.118 H 
ATOM     49  H16 N44 d         -14.547  46.392  -0.091  0.00  0.00     0.118 H 
BRANCH  45  50
ATOM     50  C22 N44 d         -11.857  48.663   3.397  0.00  0.00     0.212 C 
ATOM     51  O30 N44 d         -12.166  49.642   2.661  0.00  0.00    -0.644 OA
ATOM     52  O32 N44 d         -11.879  48.715   4.663  0.00  0.00    -0.644 OA
ENDBRANCH  45  50
ENDBRANCH  34  37
ENDBRANCH  32  34
BRANCH  32  53
ATOM     53  C27 N44 d          -6.645  46.936   3.397  0.00  0.00     0.099 C 
ATOM     54  H23 N44 d          -5.790  47.592   3.179  0.00  0.00     0.082 H 
ATOM     55  H24 N44 d          -6.817  46.904   4.483  0.00  0.00     0.082 H 
BRANCH  53  56
ATOM     56  C20 N44 d          -6.306  45.559   2.939  0.00  0.00    -0.087 C 
ATOM     57  C19 N44 d          -6.612  44.477   3.664  0.00  0.00    -0.123 C 
ATOM     58  H12 N44 d          -6.349  43.485   3.299  0.00  0.00     0.066 H 
ATOM     59  H13 N44 d          -7.124  44.588   4.618  0.00  0.00     0.066 H 
ATOM     60  H14 N44 d          -5.793  45.430   1.987  0.00  0.00     0.078 H 
ENDBRANCH  53  56
ENDBRANCH  32  53
ENDBRANCH   1  32
TORSDOF 10
ENDMDL
MODEL 5
REMARK VINA RESULT:      -6.8      1.956      5.721
REMARK  10 active torsions:
REMARK  status: ('A' for Active; 'I' for Inactive)
REMARK    1  A    between atoms: C12_12  and  C21_21 
REMARK    2  A    between atoms: C13_13  and  C22_22 
REMARK    3  A    between atoms: C24_24  and  C14_14 
REMARK    4  A    between atoms: C25_25  and  C15_15 
REMARK    5  A    between atoms: C26_26  and  C16_16 
REMARK    6  A    between atoms: C27_27  and  C20_20 
REMARK       I    between atoms: C21_21  and  N28_28 
REMARK    7  A    between atoms: N28_28  and  C24_24 
REMARK    8  A    between atoms: N29_29  and  C25_25 
REMARK    9  A    between atoms: N29_29  and  C26_26 
REMARK   10  A    between atoms: C27_27  and  N29_29 
ROOT
ATOM      1  C25 N44 d          -9.788  49.000   2.609  0.00  0.00     0.109 C 
ATOM      2  H19 N44 d         -10.675  49.586   2.891  0.00  0.00     0.083 H 
ATOM      3  H20 N44 d          -8.895  49.440   3.077  0.00  0.00     0.083 H 
ENDROOT
BRANCH   1   4
ATOM      4  C15 N44 d          -9.627  49.092   1.132  0.00  0.00    -0.017 A 
ATOM      5  C9  N44 d         -10.728  49.472   0.388  0.00  0.00    -0.074 A 
ATOM      6  C5  N44 d         -10.661  49.577  -0.990  0.00  0.00    -0.082 A 
ATOM      7  H9  N44 d         -11.661  49.691   0.893  0.00  0.00     0.084 H 
ATOM      8  C2  N44 d          -9.473  49.291  -1.616  0.00  0.00    -0.082 A 
ATOM      9  H5  N44 d         -11.529  49.878  -1.564  0.00  0.00     0.083 H 
ATOM     10  C6  N44 d          -8.364  48.911  -0.884  0.00  0.00    -0.067 A 
ATOM     11  H2  N44 d          -9.403  49.364  -2.696  0.00  0.00     0.083 H 
ATOM     12  C12 N44 d          -8.426  48.810   0.495  0.00  0.00     0.040 A 
ATOM     13  H6  N44 d          -7.434  48.690  -1.396  0.00  0.00     0.085 H 
BRANCH  12  14
ATOM     14  C21 N44 d          -7.209  48.389   1.251  0.00  0.00     0.252 C 
ATOM     15  N28 N44 d          -6.969  47.032   1.415  0.00  0.00    -0.353 N 
ATOM     16  H25 N44 d          -7.602  46.364   1.024  0.00  0.00     0.163 HD
ATOM     17  O31 N44 d          -6.468  49.245   1.710  0.00  0.00    -0.268 OA
BRANCH  15  18
ATOM     18  C24 N44 d          -5.806  46.579   2.150  0.00  0.00     0.019 C 
ATOM     19  H17 N44 d          -5.011  46.314   1.438  0.00  0.00     0.071 H 
ATOM     20  H18 N44 d          -5.456  47.390   2.806  0.00  0.00     0.071 H 
BRANCH  18  21
ATOM     21  C14 N44 d          -6.133  45.381   2.985  0.00  0.00    -0.041 A 
ATOM     22  C7  N44 d          -6.504  44.194   2.390  0.00  0.00    -0.075 A 
ATOM     23  C3  N44 d          -6.788  43.085   3.152  0.00  0.00    -0.082 A 
ATOM     24  H7  N44 d          -6.573  44.135   1.310  0.00  0.00     0.084 H 
ATOM     25  C1  N44 d          -6.709  43.152   4.527  0.00  0.00    -0.083 A 
ATOM     26  H3  N44 d          -7.075  42.157   2.671  0.00  0.00     0.083 H 
ATOM     27  C4  N44 d          -6.357  44.339   5.131  0.00  0.00    -0.082 A 
ATOM     28  H1  N44 d          -6.921  42.276   5.129  0.00  0.00     0.083 H 
ATOM     29  C8  N44 d          -6.065  45.447   4.364  0.00  0.00    -0.075 A 
ATOM     30  H4  N44 d          -6.311  44.402   6.212  0.00  0.00     0.083 H 
ATOM     31  H8  N44 d          -5.780  46.375   4.845  0.00  0.00     0.084 H 
ENDBRANCH  18  21
ENDBRANCH  15  18
ENDBRANCH  12  14
ENDBRANCH   1   4
BRANCH   1  32
ATOM     32  N29 N44 d          -9.957  47.624   3.145  0.00  0.00    -0.060 N 
ATOM     33  H26 N44 d          -9.332  47.065   2.586  0.00  0.00     0.281 HD
BRANCH  32  34
ATOM     34  C26 N44 d         -11.299  46.981   2.913  0.00  0.00     0.109 C 
ATOM     35  H21 N44 d         -11.623  46.478   3.835  0.00  0.00     0.083 H 
ATOM     36  H22 N44 d         -12.030  47.757   2.642  0.00  0.00     0.083 H 
BRANCH  34  37
ATOM     37  C16 N44 d         -11.214  45.973   1.802  0.00  0.00    -0.013 A 
ATOM     38  C10 N44 d          -9.964  45.418   1.527  0.00  0.00    -0.071 A 
ATOM     39  C11 N44 d          -9.794  44.483   0.514  0.00  0.00    -0.047 A 
ATOM     40  H10 N44 d          -9.107  45.723   2.116  0.00  0.00     0.084 H 
ATOM     41  C17 N44 d         -10.917  44.138  -0.203  0.00  0.00     0.106 A 
ATOM     42  H11 N44 d          -8.825  44.046   0.299  0.00  0.00     0.087 H 
ATOM     43  C18 N44 d         -12.151  44.678   0.058  0.00  0.00     0.122 A 
ATOM     44  O33 N44 d         -10.934  43.238  -1.240  0.00  0.00    -0.323 OA
ATOM     45  C13 N44 d         -12.346  45.616   1.063  0.00  0.00     0.085 A 
ATOM     46  O34 N44 d         -13.122  44.174  -0.809  0.00  0.00    -0.322 OA
ATOM     47  C23 N44 d         -12.333  43.271  -1.605  0.00  0.00     0.115 A 
ATOM     48  H15 N44 d         -12.745  42.257  -1.490  0.00  0.00     0.118 H 
ATOM     49  H16 N44 d         -12.408  43.581  -2.658  0.00  0.00     0.118 H 
BRANCH  45  50
ATOM     50  C22 N44 d         -13.712  46.185   1.352  0.00  0.00     0.212 C 
ATOM     51  O30 N44 d         -13.955  47.329   0.876  0.00  0.00    -0.644 OA
ATOM     52  O32 N44 d         -14.565  45.510   2.002  0.00  0.00    -0.644 OA
ENDBRANCH  45  50
ENDBRANCH  34  37
ENDBRANCH  32  34
BRANCH  32  53
ATOM     53  C27 N44 d          -9.410  47.505   4.539  0.00  0.00     0.099 C 
ATOM     54  H23 N44 d         -10.210  47.771   5.245  0.00  0.00     0.082 H 
ATOM     55  H24 N44 d          -9.110  46.459   4.701  0.00  0.00     0.082 H 
BRANCH  53  56
ATOM     56  C20 N44 d          -8.234  48.376   4.817  0.00  0.00    -0.087 C 
ATOM     57  C19 N44 d          -7.646  48.407   6.019  0.00  0.00    -0.123 C 
ATOM     58  H12 N44 d          -6.787  49.055   6.189  0.00  0.00     0.066 H 
ATOM     59  H13 N44 d          -8.026  47.785   6.827  0.00  0.00     0.066 H 
ATOM     60  H14 N44 d          -7.841  49.005   4.020  0.00  0.00     0.078 H 
ENDBRANCH  53  56
ENDBRANCH  32  53
ENDBRANCH   1  32
TORSDOF 10
ENDMDL
MODEL 6
REMARK VINA RESULT:      -6.7      2.128      5.004
REMARK  10 active torsions:
REMARK  status: ('A' for Active; 'I' for Inactive)
REMARK    1  A    between atoms: C12_12  and  C21_21 
REMARK    2  A    between atoms: C13_13  and  C22_22 
REMARK    3  A    between atoms: C24_24  and  C14_14 
REMARK    4  A    between atoms: C25_25  and  C15_15 
REMARK    5  A    between atoms: C26_26  and  C16_16 
REMARK    6  A    between atoms: C27_27  and  C20_20 
REMARK       I    between atoms: C21_21  and  N28_28 
REMARK    7  A    between atoms: N28_28  and  C24_24 
REMARK    8  A    between atoms: N29_29  and  C25_25 
REMARK    9  A    between atoms: N29_29  and  C26_26 
REMARK   10  A    between atoms: C27_27  and  N29_29 
ROOT
ATOM      1  C25 N44 d          -6.582  46.113   2.021  0.00  0.00     0.109 C 
ATOM      2  H19 N44 d          -5.793  45.804   1.319  0.00  0.00     0.083 H 
ATOM      3  H20 N44 d          -6.453  47.176   2.273  0.00  0.00     0.083 H 
ENDROOT
BRANCH   1   4
ATOM      4  C15 N44 d          -6.423  45.319   3.270  0.00  0.00    -0.017 A 
ATOM      5  C9  N44 d          -5.777  44.101   3.180  0.00  0.00    -0.074 A 
ATOM      6  C5  N44 d          -5.592  43.302   4.295  0.00  0.00    -0.082 A 
ATOM      7  H9  N44 d          -5.408  43.764   2.218  0.00  0.00     0.084 H 
ATOM      8  C2  N44 d          -6.068  43.740   5.506  0.00  0.00    -0.082 A 
ATOM      9  H5  N44 d          -5.082  42.350   4.214  0.00  0.00     0.083 H 
ATOM     10  C6  N44 d          -6.715  44.957   5.610  0.00  0.00    -0.067 A 
ATOM     11  H2  N44 d          -5.936  43.126   6.389  0.00  0.00     0.083 H 
ATOM     12  C12 N44 d          -6.897  45.761   4.498  0.00  0.00     0.040 A 
ATOM     13  H6  N44 d          -7.084  45.287   6.575  0.00  0.00     0.085 H 
BRANCH  12  14
ATOM     14  C21 N44 d          -7.608  47.066   4.649  0.00  0.00     0.252 C 
ATOM     15  N28 N44 d          -8.989  47.085   4.515  0.00  0.00    -0.353 N 
ATOM     16  H25 N44 d          -9.483  46.236   4.329  0.00  0.00     0.163 HD
ATOM     17  O31 N44 d          -6.957  48.075   4.875  0.00  0.00    -0.268 OA
BRANCH  15  18
ATOM     18  C24 N44 d          -9.718  48.331   4.644  0.00  0.00     0.019 C 
ATOM     19  H17 N44 d         -10.491  48.217   5.419  0.00  0.00     0.071 H 
ATOM     20  H18 N44 d          -9.019  49.128   4.938  0.00  0.00     0.071 H 
BRANCH  18  21
ATOM     21  C14 N44 d         -10.373  48.704   3.352  0.00  0.00    -0.041 A 
ATOM     22  C7  N44 d          -9.619  48.883   2.212  0.00  0.00    -0.075 A 
ATOM     23  C3  N44 d         -10.218  49.208   1.018  0.00  0.00    -0.082 A 
ATOM     24  H7  N44 d          -8.543  48.766   2.258  0.00  0.00     0.084 H 
ATOM     25  C1  N44 d         -11.586  49.364   0.950  0.00  0.00    -0.083 A 
ATOM     26  H3  N44 d          -9.613  49.343   0.128  0.00  0.00     0.083 H 
ATOM     27  C4  N44 d         -12.346  49.206   2.088  0.00  0.00    -0.082 A 
ATOM     28  H1  N44 d         -12.061  49.609   0.007  0.00  0.00     0.083 H 
ATOM     29  C8  N44 d         -11.743  48.872   3.282  0.00  0.00    -0.075 A 
ATOM     30  H4  N44 d         -13.420  49.345   2.044  0.00  0.00     0.083 H 
ATOM     31  H8  N44 d         -12.348  48.740   4.172  0.00  0.00     0.084 H 
ENDBRANCH  18  21
ENDBRANCH  15  18
ENDBRANCH  12  14
ENDBRANCH   1   4
BRANCH   1  32
ATOM     32  N29 N44 d          -7.892  45.960   1.335  0.00  0.00    -0.060 N 
ATOM     33  H26 N44 d          -8.486  46.638   1.786  0.00  0.00     0.281 HD
BRANCH  32  34
ATOM     34  C26 N44 d          -8.614  44.658   1.566  0.00  0.00     0.109 C 
ATOM     35  H21 N44 d          -8.008  43.832   1.167  0.00  0.00     0.083 H 
ATOM     36  H22 N44 d          -8.765  44.515   2.646  0.00  0.00     0.083 H 
BRANCH  34  37
ATOM     37  C16 N44 d          -9.950  44.668   0.877  0.00  0.00    -0.013 A 
ATOM     38  C10 N44 d         -10.927  45.530   1.374  0.00  0.00    -0.071 A 
ATOM     39  C11 N44 d         -12.190  45.600   0.801  0.00  0.00    -0.047 A 
ATOM     40  H10 N44 d         -10.696  46.159   2.226  0.00  0.00     0.084 H 
ATOM     41  C17 N44 d         -12.428  44.775  -0.274  0.00  0.00     0.106 A 
ATOM     42  H11 N44 d         -12.952  46.272   1.183  0.00  0.00     0.087 H 
ATOM     43  C18 N44 d         -11.474  43.922  -0.771  0.00  0.00     0.122 A 
ATOM     44  O33 N44 d         -13.617  44.706  -0.957  0.00  0.00    -0.323 OA
ATOM     45  C13 N44 d         -10.206  43.833  -0.214  0.00  0.00     0.085 A 
ATOM     46  O34 N44 d         -11.961  43.189  -1.855  0.00  0.00    -0.322 OA
ATOM     47  C23 N44 d         -13.300  43.706  -1.952  0.00  0.00     0.115 A 
ATOM     48  H15 N44 d         -13.427  44.156  -2.948  0.00  0.00     0.118 H 
ATOM     49  H16 N44 d         -14.004  42.868  -1.835  0.00  0.00     0.118 H 
BRANCH  45  50
ATOM     50  C22 N44 d          -9.162  42.906  -0.784  0.00  0.00     0.212 C 
ATOM     51  O30 N44 d          -9.241  41.693  -0.444  0.00  0.00    -0.644 OA
ATOM     52  O32 N44 d          -8.289  43.341  -1.594  0.00  0.00    -0.644 OA
ENDBRANCH  45  50
ENDBRANCH  34  37
ENDBRANCH  32  34
BRANCH  32  53
ATOM     53  C27 N44 d          -7.824  46.422  -0.092  0.00  0.00     0.099 C 
ATOM     54  H23 N44 d          -7.701  45.538  -0.734  0.00  0.00     0.082 H 
ATOM     55  H24 N44 d          -8.772  46.925  -0.336  0.00  0.00     0.082 H 
BRANCH  53  56
ATOM     56  C20 N44 d          -6.709  47.367  -0.383  0.00  0.00    -0.087 C 
ATOM     57  C19 N44 d          -6.922  48.673  -0.586  0.00  0.00    -0.123 C 
ATOM     58  H12 N44 d          -6.084  49.335  -0.796  0.00  0.00     0.066 H 
ATOM     59  H13 N44 d          -7.934  49.072  -0.542  0.00  0.00     0.066 H 
ATOM     60  H14 N44 d          -5.691  46.984  -0.431  0.00  0.00     0.078 H 
ENDBRANCH  53  56
ENDBRANCH  32  53
ENDBRANCH   1  32
TORSDOF 10
ENDMDL
MODEL 7
REMARK VINA RESULT:      -6.6      1.870      3.101
REMARK  10 active torsions:
REMARK  status: ('A' for Active; 'I' for Inactive)
REMARK    1  A    between atoms: C12_12  and  C21_21 
REMARK    2  A    between atoms: C13_13  and  C22_22 
REMARK    3  A    between atoms: C24_24  and  C14_14 
REMARK    4  A    between atoms: C25_25  and  C15_15 
REMARK    5  A    between atoms: C26_26  and  C16_16 
REMARK    6  A    between atoms: C27_27  and  C20_20 
REMARK       I    between atoms: C21_21  and  N28_28 
REMARK    7  A    between atoms: N28_28  and  C24_24 
REMARK    8  A    between atoms: N29_29  and  C25_25 
REMARK    9  A    between atoms: N29_29  and  C26_26 
REMARK   10  A    between atoms: C27_27  and  N29_29 
ROOT
ATOM      1  C25 N44 d          -5.891  46.320   1.759  0.00  0.00     0.109 C 
ATOM      2  H19 N44 d          -5.781  45.481   1.057  0.00  0.00     0.083 H 
ATOM      3  H20 N44 d          -4.940  46.871   1.823  0.00  0.00     0.083 H 
ENDROOT
BRANCH   1   4
ATOM      4  C15 N44 d          -6.189  45.758   3.105  0.00  0.00    -0.017 A 
ATOM      5  C9  N44 d          -6.128  46.615   4.187  0.00  0.00    -0.074 A 
ATOM      6  C5  N44 d          -6.387  46.168   5.471  0.00  0.00    -0.082 A 
ATOM      7  H9  N44 d          -5.872  47.656   4.028  0.00  0.00     0.084 H 
ATOM      8  C2  N44 d          -6.706  44.845   5.658  0.00  0.00    -0.082 A 
ATOM      9  H5  N44 d          -6.340  46.849   6.313  0.00  0.00     0.083 H 
ATOM     10  C6  N44 d          -6.771  43.978   4.583  0.00  0.00    -0.067 A 
ATOM     11  H2  N44 d          -6.908  44.477   6.657  0.00  0.00     0.083 H 
ATOM     12  C12 N44 d          -6.517  44.423   3.297  0.00  0.00     0.040 A 
ATOM     13  H6  N44 d          -7.024  42.938   4.750  0.00  0.00     0.085 H 
BRANCH  12  14
ATOM     14  C21 N44 d          -6.590  43.454   2.163  0.00  0.00     0.252 C 
ATOM     15  N28 N44 d          -7.698  43.498   1.327  0.00  0.00    -0.353 N 
ATOM     16  H25 N44 d          -8.417  44.172   1.491  0.00  0.00     0.163 HD
ATOM     17  O31 N44 d          -5.684  42.649   2.009  0.00  0.00    -0.268 OA
BRANCH  15  18
ATOM     18  C24 N44 d          -7.815  42.570   0.221  0.00  0.00     0.019 C 
ATOM     19  H17 N44 d          -7.002  42.759  -0.494  0.00  0.00     0.071 H 
ATOM     20  H18 N44 d          -7.737  41.542   0.604  0.00  0.00     0.071 H 
BRANCH  18  21
ATOM     21  C14 N44 d          -9.128  42.735  -0.478  0.00  0.00    -0.041 A 
ATOM     22  C7  N44 d          -9.997  41.671  -0.593  0.00  0.00    -0.075 A 
ATOM     23  C3  N44 d         -11.213  41.821  -1.218  0.00  0.00    -0.082 A 
ATOM     24  H7  N44 d          -9.719  40.706  -0.186  0.00  0.00     0.084 H 
ATOM     25  C1  N44 d         -11.573  43.043  -1.743  0.00  0.00    -0.083 A 
ATOM     26  H3  N44 d         -11.888  40.977  -1.298  0.00  0.00     0.083 H 
ATOM     27  C4  N44 d         -10.704  44.107  -1.650  0.00  0.00    -0.082 A 
ATOM     28  H1  N44 d         -12.536  43.167  -2.226  0.00  0.00     0.083 H 
ATOM     29  C8  N44 d          -9.489  43.956  -1.015  0.00  0.00    -0.075 A 
ATOM     30  H4  N44 d         -10.975  45.066  -2.077  0.00  0.00     0.083 H 
ATOM     31  H8  N44 d          -8.813  44.800  -0.937  0.00  0.00     0.084 H 
ENDBRANCH  18  21
ENDBRANCH  15  18
ENDBRANCH  12  14
ENDBRANCH   1   4
BRANCH   1  32
ATOM     32  N29 N44 d          -6.921  47.244   1.215  0.00  0.00    -0.060 N 
ATOM     33  H26 N44 d          -7.556  47.384   1.984  0.00  0.00     0.281 HD
BRANCH  32  34
ATOM     34  C26 N44 d          -7.806  46.685   0.131  0.00  0.00     0.109 C 
ATOM     35  H21 N44 d          -7.294  46.777  -0.837  0.00  0.00     0.083 H 
ATOM     36  H22 N44 d          -8.008  45.624   0.340  0.00  0.00     0.083 H 
BRANCH  34  37
ATOM     37  C16 N44 d          -9.107  47.435   0.076  0.00  0.00    -0.013 A 
ATOM     38  C10 N44 d          -9.293  48.329  -0.978  0.00  0.00    -0.071 A 
ATOM     39  C11 N44 d         -10.463  49.068  -1.103  0.00  0.00    -0.047 A 
ATOM     40  H10 N44 d          -8.508  48.450  -1.716  0.00  0.00     0.084 H 
ATOM     41  C17 N44 d         -11.421  48.875  -0.135  0.00  0.00     0.106 A 
ATOM     42  H11 N44 d         -10.613  49.761  -1.923  0.00  0.00     0.087 H 
ATOM     43  C18 N44 d         -11.249  47.999   0.908  0.00  0.00     0.122 A 
ATOM     44  O33 N44 d         -12.632  49.522  -0.096  0.00  0.00    -0.323 OA
ATOM     45  C13 N44 d         -10.088  47.252   1.055  0.00  0.00     0.085 A 
ATOM     46  O34 N44 d         -12.357  47.991   1.756  0.00  0.00    -0.322 OA
ATOM     47  C23 N44 d         -13.208  48.948   1.099  0.00  0.00     0.115 A 
ATOM     48  H15 N44 d         -14.147  48.445   0.824  0.00  0.00     0.118 H 
ATOM     49  H16 N44 d         -13.422  49.764   1.806  0.00  0.00     0.118 H 
BRANCH  45  50
ATOM     50  C22 N44 d          -9.921  46.278   2.194  0.00  0.00     0.212 C 
ATOM     51  O30 N44 d         -10.280  45.089   1.973  0.00  0.00    -0.644 OA
ATOM     52  O32 N44 d          -9.404  46.652   3.289  0.00  0.00    -0.644 OA
ENDBRANCH  45  50
ENDBRANCH  34  37
ENDBRANCH  32  34
BRANCH  32  53
ATOM     53  C27 N44 d          -6.353  48.609   0.952  0.00  0.00     0.099 C 
ATOM     54  H23 N44 d          -5.269  48.506   0.802  0.00  0.00     0.082 H 
ATOM     55  H24 N44 d          -6.816  49.002   0.035  0.00  0.00     0.082 H 
BRANCH  53  56
ATOM     56  C20 N44 d          -6.581  49.593   2.048  0.00  0.00    -0.087 C 
ATOM     57  C19 N44 d          -7.756  49.686   2.683  0.00  0.00    -0.123 C 
ATOM     58  H12 N44 d          -7.888  50.416   3.479  0.00  0.00     0.066 H 
ATOM     59  H13 N44 d          -8.579  49.030   2.403  0.00  0.00     0.066 H 
ATOM     60  H14 N44 d          -5.769  50.256   2.340  0.00  0.00     0.078 H 
ENDBRANCH  53  56
ENDBRANCH  32  53
ENDBRANCH   1  32
TORSDOF 10
ENDMDL
MODEL 8
REMARK VINA RESULT:      -6.4      2.426      6.024
REMARK  10 active torsions:
REMARK  status: ('A' for Active; 'I' for Inactive)
REMARK    1  A    between atoms: C12_12  and  C21_21 
REMARK    2  A    between atoms: C13_13  and  C22_22 
REMARK    3  A    between atoms: C24_24  and  C14_14 
REMARK    4  A    between atoms: C25_25  and  C15_15 
REMARK    5  A    between atoms: C26_26  and  C16_16 
REMARK    6  A    between atoms: C27_27  and  C20_20 
REMARK       I    between atoms: C21_21  and  N28_28 
REMARK    7  A    between atoms: N28_28  and  C24_24 
REMARK    8  A    between atoms: N29_29  and  C25_25 
REMARK    9  A    between atoms: N29_29  and  C26_26 
REMARK   10  A    between atoms: C27_27  and  N29_29 
ROOT
ATOM      1  C25 N44 d         -10.823  47.638   0.157  0.00  0.00     0.109 C 
ATOM      2  H19 N44 d         -10.170  47.830  -0.707  0.00  0.00     0.083 H 
ATOM      3  H20 N44 d         -11.276  46.640   0.060  0.00  0.00     0.083 H 
ENDROOT
BRANCH   1   4
ATOM      4  C15 N44 d         -11.919  48.645   0.139  0.00  0.00    -0.017 A 
ATOM      5  C9  N44 d         -11.582  49.965   0.370  0.00  0.00    -0.074 A 
ATOM      6  C5  N44 d         -12.544  50.961   0.373  0.00  0.00    -0.082 A 
ATOM      7  H9  N44 d         -10.546  50.226   0.553  0.00  0.00     0.084 H 
ATOM      8  C2  N44 d         -13.853  50.614   0.145  0.00  0.00    -0.082 A 
ATOM      9  H5  N44 d         -12.269  51.993   0.552  0.00  0.00     0.083 H 
ATOM     10  C6  N44 d         -14.202  49.297  -0.089  0.00  0.00    -0.067 A 
ATOM     11  H2  N44 d         -14.619  51.380   0.148  0.00  0.00     0.083 H 
ATOM     12  C12 N44 d         -13.243  48.300  -0.098  0.00  0.00     0.040 A 
ATOM     13  H6  N44 d         -15.241  49.043  -0.267  0.00  0.00     0.085 H 
BRANCH  12  14
ATOM     14  C21 N44 d         -13.660  46.888  -0.347  0.00  0.00     0.252 C 
ATOM     15  N28 N44 d         -13.410  46.335  -1.595  0.00  0.00    -0.353 N 
ATOM     16  H25 N44 d         -12.954  46.881  -2.298  0.00  0.00     0.163 HD
ATOM     17  O31 N44 d         -14.215  46.265   0.546  0.00  0.00    -0.268 OA
BRANCH  15  18
ATOM     18  C24 N44 d         -13.807  44.973  -1.885  0.00  0.00     0.019 C 
ATOM     19  H17 N44 d         -14.572  44.659  -1.160  0.00  0.00     0.071 H 
ATOM     20  H18 N44 d         -14.225  44.928  -2.901  0.00  0.00     0.071 H 
BRANCH  18  21
ATOM     21  C14 N44 d         -12.638  44.043  -1.794  0.00  0.00    -0.041 A 
ATOM     22  C7  N44 d         -11.363  44.498  -2.049  0.00  0.00    -0.075 A 
ATOM     23  C3  N44 d         -10.282  43.653  -1.950  0.00  0.00    -0.082 A 
ATOM     24  H7  N44 d         -11.209  45.532  -2.333  0.00  0.00     0.084 H 
ATOM     25  C1  N44 d         -10.468  42.333  -1.595  0.00  0.00    -0.083 A 
ATOM     26  H3  N44 d          -9.284  44.024  -2.150  0.00  0.00     0.083 H 
ATOM     27  C4  N44 d         -11.741  41.865  -1.356  0.00  0.00    -0.082 A 
ATOM     28  H1  N44 d          -9.616  41.668  -1.504  0.00  0.00     0.083 H 
ATOM     29  C8  N44 d         -12.821  42.717  -1.449  0.00  0.00    -0.075 A 
ATOM     30  H4  N44 d         -11.894  40.825  -1.095  0.00  0.00     0.083 H 
ATOM     31  H8  N44 d         -13.819  42.345  -1.251  0.00  0.00     0.084 H 
ENDBRANCH  18  21
ENDBRANCH  15  18
ENDBRANCH  12  14
ENDBRANCH   1   4
BRANCH   1  32
ATOM     32  N29 N44 d          -9.978  47.641   1.381  0.00  0.00    -0.060 N 
ATOM     33  H26 N44 d         -10.177  48.529   1.814  0.00  0.00     0.281 HD
BRANCH  32  34
ATOM     34  C26 N44 d          -8.489  47.688   1.159  0.00  0.00     0.109 C 
ATOM     35  H21 N44 d          -8.285  48.116   0.167  0.00  0.00     0.083 H 
ATOM     36  H22 N44 d          -8.028  48.319   1.932  0.00  0.00     0.083 H 
BRANCH  34  37
ATOM     37  C16 N44 d          -7.902  46.307   1.233  0.00  0.00    -0.013 A 
ATOM     38  C10 N44 d          -8.075  45.472   0.129  0.00  0.00    -0.071 A 
ATOM     39  C11 N44 d          -7.570  44.178   0.114  0.00  0.00    -0.047 A 
ATOM     40  H10 N44 d          -8.616  45.840  -0.736  0.00  0.00     0.084 H 
ATOM     41  C17 N44 d          -6.897  43.764   1.240  0.00  0.00     0.106 A 
ATOM     42  H11 N44 d          -7.699  43.527  -0.744  0.00  0.00     0.087 H 
ATOM     43  C18 N44 d          -6.722  44.576   2.332  0.00  0.00     0.122 A 
ATOM     44  O33 N44 d          -6.339  42.520   1.403  0.00  0.00    -0.323 OA
ATOM     45  C13 N44 d          -7.220  45.872   2.372  0.00  0.00     0.085 A 
ATOM     46  O34 N44 d          -6.017  43.925   3.345  0.00  0.00    -0.322 OA
ATOM     47  C23 N44 d          -5.785  42.643   2.733  0.00  0.00     0.115 A 
ATOM     48  H15 N44 d          -4.699  42.479   2.672  0.00  0.00     0.118 H 
ATOM     49  H16 N44 d          -6.238  41.868   3.369  0.00  0.00     0.118 H 
BRANCH  45  50
ATOM     50  C22 N44 d          -7.001  46.760   3.571  0.00  0.00     0.212 C 
ATOM     51  O30 N44 d          -7.801  46.609   4.535  0.00  0.00    -0.644 OA
ATOM     52  O32 N44 d          -6.031  47.576   3.599  0.00  0.00    -0.644 OA
ENDBRANCH  45  50
ENDBRANCH  34  37
ENDBRANCH  32  34
BRANCH  32  53
ATOM     53  C27 N44 d         -10.455  46.628   2.382  0.00  0.00     0.099 C 
ATOM     54  H23 N44 d          -9.574  46.175   2.858  0.00  0.00     0.082 H 
ATOM     55  H24 N44 d         -11.055  47.152   3.141  0.00  0.00     0.082 H 
BRANCH  53  56
ATOM     56  C20 N44 d         -11.287  45.534   1.805  0.00  0.00    -0.087 C 
ATOM     57  C19 N44 d         -10.867  44.264   1.781  0.00  0.00    -0.123 C 
ATOM     58  H12 N44 d         -11.500  43.489   1.352  0.00  0.00     0.066 H 
ATOM     59  H13 N44 d          -9.892  44.005   2.189  0.00  0.00     0.066 H 
ATOM     60  H14 N44 d         -12.265  45.775   1.392  0.00  0.00     0.078 H 
ENDBRANCH  53  56
ENDBRANCH  32  53
ENDBRANCH   1  32
TORSDOF 10
ENDMDL
MODEL 9
REMARK VINA RESULT:      -6.2      2.231      4.104
REMARK  10 active torsions:
REMARK  status: ('A' for Active; 'I' for Inactive)
REMARK    1  A    between atoms: C12_12  and  C21_21 
REMARK    2  A    between atoms: C13_13  and  C22_22 
REMARK    3  A    between atoms: C24_24  and  C14_14 
REMARK    4  A    between atoms: C25_25  and  C15_15 
REMARK    5  A    between atoms: C26_26  and  C16_16 
REMARK    6  A    between atoms: C27_27  and  C20_20 
REMARK       I    between atoms: C21_21  and  N28_28 
REMARK    7  A    between atoms: N28_28  and  C24_24 
REMARK    8  A    between atoms: N29_29  and  C25_25 
REMARK    9  A    between atoms: N29_29  and  C26_26 
REMARK   10  A    between atoms: C27_27  and  N29_29 
ROOT
ATOM      1  C25 N44 d          -9.046  47.659   4.315  0.00  0.00     0.109 C 
ATOM      2  H19 N44 d          -9.286  48.268   5.200  0.00  0.00     0.083 H 
ATOM      3  H20 N44 d          -8.830  46.627   4.628  0.00  0.00     0.083 H 
ENDROOT
BRANCH   1   4
ATOM      4  C15 N44 d          -7.815  48.219   3.692  0.00  0.00    -0.017 A 
ATOM      5  C9  N44 d          -7.716  49.593   3.586  0.00  0.00    -0.074 A 
ATOM      6  C5  N44 d          -6.606  50.190   3.016  0.00  0.00    -0.082 A 
ATOM      7  H9  N44 d          -8.523  50.215   3.957  0.00  0.00     0.084 H 
ATOM      8  C2  N44 d          -5.594  49.389   2.547  0.00  0.00    -0.082 A 
ATOM      9  H5  N44 d          -6.536  51.269   2.940  0.00  0.00     0.083 H 
ATOM     10  C6  N44 d          -5.680  48.014   2.647  0.00  0.00    -0.067 A 
ATOM     11  H2  N44 d          -4.718  49.840   2.093  0.00  0.00     0.083 H 
ATOM     12  C12 N44 d          -6.787  47.413   3.222  0.00  0.00     0.040 A 
ATOM     13  H6  N44 d          -4.871  47.398   2.272  0.00  0.00     0.085 H 
BRANCH  12  14
ATOM     14  C21 N44 d          -6.847  45.923   3.306  0.00  0.00     0.252 C 
ATOM     15  N28 N44 d          -7.333  45.219   2.212  0.00  0.00    -0.353 N 
ATOM     16  H25 N44 d          -7.625  45.712   1.393  0.00  0.00     0.163 HD
ATOM     17  O31 N44 d          -6.479  45.370   4.331  0.00  0.00    -0.268 OA
BRANCH  15  18
ATOM     18  C24 N44 d          -7.418  43.773   2.254  0.00  0.00     0.019 C 
ATOM     19  H17 N44 d          -6.403  43.354   2.316  0.00  0.00     0.071 H 
ATOM     20  H18 N44 d          -7.994  43.472   3.142  0.00  0.00     0.071 H 
BRANCH  18  21
ATOM     21  C14 N44 d          -8.093  43.242   1.029  0.00  0.00    -0.041 A 
ATOM     22  C7  N44 d          -8.673  41.992   1.036  0.00  0.00    -0.075 A 
ATOM     23  C3  N44 d          -9.310  41.505  -0.081  0.00  0.00    -0.082 A 
ATOM     24  H7  N44 d          -8.626  41.385   1.933  0.00  0.00     0.084 H 
ATOM     25  C1  N44 d          -9.370  42.267  -1.228  0.00  0.00    -0.083 A 
ATOM     26  H3  N44 d          -9.765  40.522  -0.060  0.00  0.00     0.083 H 
ATOM     27  C4  N44 d          -8.777  43.510  -1.252  0.00  0.00    -0.082 A 
ATOM     28  H1  N44 d          -9.882  41.891  -2.107  0.00  0.00     0.083 H 
ATOM     29  C8  N44 d          -8.146  43.998  -0.127  0.00  0.00    -0.075 A 
ATOM     30  H4  N44 d          -8.806  44.106  -2.157  0.00  0.00     0.083 H 
ATOM     31  H8  N44 d          -7.689  44.981  -0.149  0.00  0.00     0.084 H 
ENDBRANCH  18  21
ENDBRANCH  15  18
ENDBRANCH  12  14
ENDBRANCH   1   4
BRANCH   1  32
ATOM     32  N29 N44 d         -10.246  47.631   3.438  0.00  0.00    -0.060 N 
ATOM     33  H26 N44 d         -10.586  46.686   3.518  0.00  0.00     0.281 HD
BRANCH  32  34
ATOM     34  C26 N44 d          -9.991  47.783   1.961  0.00  0.00     0.109 C 
ATOM     35  H21 N44 d         -10.322  48.780   1.637  0.00  0.00     0.083 H 
ATOM     36  H22 N44 d          -8.914  47.674   1.766  0.00  0.00     0.083 H 
BRANCH  34  37
ATOM     37  C16 N44 d         -10.743  46.737   1.187  0.00  0.00    -0.013 A 
ATOM     38  C10 N44 d         -10.924  45.493   1.791  0.00  0.00    -0.071 A 
ATOM     39  C11 N44 d         -11.602  44.467   1.145  0.00  0.00    -0.047 A 
ATOM     40  H10 N44 d         -10.527  45.322   2.785  0.00  0.00     0.084 H 
ATOM     41  C17 N44 d         -12.079  44.739  -0.116  0.00  0.00     0.106 A 
ATOM     42  H11 N44 d         -11.749  43.499   1.613  0.00  0.00     0.087 H 
ATOM     43  C18 N44 d         -11.906  45.959  -0.721  0.00  0.00     0.122 A 
ATOM     44  O33 N44 d         -12.765  43.845  -0.901  0.00  0.00    -0.323 OA
ATOM     45  C13 N44 d         -11.229  46.999  -0.097  0.00  0.00     0.085 A 
ATOM     46  O34 N44 d         -12.472  45.982  -1.996  0.00  0.00    -0.322 OA
ATOM     47  C23 N44 d         -13.007  44.649  -2.078  0.00  0.00     0.115 A 
ATOM     48  H15 N44 d         -14.095  44.721  -2.230  0.00  0.00     0.118 H 
ATOM     49  H16 N44 d         -12.549  44.144  -2.942  0.00  0.00     0.118 H 
BRANCH  45  50
ATOM     50  C22 N44 d         -11.065  48.341  -0.765  0.00  0.00     0.212 C 
ATOM     51  O30 N44 d         -11.930  49.217  -0.486  0.00  0.00    -0.644 OA
ATOM     52  O32 N44 d         -10.076  48.563  -1.527  0.00  0.00    -0.644 OA
ENDBRANCH  45  50
ENDBRANCH  34  37
ENDBRANCH  32  34
BRANCH  32  53
ATOM     53  C27 N44 d         -11.357  48.472   3.996  0.00  0.00     0.099 C 
ATOM     54  H23 N44 d         -12.233  47.825   4.148  0.00  0.00     0.082 H 
ATOM     55  H24 N44 d         -11.027  48.878   4.965  0.00  0.00     0.082 H 
BRANCH  53  56
ATOM     56  C20 N44 d         -11.764  49.613   3.128  0.00  0.00    -0.087 C 
ATOM     57  C19 N44 d         -11.303  50.853   3.328  0.00  0.00    -0.123 C 
ATOM     58  H12 N44 d         -11.621  51.664   2.674  0.00  0.00     0.066 H 
ATOM     59  H13 N44 d         -10.609  51.051   4.143  0.00  0.00     0.066 H 
ATOM     60  H14 N44 d         -12.457  49.433   2.309  0.00  0.00     0.078 H 
ENDBRANCH  53  56
ENDBRANCH  32  53
ENDBRANCH   1  32
TORSDOF 10
ENDMDL
MODEL 10
REMARK VINA RESULT:      -6.2      2.138      6.365
REMARK  10 active torsions:
REMARK  status: ('A' for Active; 'I' for Inactive)
REMARK    1  A    between atoms: C12_12  and  C21_21 
REMARK    2  A    between atoms: C13_13  and  C22_22 
REMARK    3  A    between atoms: C24_24  and  C14_14 
REMARK    4  A    between atoms: C25_25  and  C15_15 
REMARK    5  A    between atoms: C26_26  and  C16_16 
REMARK    6  A    between atoms: C27_27  and  C20_20 
REMARK       I    between atoms: C21_21  and  N28_28 
REMARK    7  A    between atoms: N28_28  and  C24_24 
REMARK    8  A    between atoms: N29_29  and  C25_25 
REMARK    9  A    between atoms: N29_29  and  C26_26 
REMARK   10  A    between atoms: C27_27  and  N29_29 
ROOT
ATOM      1  C25 N44 d         -10.866  48.263   1.029  0.00  0.00     0.109 C 
ATOM      2  H19 N44 d         -11.538  49.048   1.406  0.00  0.00     0.083 H 
ATOM      3  H20 N44 d         -10.445  47.702   1.877  0.00  0.00     0.083 H 
ENDROOT
BRANCH   1   4
ATOM      4  C15 N44 d          -9.743  48.925   0.310  0.00  0.00    -0.017 A 
ATOM      5  C9  N44 d          -9.978  49.372  -0.976  0.00  0.00    -0.074 A 
ATOM      6  C5  N44 d          -8.984  49.994  -1.712  0.00  0.00    -0.082 A 
ATOM      7  H9  N44 d         -10.958  49.233  -1.417  0.00  0.00     0.084 H 
ATOM      8  C2  N44 d          -7.746  50.159  -1.141  0.00  0.00    -0.082 A 
ATOM      9  H5  N44 d          -9.180  50.344  -2.718  0.00  0.00     0.083 H 
ATOM     10  C6  N44 d          -7.499  49.718   0.145  0.00  0.00    -0.067 A 
ATOM     11  H2  N44 d          -6.955  50.641  -1.704  0.00  0.00     0.083 H 
ATOM     12  C12 N44 d          -8.492  49.099   0.886  0.00  0.00     0.040 A 
ATOM     13  H6  N44 d          -6.515  49.857   0.579  0.00  0.00     0.085 H 
BRANCH  12  14
ATOM     14  C21 N44 d          -8.184  48.629   2.269  0.00  0.00     0.252 C 
ATOM     15  N28 N44 d          -7.323  47.551   2.424  0.00  0.00    -0.353 N 
ATOM     16  H25 N44 d          -6.921  47.115   1.619  0.00  0.00     0.163 HD
ATOM     17  O31 N44 d          -8.702  49.196   3.219  0.00  0.00    -0.268 OA
BRANCH  15  18
ATOM     18  C24 N44 d          -7.004  47.055   3.747  0.00  0.00     0.019 C 
ATOM     19  H17 N44 d          -6.186  47.657   4.170  0.00  0.00     0.071 H 
ATOM     20  H18 N44 d          -7.894  47.142   4.388  0.00  0.00     0.071 H 
BRANCH  18  21
ATOM     21  C14 N44 d          -6.578  45.622   3.693  0.00  0.00    -0.041 A 
ATOM     22  C7  N44 d          -6.718  44.809   4.797  0.00  0.00    -0.075 A 
ATOM     23  C3  N44 d          -6.345  43.486   4.747  0.00  0.00    -0.082 A 
ATOM     24  H7  N44 d          -7.126  45.216   5.714  0.00  0.00     0.084 H 
ATOM     25  C1  N44 d          -5.820  42.959   3.586  0.00  0.00    -0.083 A 
ATOM     26  H3  N44 d          -6.464  42.857   5.622  0.00  0.00     0.083 H 
ATOM     27  C4  N44 d          -5.658  43.768   2.484  0.00  0.00    -0.082 A 
ATOM     28  H1  N44 d          -5.536  41.914   3.541  0.00  0.00     0.083 H 
ATOM     29  C8  N44 d          -6.041  45.092   2.535  0.00  0.00    -0.075 A 
ATOM     30  H4  N44 d          -5.229  43.364   1.575  0.00  0.00     0.083 H 
ATOM     31  H8  N44 d          -5.920  45.722   1.660  0.00  0.00     0.084 H 
ENDBRANCH  18  21
ENDBRANCH  15  18
ENDBRANCH  12  14
ENDBRANCH   1   4
BRANCH   1  32
ATOM     32  N29 N44 d         -11.675  47.320   0.212  0.00  0.00    -0.060 N 
ATOM     33  H26 N44 d         -11.651  46.459   0.736  0.00  0.00     0.281 HD
BRANCH  32  34
ATOM     34  C26 N44 d         -11.093  46.930  -1.122  0.00  0.00     0.109 C 
ATOM     35  H21 N44 d         -11.681  47.398  -1.924  0.00  0.00     0.083 H 
ATOM     36  H22 N44 d         -10.052  47.281  -1.179  0.00  0.00     0.083 H 
BRANCH  34  37
ATOM     37  C16 N44 d         -11.122  45.438  -1.292  0.00  0.00    -0.013 A 
ATOM     38  C10 N44 d         -12.194  44.889  -1.996  0.00  0.00    -0.071 A 
ATOM     39  C11 N44 d         -12.302  43.519  -2.197  0.00  0.00    -0.047 A 
ATOM     40  H10 N44 d         -12.958  45.545  -2.396  0.00  0.00     0.084 H 
ATOM     41  C17 N44 d         -11.305  42.735  -1.663  0.00  0.00     0.106 A 
ATOM     42  H11 N44 d         -13.132  43.088  -2.747  0.00  0.00     0.087 H 
ATOM     43  C18 N44 d         -10.246  43.264  -0.968  0.00  0.00     0.122 A 
ATOM     44  O33 N44 d         -11.253  41.366  -1.758  0.00  0.00    -0.323 OA
ATOM     45  C13 N44 d         -10.117  44.630  -0.753  0.00  0.00     0.085 A 
ATOM     46  O34 N44 d          -9.378  42.266  -0.524  0.00  0.00    -0.322 OA
ATOM     47  C23 N44 d         -10.030  41.091  -1.038  0.00  0.00     0.115 A 
ATOM     48  H15 N44 d          -9.335  40.579  -1.721  0.00  0.00     0.118 H 
ATOM     49  H16 N44 d         -10.268  40.429  -0.192  0.00  0.00     0.118 H 
BRANCH  45  50
ATOM     50  C22 N44 d          -8.938  45.198  -0.005  0.00  0.00     0.212 C 
ATOM     51  O30 N44 d          -9.116  45.446   1.220  0.00  0.00    -0.644 OA
ATOM     52  O32 N44 d          -7.826  45.367  -0.590  0.00  0.00    -0.644 OA
ENDBRANCH  45  50
ENDBRANCH  34  37
ENDBRANCH  32  34
BRANCH  32  53
ATOM     53  C27 N44 d         -13.126  47.705   0.201  0.00  0.00     0.099 C 
ATOM     54  H23 N44 d         -13.217  48.713   0.631  0.00  0.00     0.082 H 
ATOM     55  H24 N44 d         -13.470  47.718  -0.844  0.00  0.00     0.082 H 
BRANCH  53  56
ATOM     56  C20 N44 d         -14.014  46.789   0.972  0.00  0.00    -0.087 C 
ATOM     57  C19 N44 d         -13.594  45.593   1.401  0.00  0.00    -0.123 C 
ATOM     58  H12 N44 d         -14.269  44.948   1.962  0.00  0.00     0.066 H 
ATOM     59  H13 N44 d         -12.578  45.264   1.189  0.00  0.00     0.066 H 
ATOM     60  H14 N44 d         -15.033  47.101   1.192  0.00  0.00     0.078 H 
ENDBRANCH  53  56
ENDBRANCH  32  53
ENDBRANCH   1  32
TORSDOF 10
ENDMDL
