MODEL 1
REMARK VINA RESULT:      -4.3      0.000      0.000
REMARK WARNING: 32 MAX_TORS EXCEEDED!!!
REMARK  36 active torsions:
REMARK  status: ('A' for Active; 'I' for Inactive)
REMARK    1  A    between atoms: C6_6  and  N6_7 
REMARK    2  A    between atoms: CCN_19  and  N9_10 
REMARK    3  A    between atoms: CCK_16  and  OAN_12 
REMARK    4  A    between atoms: CCL_17  and  OAO_13 
REMARK    5  A    between atoms: CCC_15  and  CCM_18 
REMARK       I    between atoms: NBR_27  and  CCC_15 
REMARK    6  A    between atoms: CBZ_20  and  CBG_22 
REMARK       I    between atoms: NBS_28  and  CBZ_20 
REMARK    7  A    between atoms: CBG_22  and  CAX_23 
REMARK    8  A    between atoms: CAX_23  and  CAU_24 
REMARK    9  A    between atoms: CAU_24  and  CAW_25 
REMARK   10  A    between atoms: CAW_25  and  CBD_26 
REMARK   11  A    between atoms: CBD_26  and  NBR_27 
REMARK   12  A    between atoms: CCI_29  and  NBS_28 
REMARK   13  A    between atoms: CCB_30  and  CCI_29 
REMARK   14  A    between atoms: CCI_29  and  CBJ_32 
REMARK       I    between atoms: NBQ_44  and  CCB_30 
REMARK   15  A    between atoms: CBJ_32  and  CAZ_33 
REMARK   16  A    between atoms: CAZ_33  and  CAS_34 
REMARK   17  A    between atoms: CAS_34  and  CAR_35 
REMARK   18  A    between atoms: CAR_35  and  NAC_36 
REMARK   19  A    between atoms: CBH_39  and  CCA_37 
REMARK       I    between atoms: CCA_37  and  NBT_45 
REMARK   20  A    between atoms: CAY_40  and  CBH_39 
REMARK   21  A    between atoms: CAT_41  and  CAY_40 
REMARK   22  A    between atoms: CAV_42  and  CAT_41 
REMARK   23  A    between atoms: CBC_43  and  CAV_42 
REMARK   24  A    between atoms: CBC_43  and  NBQ_44 
REMARK   25  A    between atoms: NBT_45  and  CCJ_46 
REMARK   26  A    between atoms: CCJ_46  and  CBK_47 
REMARK   27  A    between atoms: CCJ_46  and  CCD_54 
REMARK   28  A    between atoms: CBK_47  and  CBB_48 
REMARK   29  A    between atoms: CBB_48  and  CBF_49 
REMARK   30  A    between atoms: CBF_49  and  NBP_50 
REMARK       I    between atoms: NBP_50  and  CBX_51 
REMARK       I    between atoms: CBX_51  and  NAB_52 
REMARK       I    between atoms: CBX_51  and  NAE_53 
REMARK       I    between atoms: CCD_54  and  N_56 
REMARK   31  A    between atoms: N_56  and  CA_57 
REMARK   32  A    between atoms: CA_57  and  CB_58 
REMARK   33  A    between atoms: CA_57  and  C_65 
REMARK   34  A    between atoms: CB_58  and  CG_59 
REMARK   35  A    between atoms: CG_59  and  CD_60 
REMARK   36  A    between atoms: CD_60  and  NE_61 
REMARK       I    between atoms: NE_61  and  CZ_62 
REMARK       I    between atoms: CZ_62  and  NH1_63 
REMARK       I    between atoms: C_65  and  NAF_67 
ROOT
ATOM      1  CCB A02 d          12.400   8.349   2.358  0.00  0.00     0.240 C 
ATOM      2  OAK A02 d          11.576   8.391   1.453  0.00  0.00    -0.271 OA
ATOM      3  NBQ A02 d          13.542   7.667   2.289  0.00  0.00    -0.359 N 
ATOM      4  H45 A02 d          14.157   7.675   3.078  0.00  0.00     0.162 HD
ENDROOT
BRANCH   1   5
ATOM      5  CCI A02 d          12.136   9.084   3.695  0.00  0.00     0.089 C 
ATOM      6  H23 A02 d          13.013   8.908   4.336  0.00  0.00     0.087 H 
BRANCH   5   7
ATOM      7  NBS A02 d          10.959   8.501   4.390  0.00  0.00    -0.348 N 
ATOM      8  CBZ A02 d          11.040   7.348   5.073  0.00  0.00     0.218 C 
ATOM      9  OAI A02 d          12.060   6.654   5.148  0.00  0.00    -0.274 OA
ATOM     10  H22 A02 d          10.083   8.980   4.347  0.00  0.00     0.163 HD
BRANCH   8  11
ATOM     11  CBG A02 d           9.726   6.891   5.739  0.00  0.00     0.009 C 
ATOM     12  H11 A02 d           9.960   6.142   6.510  0.00  0.00     0.047 H 
ATOM     13  H12 A02 d           9.077   6.439   4.974  0.00  0.00     0.047 H 
BRANCH  11  14
ATOM     14  CAX A02 d           8.976   8.066   6.398  0.00  0.00    -0.057 C 
ATOM     15  H13 A02 d           8.446   8.634   5.619  0.00  0.00     0.033 H 
ATOM     16  H14 A02 d           9.705   8.721   6.898  0.00  0.00     0.033 H 
BRANCH  14  17
ATOM     17  CAU A02 d           7.961   7.567   7.432  0.00  0.00    -0.063 C 
ATOM     18  H15 A02 d           7.948   6.467   7.410  0.00  0.00     0.033 H 
ATOM     19  H16 A02 d           6.966   7.951   7.160  0.00  0.00     0.033 H 
BRANCH  17  20
ATOM     20  CAW A02 d           8.288   8.024   8.856  0.00  0.00    -0.050 C 
ATOM     21  H17 A02 d           8.496   7.150   9.492  0.00  0.00     0.035 H 
ATOM     22  H18 A02 d           7.441   8.588   9.274  0.00  0.00     0.035 H 
BRANCH  20  23
ATOM     23  CBD A02 d           9.526   8.920   8.780  0.00  0.00    -0.005 C 
ATOM     24  H19 A02 d           9.224   9.956   8.994  0.00  0.00     0.064 H 
ATOM     25  H20 A02 d           9.940   8.862   7.763  0.00  0.00     0.064 H 
BRANCH  23  26
ATOM     26  NBR A02 d          10.573   8.526   9.739  0.00  0.00    -0.359 N 
ATOM     27  CCC A02 d          11.286   7.402   9.657  0.00  0.00     0.249 C 
ATOM     28  OAL A02 d          11.109   6.520   8.804  0.00  0.00    -0.271 OA
ATOM     29  H21 A02 d          10.762   9.144  10.503  0.00  0.00     0.162 HD
BRANCH  27  30
ATOM     30  CCM A02 d          12.397   7.220  10.708  0.00  0.00     0.144 C 
ATOM     31  OBV A02 d          13.274   6.093  10.370  0.00  0.00    -0.346 OA
ATOM     32  CCN A02 d          14.531   6.610   9.843  0.00  0.00     0.140 C 
ATOM     33  CCL A02 d          14.281   8.112   9.608  0.00  0.00     0.105 C 
ATOM     34  H10 A02 d          15.326   6.486  10.593  0.00  0.00     0.123 H 
ATOM     35  CCK A02 d          13.299   8.454  10.713  0.00  0.00     0.098 C 
ATOM     36  H8  A02 d          13.861   8.306   8.609  0.00  0.00     0.093 H 
ATOM     37  H7  A02 d          12.746   9.383  10.513  0.00  0.00     0.091 H 
ATOM     38  H9  A02 d          11.944   7.066  11.698  0.00  0.00     0.102 H 
BRANCH  32  39
ATOM     39  N9  A02 d          14.956   5.873   8.577  0.00  0.00    -0.294 N 
ATOM     40  C4  A02 d          15.387   4.617   8.511  0.00  0.00     0.167 A 
ATOM     41  N3  A02 d          15.586   3.666   9.437  0.00  0.00    -0.222 NA
ATOM     42  C5  A02 d          15.674   4.349   7.179  0.00  0.00     0.149 A 
ATOM     43  C2  A02 d          16.039   2.470   9.086  0.00  0.00     0.091 A 
ATOM     44  N1  A02 d          16.316   2.180   7.807  0.00  0.00    -0.222 NA
ATOM     45  H1  A02 d          16.188   1.712   9.848  0.00  0.00     0.146 H 
ATOM     46  C6  A02 d          16.150   3.094   6.838  0.00  0.00     0.155 A 
ATOM     47  N7  A02 d          15.405   5.440   6.465  0.00  0.00    -0.236 NA
ATOM     48  C8  A02 d          14.956   6.360   7.326  0.00  0.00     0.071 A 
ATOM     49  H4  A02 d          14.636   7.364   7.051  0.00  0.00     0.144 H 
BRANCH  46  50
ATOM     50  N6  A02 d          16.437   2.812   5.572  0.00  0.00    -0.382 N 
ATOM     51  H2  A02 d          16.317   1.852   5.219  0.00  0.00     0.157 HD
ATOM     52  H3  A02 d          16.780   3.552   4.943  0.00  0.00     0.157 HD
ENDBRANCH  46  50
ENDBRANCH  32  39
BRANCH  33  53
ATOM     53  OAO A02 d          15.481   8.849   9.790  0.00  0.00    -0.388 OA
ATOM     54  H6  A02 d          16.226   8.287   9.613  0.00  0.00     0.210 HD
ENDBRANCH  33  53
BRANCH  35  55
ATOM     55  OAN A02 d          13.992   8.529  11.975  0.00  0.00    -0.390 OA
ATOM     56  H5  A02 d          13.562   9.167  12.533  0.00  0.00     0.210 HD
ENDBRANCH  35  55
ENDBRANCH  27  30
ENDBRANCH  23  26
ENDBRANCH  20  23
ENDBRANCH  17  20
ENDBRANCH  14  17
ENDBRANCH  11  14
ENDBRANCH   8  11
ENDBRANCH   5   7
BRANCH   5  57
ATOM     57  CBJ A02 d          12.004  10.615   3.530  0.00  0.00    -0.038 C 
ATOM     58  H24 A02 d          12.828  10.959   2.888  0.00  0.00     0.036 H 
ATOM     59  H25 A02 d          12.100  11.073   4.526  0.00  0.00     0.036 H 
BRANCH  57  60
ATOM     60  CAZ A02 d          10.688  11.096   2.911  0.00  0.00    -0.061 C 
ATOM     61  H26 A02 d          10.178  11.766   3.618  0.00  0.00     0.033 H 
ATOM     62  H27 A02 d          10.047  10.227   2.702  0.00  0.00     0.033 H 
BRANCH  60  63
ATOM     63  CAS A02 d          10.963  11.855   1.596  0.00  0.00    -0.043 C 
ATOM     64  H28 A02 d          11.888  11.466   1.144  0.00  0.00     0.035 H 
ATOM     65  H29 A02 d          11.085  12.926   1.819  0.00  0.00     0.035 H 
BRANCH  63  66
ATOM     66  CAR A02 d           9.807  11.678   0.601  0.00  0.00     0.080 C 
ATOM     67  H30 A02 d          10.111  12.063  -0.384  0.00  0.00     0.075 H 
ATOM     68  H31 A02 d           8.929  12.238   0.958  0.00  0.00     0.075 H 
BRANCH  66  69
ATOM     69  NAC A02 d           9.459  10.250   0.481  0.00  0.00    -0.079 N 
ATOM     70  H32 A02 d           8.474  10.128   0.661  0.00  0.00     0.274 HD
ATOM     71  H33 A02 d           9.992   9.717   1.151  0.00  0.00     0.274 HD
ATOM     72  H34 A02 d           9.673   9.930  -0.450  0.00  0.00     0.274 HD
ENDBRANCH  66  69
ENDBRANCH  63  66
ENDBRANCH  60  63
ENDBRANCH  57  60
ENDBRANCH   5  57
ENDBRANCH   1   5
BRANCH   3  73
ATOM     73  CBC A02 d          13.936   6.896   1.087  0.00  0.00    -0.005 C 
ATOM     74  H43 A02 d          13.087   6.855   0.389  0.00  0.00     0.064 H 
ATOM     75  H44 A02 d          14.787   7.395   0.600  0.00  0.00     0.064 H 
BRANCH  73  76
ATOM     76  CAV A02 d          14.341   5.469   1.472  0.00  0.00    -0.050 C 
ATOM     77  H41 A02 d          13.474   4.951   1.908  0.00  0.00     0.035 H 
ATOM     78  H42 A02 d          14.674   4.932   0.572  0.00  0.00     0.035 H 
BRANCH  76  79
ATOM     79  CAT A02 d          15.482   5.492   2.497  0.00  0.00    -0.063 C 
ATOM     80  H39 A02 d          15.426   6.428   3.070  0.00  0.00     0.033 H 
ATOM     81  H40 A02 d          15.365   4.637   3.179  0.00  0.00     0.033 H 
BRANCH  79  82
ATOM     82  CAY A02 d          16.855   5.403   1.823  0.00  0.00    -0.057 C 
ATOM     83  H37 A02 d          17.515   4.777   2.441  0.00  0.00     0.033 H 
ATOM     84  H38 A02 d          16.736   4.944   0.831  0.00  0.00     0.033 H 
BRANCH  82  85
ATOM     85  CBH A02 d          17.498   6.790   1.656  0.00  0.00     0.009 C 
ATOM     86  H35 A02 d          17.992   6.838   0.675  0.00  0.00     0.047 H 
ATOM     87  H36 A02 d          16.710   7.557   1.708  0.00  0.00     0.047 H 
BRANCH  85  88
ATOM     88  CCA A02 d          18.539   7.070   2.753  0.00  0.00     0.218 C 
ATOM     89  OAJ A02 d          19.703   6.672   2.637  0.00  0.00    -0.274 OA
ATOM     90  NBT A02 d          18.083   7.768   3.800  0.00  0.00    -0.348 N 
ATOM     91  H46 A02 d          17.125   8.057   3.799  0.00  0.00     0.163 HD
BRANCH  90  92
ATOM     92  CCJ A02 d          18.929   8.135   4.962  0.00  0.00     0.089 C 
ATOM     93  H47 A02 d          19.973   7.904   4.706  0.00  0.00     0.087 H 
BRANCH  92  94
ATOM     94  CBK A02 d          18.553   7.307   6.219  0.00  0.00    -0.036 C 
ATOM     95  H48 A02 d          17.465   7.375   6.363  0.00  0.00     0.036 H 
ATOM     96  H49 A02 d          19.067   7.745   7.086  0.00  0.00     0.036 H 
BRANCH  94  97
ATOM     97  CBB A02 d          18.934   5.818   6.138  0.00  0.00    -0.048 C 
ATOM     98  H50 A02 d          19.358   5.615   5.143  0.00  0.00     0.035 H 
ATOM     99  H51 A02 d          18.027   5.213   6.281  0.00  0.00     0.035 H 
BRANCH  97 100
ATOM    100  CBF A02 d          19.967   5.421   7.205  0.00  0.00     0.009 C 
ATOM    101  H52 A02 d          20.300   6.317   7.751  0.00  0.00     0.064 H 
ATOM    102  H53 A02 d          20.832   4.942   6.725  0.00  0.00     0.064 H 
BRANCH 100 103
ATOM    103  NBP A02 d          19.326   4.477   8.140  0.00  0.00    -0.227 N 
ATOM    104  CBX A02 d          19.921   3.376   8.619  0.00  0.00     0.665 C 
ATOM    105  NAB A02 d          21.170   3.042   8.298  0.00  0.00    -0.235 N 
ATOM    106  NAE A02 d          19.237   2.598   9.453  0.00  0.00    -0.235 N 
ATOM    107  H55 A02 d          21.591   2.186   8.688  0.00  0.00     0.174 HD
ATOM    108  H56 A02 d          21.715   3.639   7.660  0.00  0.00     0.174 HD
ATOM    109  H57 A02 d          18.270   2.843   9.711  0.00  0.00     0.174 HD
ATOM    110  H58 A02 d          19.674   1.750   9.842  0.00  0.00     0.174 HD
ATOM    111  H54 A02 d          18.363   4.676   8.443  0.00  0.00     0.177 HD
ENDBRANCH 100 103
ENDBRANCH  97 100
ENDBRANCH  94  97
ENDBRANCH  92  94
BRANCH  92 112
ATOM    112  CCD A02 d          18.832   9.654   5.244  0.00  0.00     0.241 C 
ATOM    113  OAM A02 d          19.777  10.268   5.742  0.00  0.00    -0.271 OA
ATOM    114  N   A02 d          17.670  10.224   4.917  0.00  0.00    -0.346 N 
ATOM    115  H59 A02 d          16.956   9.648   4.518  0.00  0.00     0.163 HD
BRANCH 114 116
ATOM    116  CA  A02 d          17.384  11.663   5.113  0.00  0.00     0.089 C 
ATOM    117  H60 A02 d          18.157  12.086   5.770  0.00  0.00     0.087 H 
BRANCH 116 118
ATOM    118  CB  A02 d          16.016  11.830   5.787  0.00  0.00    -0.036 C 
ATOM    119  H61 A02 d          15.250  11.975   5.010  0.00  0.00     0.036 H 
ATOM    120  H62 A02 d          16.045  12.713   6.443  0.00  0.00     0.036 H 
BRANCH 118 121
ATOM    121  CG  A02 d          15.650  10.601   6.622  0.00  0.00    -0.048 C 
ATOM    122  H63 A02 d          16.224  10.623   7.561  0.00  0.00     0.035 H 
ATOM    123  H64 A02 d          15.906   9.693   6.057  0.00  0.00     0.035 H 
BRANCH 121 124
ATOM    124  CD  A02 d          14.161  10.578   6.951  0.00  0.00     0.009 C 
ATOM    125  H65 A02 d          14.017  10.461   8.035  0.00  0.00     0.064 H 
ATOM    126  H66 A02 d          13.673   9.745   6.424  0.00  0.00     0.064 H 
BRANCH 124 127
ATOM    127  NE  A02 d          13.595  11.848   6.507  0.00  0.00    -0.227 N 
ATOM    128  CZ  A02 d          12.414  12.336   6.885  0.00  0.00     0.665 C 
ATOM    129  NH1 A02 d          11.621  11.719   7.761  0.00  0.00    -0.235 N 
ATOM    130  NH2 A02 d          12.051  13.500   6.363  0.00  0.00    -0.235 N 
ATOM    131  H68 A02 d          10.717  12.139   8.021  0.00  0.00     0.174 HD
ATOM    132  H69 A02 d          11.913  10.824   8.178  0.00  0.00     0.174 HD
ATOM    133  H70 A02 d          12.665  13.975   5.687  0.00  0.00     0.174 HD
ATOM    134  H71 A02 d          11.155  13.929   6.635  0.00  0.00     0.174 HD
ATOM    135  H67 A02 d          14.152  12.413   5.850  0.00  0.00     0.177 HD
ENDBRANCH 124 127
ENDBRANCH 121 124
ENDBRANCH 118 121
ENDBRANCH 116 118
BRANCH 116 136
ATOM    136  C   A02 d          17.407  12.433   3.773  0.00  0.00     0.238 C 
ATOM    137  O   A02 d          17.247  13.654   3.723  0.00  0.00    -0.271 OA
ATOM    138  NAF A02 d          17.632  11.678   2.700  0.00  0.00    -0.368 N 
ATOM    139  H72 A02 d          17.663  12.096   1.792  0.00  0.00     0.159 HD
ATOM    140  H73 A02 d          17.770  10.692   2.802  0.00  0.00     0.159 HD
ENDBRANCH 116 136
ENDBRANCH 114 116
ENDBRANCH  92 112
ENDBRANCH  90  92
ENDBRANCH  85  88
ENDBRANCH  82  85
ENDBRANCH  79  82
ENDBRANCH  76  79
ENDBRANCH  73  76
ENDBRANCH   3  73
TORSDOF 36
ENDMDL
MODEL 2
REMARK VINA RESULT:      -4.0      2.878      7.693
REMARK WARNING: 32 MAX_TORS EXCEEDED!!!
REMARK  36 active torsions:
REMARK  status: ('A' for Active; 'I' for Inactive)
REMARK    1  A    between atoms: C6_6  and  N6_7 
REMARK    2  A    between atoms: CCN_19  and  N9_10 
REMARK    3  A    between atoms: CCK_16  and  OAN_12 
REMARK    4  A    between atoms: CCL_17  and  OAO_13 
REMARK    5  A    between atoms: CCC_15  and  CCM_18 
REMARK       I    between atoms: NBR_27  and  CCC_15 
REMARK    6  A    between atoms: CBZ_20  and  CBG_22 
REMARK       I    between atoms: NBS_28  and  CBZ_20 
REMARK    7  A    between atoms: CBG_22  and  CAX_23 
REMARK    8  A    between atoms: CAX_23  and  CAU_24 
REMARK    9  A    between atoms: CAU_24  and  CAW_25 
REMARK   10  A    between atoms: CAW_25  and  CBD_26 
REMARK   11  A    between atoms: CBD_26  and  NBR_27 
REMARK   12  A    between atoms: CCI_29  and  NBS_28 
REMARK   13  A    between atoms: CCB_30  and  CCI_29 
REMARK   14  A    between atoms: CCI_29  and  CBJ_32 
REMARK       I    between atoms: NBQ_44  and  CCB_30 
REMARK   15  A    between atoms: CBJ_32  and  CAZ_33 
REMARK   16  A    between atoms: CAZ_33  and  CAS_34 
REMARK   17  A    between atoms: CAS_34  and  CAR_35 
REMARK   18  A    between atoms: CAR_35  and  NAC_36 
REMARK   19  A    between atoms: CBH_39  and  CCA_37 
REMARK       I    between atoms: CCA_37  and  NBT_45 
REMARK   20  A    between atoms: CAY_40  and  CBH_39 
REMARK   21  A    between atoms: CAT_41  and  CAY_40 
REMARK   22  A    between atoms: CAV_42  and  CAT_41 
REMARK   23  A    between atoms: CBC_43  and  CAV_42 
REMARK   24  A    between atoms: CBC_43  and  NBQ_44 
REMARK   25  A    between atoms: NBT_45  and  CCJ_46 
REMARK   26  A    between atoms: CCJ_46  and  CBK_47 
REMARK   27  A    between atoms: CCJ_46  and  CCD_54 
REMARK   28  A    between atoms: CBK_47  and  CBB_48 
REMARK   29  A    between atoms: CBB_48  and  CBF_49 
REMARK   30  A    between atoms: CBF_49  and  NBP_50 
REMARK       I    between atoms: NBP_50  and  CBX_51 
REMARK       I    between atoms: CBX_51  and  NAB_52 
REMARK       I    between atoms: CBX_51  and  NAE_53 
REMARK       I    between atoms: CCD_54  and  N_56 
REMARK   31  A    between atoms: N_56  and  CA_57 
REMARK   32  A    between atoms: CA_57  and  CB_58 
REMARK   33  A    between atoms: CA_57  and  C_65 
REMARK   34  A    between atoms: CB_58  and  CG_59 
REMARK   35  A    between atoms: CG_59  and  CD_60 
REMARK   36  A    between atoms: CD_60  and  NE_61 
REMARK       I    between atoms: NE_61  and  CZ_62 
REMARK       I    between atoms: CZ_62  and  NH1_63 
REMARK       I    between atoms: C_65  and  NAF_67 
ROOT
ATOM      1  CCB A02 d          17.167   3.499   7.513  0.00  0.00     0.240 C 
ATOM      2  OAK A02 d          17.878   3.239   6.550  0.00  0.00    -0.271 OA
ATOM      3  NBQ A02 d          16.866   4.738   7.897  0.00  0.00    -0.359 N 
ATOM      4  H45 A02 d          16.287   4.866   8.703  0.00  0.00     0.162 HD
ENDROOT
BRANCH   1   5
ATOM      5  CCI A02 d          16.586   2.364   8.391  0.00  0.00     0.089 C 
ATOM      6  H23 A02 d          15.862   1.817   7.770  0.00  0.00     0.087 H 
BRANCH   5   7
ATOM      7  NBS A02 d          15.840   2.925   9.547  0.00  0.00    -0.348 N 
ATOM      8  CBZ A02 d          14.515   2.757   9.683  0.00  0.00     0.218 C 
ATOM      9  OAI A02 d          13.799   2.176   8.858  0.00  0.00    -0.274 OA
ATOM     10  H22 A02 d          16.338   3.443  10.242  0.00  0.00     0.163 HD
BRANCH   8  11
ATOM     11  CBG A02 d          13.901   3.398  10.944  0.00  0.00     0.009 C 
ATOM     12  H11 A02 d          14.578   3.231  11.794  0.00  0.00     0.047 H 
ATOM     13  H12 A02 d          12.931   2.921  11.149  0.00  0.00     0.047 H 
BRANCH  11  14
ATOM     14  CAX A02 d          13.684   4.914  10.770  0.00  0.00    -0.057 C 
ATOM     15  H13 A02 d          12.984   5.083   9.938  0.00  0.00     0.033 H 
ATOM     16  H14 A02 d          14.650   5.390  10.539  0.00  0.00     0.033 H 
BRANCH  14  17
ATOM     17  CAU A02 d          13.109   5.543  12.044  0.00  0.00    -0.063 C 
ATOM     18  H15 A02 d          13.811   5.364  12.872  0.00  0.00     0.033 H 
ATOM     19  H16 A02 d          12.146   5.062  12.269  0.00  0.00     0.033 H 
BRANCH  17  20
ATOM     20  CAW A02 d          12.882   7.052  11.913  0.00  0.00    -0.050 C 
ATOM     21  H17 A02 d          13.849   7.572  11.841  0.00  0.00     0.035 H 
ATOM     22  H18 A02 d          12.330   7.426  12.788  0.00  0.00     0.035 H 
BRANCH  20  23
ATOM     23  CBD A02 d          12.067   7.287  10.640  0.00  0.00    -0.005 C 
ATOM     24  H19 A02 d          11.389   8.137  10.808  0.00  0.00     0.064 H 
ATOM     25  H20 A02 d          11.476   6.384  10.429  0.00  0.00     0.064 H 
BRANCH  23  26
ATOM     26  NBR A02 d          12.912   7.581   9.470  0.00  0.00    -0.359 N 
ATOM     27  CCC A02 d          13.571   8.726   9.285  0.00  0.00     0.249 C 
ATOM     28  OAL A02 d          13.498   9.707  10.040  0.00  0.00    -0.271 OA
ATOM     29  H21 A02 d          12.998   6.875   8.767  0.00  0.00     0.162 HD
BRANCH  27  30
ATOM     30  CCM A02 d          14.475   8.802   8.040  0.00  0.00     0.144 C 
ATOM     31  OBV A02 d          13.763   8.367   6.833  0.00  0.00    -0.346 OA
ATOM     32  CCN A02 d          13.406   9.539   6.043  0.00  0.00     0.140 C 
ATOM     33  CCL A02 d          13.686  10.744   6.963  0.00  0.00     0.105 C 
ATOM     34  H10 A02 d          14.053   9.598   5.156  0.00  0.00     0.123 H 
ATOM     35  CCK A02 d          14.866  10.257   7.784  0.00  0.00     0.098 C 
ATOM     36  H8  A02 d          12.818  10.988   7.593  0.00  0.00     0.093 H 
ATOM     37  H7  A02 d          14.998  10.830   8.713  0.00  0.00     0.091 H 
ATOM     38  H9  A02 d          15.370   8.181   8.198  0.00  0.00     0.102 H 
BRANCH  32  39
ATOM     39  N9  A02 d          11.958   9.477   5.569  0.00  0.00    -0.294 N 
ATOM     40  C4  A02 d          10.986   8.753   6.115  0.00  0.00     0.167 A 
ATOM     41  N3  A02 d          10.948   7.908   7.157  0.00  0.00    -0.222 NA
ATOM     42  C5  A02 d           9.835   8.979   5.373  0.00  0.00     0.149 A 
ATOM     43  C2  A02 d           9.816   7.302   7.490  0.00  0.00     0.091 A 
ATOM     44  N1  A02 d           8.688   7.508   6.797  0.00  0.00    -0.222 NA
ATOM     45  H1  A02 d           9.803   6.627   8.339  0.00  0.00     0.146 H 
ATOM     46  C6  A02 d           8.667   8.331   5.737  0.00  0.00     0.155 A 
ATOM     47  N7  A02 d          10.127   9.839   4.399  0.00  0.00    -0.236 NA
ATOM     48  C8  A02 d          11.422  10.145   4.535  0.00  0.00     0.071 A 
ATOM     49  H4  A02 d          11.966  10.840   3.896  0.00  0.00     0.144 H 
BRANCH  46  50
ATOM     50  N6  A02 d           7.551   8.526   5.041  0.00  0.00    -0.382 N 
ATOM     51  H2  A02 d           7.586   9.031   4.144  0.00  0.00     0.157 HD
ATOM     52  H3  A02 d           6.653   8.173   5.399  0.00  0.00     0.157 HD
ENDBRANCH  46  50
ENDBRANCH  32  39
BRANCH  33  53
ATOM     53  OAO A02 d          14.072  11.874   6.194  0.00  0.00    -0.388 OA
ATOM     54  H6  A02 d          15.020  11.933   6.174  0.00  0.00     0.210 HD
ENDBRANCH  33  53
BRANCH  35  55
ATOM     55  OAN A02 d          16.064  10.292   6.984  0.00  0.00    -0.390 OA
ATOM     56  H5  A02 d          16.218  11.181   6.685  0.00  0.00     0.210 HD
ENDBRANCH  35  55
ENDBRANCH  27  30
ENDBRANCH  23  26
ENDBRANCH  20  23
ENDBRANCH  17  20
ENDBRANCH  14  17
ENDBRANCH  11  14
ENDBRANCH   8  11
ENDBRANCH   5   7
BRANCH   5  57
ATOM     57  CBJ A02 d          17.652   1.339   8.841  0.00  0.00    -0.038 C 
ATOM     58  H24 A02 d          18.159   0.959   7.941  0.00  0.00     0.036 H 
ATOM     59  H25 A02 d          17.135   0.511   9.348  0.00  0.00     0.036 H 
BRANCH  57  60
ATOM     60  CAZ A02 d          18.722   1.882   9.793  0.00  0.00    -0.061 C 
ATOM     61  H26 A02 d          18.596   1.419  10.783  0.00  0.00     0.033 H 
ATOM     62  H27 A02 d          18.610   2.973   9.882  0.00  0.00     0.033 H 
BRANCH  60  63
ATOM     63  CAS A02 d          20.131   1.557   9.254  0.00  0.00    -0.043 C 
ATOM     64  H28 A02 d          20.035   1.041   8.286  0.00  0.00     0.035 H 
ATOM     65  H29 A02 d          20.647   0.901   9.970  0.00  0.00     0.035 H 
BRANCH  63  66
ATOM     66  CAR A02 d          20.960   2.836   9.059  0.00  0.00     0.080 C 
ATOM     67  H30 A02 d          22.029   2.594   9.147  0.00  0.00     0.075 H 
ATOM     68  H31 A02 d          20.684   3.570   9.832  0.00  0.00     0.075 H 
BRANCH  66  69
ATOM     69  NAC A02 d          20.697   3.409   7.727  0.00  0.00    -0.079 N 
ATOM     70  H32 A02 d          21.508   3.283   7.141  0.00  0.00     0.274 HD
ATOM     71  H33 A02 d          20.497   4.393   7.818  0.00  0.00     0.274 HD
ATOM     72  H34 A02 d          19.906   2.943   7.311  0.00  0.00     0.274 HD
ENDBRANCH  66  69
ENDBRANCH  63  66
ENDBRANCH  60  63
ENDBRANCH  57  60
ENDBRANCH   5  57
ENDBRANCH   1   5
BRANCH   3  73
ATOM     73  CBC A02 d          17.357   5.935   7.177  0.00  0.00    -0.005 C 
ATOM     74  H43 A02 d          17.357   6.796   7.862  0.00  0.00     0.064 H 
ATOM     75  H44 A02 d          18.381   5.749   6.822  0.00  0.00     0.064 H 
BRANCH  73  76
ATOM     76  CAV A02 d          16.456   6.248   5.976  0.00  0.00    -0.050 C 
ATOM     77  H41 A02 d          15.577   5.588   6.002  0.00  0.00     0.035 H 
ATOM     78  H42 A02 d          16.129   7.296   6.033  0.00  0.00     0.035 H 
BRANCH  76  79
ATOM     79  CAT A02 d          17.215   6.026   4.662  0.00  0.00    -0.063 C 
ATOM     80  H39 A02 d          18.223   5.653   4.893  0.00  0.00     0.033 H 
ATOM     81  H40 A02 d          16.676   5.278   4.061  0.00  0.00     0.033 H 
BRANCH  79  82
ATOM     82  CAY A02 d          17.339   7.319   3.850  0.00  0.00    -0.057 C 
ATOM     83  H37 A02 d          18.305   7.793   4.081  0.00  0.00     0.033 H 
ATOM     84  H38 A02 d          17.298   7.071   2.779  0.00  0.00     0.033 H 
BRANCH  82  85
ATOM     85  CBH A02 d          16.208   8.308   4.177  0.00  0.00     0.009 C 
ATOM     86  H35 A02 d          15.262   7.911   3.780  0.00  0.00     0.047 H 
ATOM     87  H36 A02 d          16.132   8.413   5.270  0.00  0.00     0.047 H 
BRANCH  85  88
ATOM     88  CCA A02 d          16.466   9.692   3.559  0.00  0.00     0.218 C 
ATOM     89  OAJ A02 d          15.936  10.704   4.029  0.00  0.00    -0.274 OA
ATOM     90  NBT A02 d          17.297   9.695   2.510  0.00  0.00    -0.348 N 
ATOM     91  H46 A02 d          17.686   8.825   2.208  0.00  0.00     0.163 HD
BRANCH  90  92
ATOM     92  CCJ A02 d          17.668  10.928   1.773  0.00  0.00     0.089 C 
ATOM     93  H47 A02 d          18.391  10.651   0.992  0.00  0.00     0.087 H 
BRANCH  92  94
ATOM     94  CBK A02 d          18.352  11.961   2.707  0.00  0.00    -0.036 C 
ATOM     95  H48 A02 d          17.585  12.384   3.373  0.00  0.00     0.036 H 
ATOM     96  H49 A02 d          18.778  12.761   2.084  0.00  0.00     0.036 H 
BRANCH  94  97
ATOM     97  CBB A02 d          19.478  11.382   3.581  0.00  0.00    -0.048 C 
ATOM     98  H50 A02 d          20.423  11.879   3.315  0.00  0.00     0.035 H 
ATOM     99  H51 A02 d          19.562  10.304   3.381  0.00  0.00     0.035 H 
BRANCH  97 100
ATOM    100  CBF A02 d          19.217  11.588   5.082  0.00  0.00     0.009 C 
ATOM    101  H52 A02 d          20.056  11.179   5.664  0.00  0.00     0.064 H 
ATOM    102  H53 A02 d          18.287  11.076   5.370  0.00  0.00     0.064 H 
BRANCH 100 103
ATOM    103  NBP A02 d          19.090  13.035   5.335  0.00  0.00    -0.227 N 
ATOM    104  CBX A02 d          17.983  13.620   5.813  0.00  0.00     0.665 C 
ATOM    105  NAB A02 d          16.886  12.928   6.119  0.00  0.00    -0.235 N 
ATOM    106  NAE A02 d          17.989  14.937   5.994  0.00  0.00    -0.235 N 
ATOM    107  H55 A02 d          16.054  13.416   6.483  0.00  0.00     0.174 HD
ATOM    108  H56 A02 d          16.869  11.907   5.991  0.00  0.00     0.174 HD
ATOM    109  H57 A02 d          18.831  15.485   5.762  0.00  0.00     0.174 HD
ATOM    110  H58 A02 d          17.154  15.410   6.368  0.00  0.00     0.174 HD
ATOM    111  H54 A02 d          19.903  13.634   5.133  0.00  0.00     0.177 HD
ENDBRANCH 100 103
ENDBRANCH  97 100
ENDBRANCH  94  97
ENDBRANCH  92  94
BRANCH  92 112
ATOM    112  CCD A02 d          16.427  11.539   1.078  0.00  0.00     0.241 C 
ATOM    113  OAM A02 d          16.050  11.130  -0.020  0.00  0.00    -0.271 OA
ATOM    114  N   A02 d          15.822  12.521   1.750  0.00  0.00    -0.346 N 
ATOM    115  H59 A02 d          16.198  12.791   2.637  0.00  0.00     0.163 HD
BRANCH 114 116
ATOM    116  CA  A02 d          14.623  13.232   1.251  0.00  0.00     0.089 C 
ATOM    117  H60 A02 d          14.448  12.930   0.208  0.00  0.00     0.087 H 
BRANCH 116 118
ATOM    118  CB  A02 d          14.865  14.746   1.294  0.00  0.00    -0.036 C 
ATOM    119  H61 A02 d          13.976  15.238   1.717  0.00  0.00     0.036 H 
ATOM    120  H62 A02 d          15.034  15.111   0.270  0.00  0.00     0.036 H 
BRANCH 118 121
ATOM    121  CG  A02 d          16.082  15.094   2.154  0.00  0.00    -0.048 C 
ATOM    122  H63 A02 d          16.460  14.176   2.628  0.00  0.00     0.035 H 
ATOM    123  H64 A02 d          15.779  15.810   2.932  0.00  0.00     0.035 H 
BRANCH 121 124
ATOM    124  CD  A02 d          17.194  15.714   1.314  0.00  0.00     0.009 C 
ATOM    125  H65 A02 d          16.878  16.699   0.941  0.00  0.00     0.064 H 
ATOM    126  H66 A02 d          17.432  15.059   0.463  0.00  0.00     0.064 H 
BRANCH 124 127
ATOM    127  NE  A02 d          18.364  15.858   2.175  0.00  0.00    -0.227 N 
ATOM    128  CZ  A02 d          18.670  16.948   2.877  0.00  0.00     0.665 C 
ATOM    129  NH1 A02 d          17.901  18.036   2.901  0.00  0.00    -0.235 N 
ATOM    130  NH2 A02 d          19.787  16.907   3.591  0.00  0.00    -0.235 N 
ATOM    131  H68 A02 d          18.183  18.853   3.461  0.00  0.00     0.174 HD
ATOM    132  H69 A02 d          17.026  18.059   2.359  0.00  0.00     0.174 HD
ATOM    133  H70 A02 d          20.380  16.065   3.572  0.00  0.00     0.174 HD
ATOM    134  H71 A02 d          20.061  17.717   4.165  0.00  0.00     0.174 HD
ATOM    135  H67 A02 d          19.004  15.054   2.245  0.00  0.00     0.177 HD
ENDBRANCH 124 127
ENDBRANCH 121 124
ENDBRANCH 118 121
ENDBRANCH 116 118
BRANCH 116 136
ATOM    136  C   A02 d          13.367  12.877   2.080  0.00  0.00     0.238 C 
ATOM    137  O   A02 d          12.277  12.663   1.547  0.00  0.00    -0.271 OA
ATOM    138  NAF A02 d          13.570  12.801   3.394  0.00  0.00    -0.368 N 
ATOM    139  H72 A02 d          12.811  12.576   4.005  0.00  0.00     0.159 HD
ATOM    140  H73 A02 d          14.482  12.969   3.770  0.00  0.00     0.159 HD
ENDBRANCH 116 136
ENDBRANCH 114 116
ENDBRANCH  92 112
ENDBRANCH  90  92
ENDBRANCH  85  88
ENDBRANCH  82  85
ENDBRANCH  79  82
ENDBRANCH  76  79
ENDBRANCH  73  76
ENDBRANCH   3  73
TORSDOF 36
ENDMDL
MODEL 3
REMARK VINA RESULT:      -3.9      3.294      7.341
REMARK WARNING: 32 MAX_TORS EXCEEDED!!!
REMARK  36 active torsions:
REMARK  status: ('A' for Active; 'I' for Inactive)
REMARK    1  A    between atoms: C6_6  and  N6_7 
REMARK    2  A    between atoms: CCN_19  and  N9_10 
REMARK    3  A    between atoms: CCK_16  and  OAN_12 
REMARK    4  A    between atoms: CCL_17  and  OAO_13 
REMARK    5  A    between atoms: CCC_15  and  CCM_18 
REMARK       I    between atoms: NBR_27  and  CCC_15 
REMARK    6  A    between atoms: CBZ_20  and  CBG_22 
REMARK       I    between atoms: NBS_28  and  CBZ_20 
REMARK    7  A    between atoms: CBG_22  and  CAX_23 
REMARK    8  A    between atoms: CAX_23  and  CAU_24 
REMARK    9  A    between atoms: CAU_24  and  CAW_25 
REMARK   10  A    between atoms: CAW_25  and  CBD_26 
REMARK   11  A    between atoms: CBD_26  and  NBR_27 
REMARK   12  A    between atoms: CCI_29  and  NBS_28 
REMARK   13  A    between atoms: CCB_30  and  CCI_29 
REMARK   14  A    between atoms: CCI_29  and  CBJ_32 
REMARK       I    between atoms: NBQ_44  and  CCB_30 
REMARK   15  A    between atoms: CBJ_32  and  CAZ_33 
REMARK   16  A    between atoms: CAZ_33  and  CAS_34 
REMARK   17  A    between atoms: CAS_34  and  CAR_35 
REMARK   18  A    between atoms: CAR_35  and  NAC_36 
REMARK   19  A    between atoms: CBH_39  and  CCA_37 
REMARK       I    between atoms: CCA_37  and  NBT_45 
REMARK   20  A    between atoms: CAY_40  and  CBH_39 
REMARK   21  A    between atoms: CAT_41  and  CAY_40 
REMARK   22  A    between atoms: CAV_42  and  CAT_41 
REMARK   23  A    between atoms: CBC_43  and  CAV_42 
REMARK   24  A    between atoms: CBC_43  and  NBQ_44 
REMARK   25  A    between atoms: NBT_45  and  CCJ_46 
REMARK   26  A    between atoms: CCJ_46  and  CBK_47 
REMARK   27  A    between atoms: CCJ_46  and  CCD_54 
REMARK   28  A    between atoms: CBK_47  and  CBB_48 
REMARK   29  A    between atoms: CBB_48  and  CBF_49 
REMARK   30  A    between atoms: CBF_49  and  NBP_50 
REMARK       I    between atoms: NBP_50  and  CBX_51 
REMARK       I    between atoms: CBX_51  and  NAB_52 
REMARK       I    between atoms: CBX_51  and  NAE_53 
REMARK       I    between atoms: CCD_54  and  N_56 
REMARK   31  A    between atoms: N_56  and  CA_57 
REMARK   32  A    between atoms: CA_57  and  CB_58 
REMARK   33  A    between atoms: CA_57  and  C_65 
REMARK   34  A    between atoms: CB_58  and  CG_59 
REMARK   35  A    between atoms: CG_59  and  CD_60 
REMARK   36  A    between atoms: CD_60  and  NE_61 
REMARK       I    between atoms: NE_61  and  CZ_62 
REMARK       I    between atoms: CZ_62  and  NH1_63 
REMARK       I    between atoms: C_65  and  NAF_67 
ROOT
ATOM      1  CCB A02 d          16.643   4.459   4.483  0.00  0.00     0.240 C 
ATOM      2  OAK A02 d          16.683   3.877   3.406  0.00  0.00    -0.271 OA
ATOM      3  NBQ A02 d          17.349   5.553   4.760  0.00  0.00    -0.359 N 
ATOM      4  H45 A02 d          17.266   5.962   5.670  0.00  0.00     0.162 HD
ENDROOT
BRANCH   1   5
ATOM      5  CCI A02 d          15.764   3.916   5.636  0.00  0.00     0.089 C 
ATOM      6  H23 A02 d          14.808   3.603   5.192  0.00  0.00     0.087 H 
BRANCH   5   7
ATOM      7  NBS A02 d          15.463   4.991   6.617  0.00  0.00    -0.348 N 
ATOM      8  CBZ A02 d          14.410   5.810   6.468  0.00  0.00     0.218 C 
ATOM      9  OAI A02 d          13.636   5.781   5.503  0.00  0.00    -0.274 OA
ATOM     10  H22 A02 d          16.062   5.108   7.408  0.00  0.00     0.163 HD
BRANCH   8  11
ATOM     11  CBG A02 d          14.240   6.864   7.581  0.00  0.00     0.009 C 
ATOM     12  H11 A02 d          14.128   6.349   8.546  0.00  0.00     0.047 H 
ATOM     13  H12 A02 d          13.336   7.456   7.374  0.00  0.00     0.047 H 
BRANCH  11  14
ATOM     14  CAX A02 d          15.450   7.815   7.660  0.00  0.00    -0.057 C 
ATOM     15  H13 A02 d          15.753   8.097   6.640  0.00  0.00     0.033 H 
ATOM     16  H14 A02 d          16.283   7.295   8.159  0.00  0.00     0.033 H 
BRANCH  14  17
ATOM     17  CAU A02 d          15.109   9.084   8.449  0.00  0.00    -0.063 C 
ATOM     18  H15 A02 d          15.262   9.956   7.795  0.00  0.00     0.033 H 
ATOM     19  H16 A02 d          15.785   9.152   9.315  0.00  0.00     0.033 H 
BRANCH  17  20
ATOM     20  CAW A02 d          13.664   9.101   8.955  0.00  0.00    -0.050 C 
ATOM     21  H17 A02 d          13.132   8.205   8.602  0.00  0.00     0.035 H 
ATOM     22  H18 A02 d          13.149  10.001   8.590  0.00  0.00     0.035 H 
BRANCH  20  23
ATOM     23  CBD A02 d          13.712   9.110  10.485  0.00  0.00    -0.005 C 
ATOM     24  H19 A02 d          12.886   9.734  10.859  0.00  0.00     0.064 H 
ATOM     25  H20 A02 d          14.671   9.542  10.804  0.00  0.00     0.064 H 
BRANCH  23  26
ATOM     26  NBR A02 d          13.586   7.762  11.066  0.00  0.00    -0.359 N 
ATOM     27  CCC A02 d          12.781   7.452  12.083  0.00  0.00     0.249 C 
ATOM     28  OAL A02 d          12.093   8.272  12.708  0.00  0.00    -0.271 OA
ATOM     29  H21 A02 d          14.140   7.030  10.670  0.00  0.00     0.162 HD
BRANCH  27  30
ATOM     30  CCM A02 d          12.726   5.965  12.482  0.00  0.00     0.144 C 
ATOM     31  OBV A02 d          11.748   5.229  11.674  0.00  0.00    -0.346 OA
ATOM     32  CCN A02 d          12.456   4.432  10.679  0.00  0.00     0.140 C 
ATOM     33  CCL A02 d          13.914   4.930  10.730  0.00  0.00     0.105 C 
ATOM     34  H10 A02 d          12.423   3.370  10.964  0.00  0.00     0.123 H 
ATOM     35  CCK A02 d          14.076   5.310  12.190  0.00  0.00     0.098 C 
ATOM     36  H8  A02 d          14.077   5.787  10.060  0.00  0.00     0.093 H 
ATOM     37  H7  A02 d          14.922   5.993  12.356  0.00  0.00     0.091 H 
ATOM     38  H9  A02 d          12.477   5.881  13.551  0.00  0.00     0.102 H 
BRANCH  32  39
ATOM     39  N9  A02 d          11.828   4.571   9.296  0.00  0.00    -0.294 N 
ATOM     40  C4  A02 d          11.185   5.638   8.833  0.00  0.00     0.167 A 
ATOM     41  N3  A02 d          10.888   6.833   9.367  0.00  0.00    -0.222 NA
ATOM     42  C5  A02 d          10.768   5.340   7.543  0.00  0.00     0.149 A 
ATOM     43  C2  A02 d          10.215   7.735   8.665  0.00  0.00     0.091 A 
ATOM     44  N1  A02 d           9.808   7.478   7.414  0.00  0.00    -0.222 NA
ATOM     45  H1  A02 d           9.989   8.697   9.112  0.00  0.00     0.146 H 
ATOM     46  C6  A02 d          10.062   6.296   6.831  0.00  0.00     0.155 A 
ATOM     47  N7  A02 d          11.172   4.106   7.246  0.00  0.00    -0.236 NA
ATOM     48  C8  A02 d          11.828   3.651   8.319  0.00  0.00     0.071 A 
ATOM     49  H4  A02 d          12.296   2.670   8.389  0.00  0.00     0.144 H 
BRANCH  46  50
ATOM     50  N6  A02 d           9.648   6.037   5.596  0.00  0.00    -0.382 N 
ATOM     51  H2  A02 d          10.283   5.583   4.924  0.00  0.00     0.157 HD
ATOM     52  H3  A02 d           8.691   6.290   5.309  0.00  0.00     0.157 HD
ENDBRANCH  46  50
ENDBRANCH  32  39
BRANCH  33  53
ATOM     53  OAO A02 d          14.809   3.874  10.409  0.00  0.00    -0.388 OA
ATOM     54  H6  A02 d          14.679   3.614   9.505  0.00  0.00     0.210 HD
ENDBRANCH  33  53
BRANCH  35  55
ATOM     55  OAN A02 d          14.208   4.121  12.992  0.00  0.00    -0.390 OA
ATOM     56  H5  A02 d          13.348   3.748  13.148  0.00  0.00     0.210 HD
ENDBRANCH  35  55
ENDBRANCH  27  30
ENDBRANCH  23  26
ENDBRANCH  20  23
ENDBRANCH  17  20
ENDBRANCH  14  17
ENDBRANCH  11  14
ENDBRANCH   8  11
ENDBRANCH   5   7
BRANCH   5  57
ATOM     57  CBJ A02 d          16.366   2.668   6.321  0.00  0.00    -0.038 C 
ATOM     58  H24 A02 d          16.533   1.904   5.548  0.00  0.00     0.036 H 
ATOM     59  H25 A02 d          15.633   2.295   7.052  0.00  0.00     0.036 H 
BRANCH  57  60
ATOM     60  CAZ A02 d          17.691   2.899   7.055  0.00  0.00    -0.061 C 
ATOM     61  H26 A02 d          18.007   3.943   6.915  0.00  0.00     0.033 H 
ATOM     62  H27 A02 d          18.456   2.225   6.642  0.00  0.00     0.033 H 
BRANCH  60  63
ATOM     63  CAS A02 d          17.523   2.615   8.562  0.00  0.00    -0.043 C 
ATOM     64  H28 A02 d          16.726   1.868   8.700  0.00  0.00     0.035 H 
ATOM     65  H29 A02 d          17.244   3.548   9.074  0.00  0.00     0.035 H 
BRANCH  63  66
ATOM     66  CAR A02 d          18.825   2.077   9.175  0.00  0.00     0.080 C 
ATOM     67  H30 A02 d          19.239   1.295   8.520  0.00  0.00     0.075 H 
ATOM     68  H31 A02 d          18.612   1.650  10.166  0.00  0.00     0.075 H 
BRANCH  66  69
ATOM     69  NAC A02 d          19.805   3.169   9.313  0.00  0.00    -0.079 N 
ATOM     70  H32 A02 d          19.938   3.617   8.420  0.00  0.00     0.274 HD
ATOM     71  H33 A02 d          20.684   2.792   9.634  0.00  0.00     0.274 HD
ATOM     72  H34 A02 d          19.465   3.843   9.981  0.00  0.00     0.274 HD
ENDBRANCH  66  69
ENDBRANCH  63  66
ENDBRANCH  60  63
ENDBRANCH  57  60
ENDBRANCH   5  57
ENDBRANCH   1   5
BRANCH   3  73
ATOM     73  CBC A02 d          18.251   6.189   3.773  0.00  0.00    -0.005 C 
ATOM     74  H43 A02 d          19.290   6.101   4.124  0.00  0.00     0.064 H 
ATOM     75  H44 A02 d          18.147   5.677   2.805  0.00  0.00     0.064 H 
BRANCH  73  76
ATOM     76  CAV A02 d          17.901   7.671   3.600  0.00  0.00    -0.050 C 
ATOM     77  H41 A02 d          18.683   8.160   3.001  0.00  0.00     0.035 H 
ATOM     78  H42 A02 d          16.935   7.756   3.080  0.00  0.00     0.035 H 
BRANCH  76  79
ATOM     79  CAT A02 d          17.802   8.363   4.964  0.00  0.00    -0.063 C 
ATOM     80  H39 A02 d          16.828   8.124   5.415  0.00  0.00     0.033 H 
ATOM     81  H40 A02 d          18.608   7.989   5.613  0.00  0.00     0.033 H 
BRANCH  79  82
ATOM     82  CAY A02 d          17.931   9.885   4.843  0.00  0.00    -0.057 C 
ATOM     83  H37 A02 d          17.389  10.218   3.944  0.00  0.00     0.033 H 
ATOM     84  H38 A02 d          17.487  10.352   5.734  0.00  0.00     0.033 H 
BRANCH  82  85
ATOM     85  CBH A02 d          19.400  10.325   4.729  0.00  0.00     0.009 C 
ATOM     86  H35 A02 d          19.704  10.798   5.674  0.00  0.00     0.047 H 
ATOM     87  H36 A02 d          20.024   9.437   4.545  0.00  0.00     0.047 H 
BRANCH  85  88
ATOM     88  CCA A02 d          19.607  11.327   3.581  0.00  0.00     0.218 C 
ATOM     89  OAJ A02 d          20.390  11.079   2.658  0.00  0.00    -0.274 OA
ATOM     90  NBT A02 d          18.877  12.445   3.670  0.00  0.00    -0.348 N 
ATOM     91  H46 A02 d          18.261  12.551   4.451  0.00  0.00     0.163 HD
BRANCH  90  92
ATOM     92  CCJ A02 d          18.937  13.535   2.665  0.00  0.00     0.089 C 
ATOM     93  H47 A02 d          19.734  13.291   1.948  0.00  0.00     0.087 H 
BRANCH  92  94
ATOM     94  CBK A02 d          19.294  14.894   3.326  0.00  0.00    -0.036 C 
ATOM     95  H48 A02 d          19.813  15.513   2.580  0.00  0.00     0.036 H 
ATOM     96  H49 A02 d          19.966  14.698   4.173  0.00  0.00     0.036 H 
BRANCH  94  97
ATOM     97  CBB A02 d          18.082  15.686   3.847  0.00  0.00    -0.048 C 
ATOM     98  H50 A02 d          17.164  15.233   3.445  0.00  0.00     0.035 H 
ATOM     99  H51 A02 d          18.161  16.725   3.496  0.00  0.00     0.035 H 
BRANCH  97 100
ATOM    100  CBF A02 d          18.002  15.686   5.382  0.00  0.00     0.009 C 
ATOM    101  H52 A02 d          19.015  15.735   5.807  0.00  0.00     0.064 H 
ATOM    102  H53 A02 d          17.503  14.769   5.728  0.00  0.00     0.064 H 
BRANCH 100 103
ATOM    103  NBP A02 d          17.226  16.867   5.805  0.00  0.00    -0.227 N 
ATOM    104  CBX A02 d          17.715  17.851   6.572  0.00  0.00     0.665 C 
ATOM    105  NAB A02 d          18.971  17.855   7.013  0.00  0.00    -0.235 N 
ATOM    106  NAE A02 d          16.913  18.863   6.891  0.00  0.00    -0.235 N 
ATOM    107  H55 A02 d          19.309  18.631   7.601  0.00  0.00     0.174 HD
ATOM    108  H56 A02 d          19.606  17.081   6.767  0.00  0.00     0.174 HD
ATOM    109  H57 A02 d          15.939  18.875   6.556  0.00  0.00     0.174 HD
ATOM    110  H58 A02 d          17.267  19.637   7.472  0.00  0.00     0.174 HD
ATOM    111  H54 A02 d          16.248  16.940   5.491  0.00  0.00     0.177 HD
ENDBRANCH 100 103
ENDBRANCH  97 100
ENDBRANCH  94  97
ENDBRANCH  92  94
BRANCH  92 112
ATOM    112  CCD A02 d          17.604  13.627   1.884  0.00  0.00     0.241 C 
ATOM    113  OAM A02 d          17.535  14.239   0.818  0.00  0.00    -0.271 OA
ATOM    114  N   A02 d          16.566  13.007   2.450  0.00  0.00    -0.346 N 
ATOM    115  H59 A02 d          16.713  12.534   3.319  0.00  0.00     0.163 HD
BRANCH 114 116
ATOM    116  CA  A02 d          15.209  12.984   1.859  0.00  0.00     0.089 C 
ATOM    117  H60 A02 d          15.260  13.421   0.851  0.00  0.00     0.087 H 
BRANCH 116 118
ATOM    118  CB  A02 d          14.258  13.828   2.717  0.00  0.00    -0.036 C 
ATOM    119  H61 A02 d          14.585  13.781   3.766  0.00  0.00     0.036 H 
ATOM    120  H62 A02 d          13.240  13.419   2.631  0.00  0.00     0.036 H 
BRANCH 118 121
ATOM    121  CG  A02 d          14.246  15.290   2.265  0.00  0.00    -0.048 C 
ATOM    122  H63 A02 d          13.308  15.491   1.726  0.00  0.00     0.035 H 
ATOM    123  H64 A02 d          15.099  15.466   1.594  0.00  0.00     0.035 H 
BRANCH 121 124
ATOM    124  CD  A02 d          14.347  16.238   3.456  0.00  0.00     0.009 C 
ATOM    125  H65 A02 d          15.350  16.688   3.494  0.00  0.00     0.064 H 
ATOM    126  H66 A02 d          14.155  15.690   4.390  0.00  0.00     0.064 H 
BRANCH 124 127
ATOM    127  NE  A02 d          13.341  17.280   3.273  0.00  0.00    -0.227 N 
ATOM    128  CZ  A02 d          13.480  18.554   3.637  0.00  0.00     0.665 C 
ATOM    129  NH1 A02 d          14.596  19.033   4.185  0.00  0.00    -0.235 N 
ATOM    130  NH2 A02 d          12.451  19.358   3.411  0.00  0.00    -0.235 N 
ATOM    131  H68 A02 d          14.654  20.028   4.449  0.00  0.00     0.174 HD
ATOM    132  H69 A02 d          15.401  18.410   4.345  0.00  0.00     0.174 HD
ATOM    133  H70 A02 d          11.590  18.986   2.987  0.00  0.00     0.174 HD
ATOM    134  H71 A02 d          12.513  20.356   3.658  0.00  0.00     0.174 HD
ATOM    135  H67 A02 d          12.453  17.009   2.827  0.00  0.00     0.177 HD
ENDBRANCH 124 127
ENDBRANCH 121 124
ENDBRANCH 118 121
ENDBRANCH 116 118
BRANCH 116 136
ATOM    136  C   A02 d          14.668  11.541   1.740  0.00  0.00     0.238 C 
ATOM    137  O   A02 d          13.974  11.185   0.785  0.00  0.00    -0.271 OA
ATOM    138  NAF A02 d          15.030  10.726   2.728  0.00  0.00    -0.368 N 
ATOM    139  H72 A02 d          14.723   9.774   2.730  0.00  0.00     0.159 HD
ATOM    140  H73 A02 d          15.609  11.066   3.470  0.00  0.00     0.159 HD
ENDBRANCH 116 136
ENDBRANCH 114 116
ENDBRANCH  92 112
ENDBRANCH  90  92
ENDBRANCH  85  88
ENDBRANCH  82  85
ENDBRANCH  79  82
ENDBRANCH  76  79
ENDBRANCH  73  76
ENDBRANCH   3  73
TORSDOF 36
ENDMDL
MODEL 4
REMARK VINA RESULT:      -3.8      2.844      5.661
REMARK WARNING: 32 MAX_TORS EXCEEDED!!!
REMARK  36 active torsions:
REMARK  status: ('A' for Active; 'I' for Inactive)
REMARK    1  A    between atoms: C6_6  and  N6_7 
REMARK    2  A    between atoms: CCN_19  and  N9_10 
REMARK    3  A    between atoms: CCK_16  and  OAN_12 
REMARK    4  A    between atoms: CCL_17  and  OAO_13 
REMARK    5  A    between atoms: CCC_15  and  CCM_18 
REMARK       I    between atoms: NBR_27  and  CCC_15 
REMARK    6  A    between atoms: CBZ_20  and  CBG_22 
REMARK       I    between atoms: NBS_28  and  CBZ_20 
REMARK    7  A    between atoms: CBG_22  and  CAX_23 
REMARK    8  A    between atoms: CAX_23  and  CAU_24 
REMARK    9  A    between atoms: CAU_24  and  CAW_25 
REMARK   10  A    between atoms: CAW_25  and  CBD_26 
REMARK   11  A    between atoms: CBD_26  and  NBR_27 
REMARK   12  A    between atoms: CCI_29  and  NBS_28 
REMARK   13  A    between atoms: CCB_30  and  CCI_29 
REMARK   14  A    between atoms: CCI_29  and  CBJ_32 
REMARK       I    between atoms: NBQ_44  and  CCB_30 
REMARK   15  A    between atoms: CBJ_32  and  CAZ_33 
REMARK   16  A    between atoms: CAZ_33  and  CAS_34 
REMARK   17  A    between atoms: CAS_34  and  CAR_35 
REMARK   18  A    between atoms: CAR_35  and  NAC_36 
REMARK   19  A    between atoms: CBH_39  and  CCA_37 
REMARK       I    between atoms: CCA_37  and  NBT_45 
REMARK   20  A    between atoms: CAY_40  and  CBH_39 
REMARK   21  A    between atoms: CAT_41  and  CAY_40 
REMARK   22  A    between atoms: CAV_42  and  CAT_41 
REMARK   23  A    between atoms: CBC_43  and  CAV_42 
REMARK   24  A    between atoms: CBC_43  and  NBQ_44 
REMARK   25  A    between atoms: NBT_45  and  CCJ_46 
REMARK   26  A    between atoms: CCJ_46  and  CBK_47 
REMARK   27  A    between atoms: CCJ_46  and  CCD_54 
REMARK   28  A    between atoms: CBK_47  and  CBB_48 
REMARK   29  A    between atoms: CBB_48  and  CBF_49 
REMARK   30  A    between atoms: CBF_49  and  NBP_50 
REMARK       I    between atoms: NBP_50  and  CBX_51 
REMARK       I    between atoms: CBX_51  and  NAB_52 
REMARK       I    between atoms: CBX_51  and  NAE_53 
REMARK       I    between atoms: CCD_54  and  N_56 
REMARK   31  A    between atoms: N_56  and  CA_57 
REMARK   32  A    between atoms: CA_57  and  CB_58 
REMARK   33  A    between atoms: CA_57  and  C_65 
REMARK   34  A    between atoms: CB_58  and  CG_59 
REMARK   35  A    between atoms: CG_59  and  CD_60 
REMARK   36  A    between atoms: CD_60  and  NE_61 
REMARK       I    between atoms: NE_61  and  CZ_62 
REMARK       I    between atoms: CZ_62  and  NH1_63 
REMARK       I    between atoms: C_65  and  NAF_67 
ROOT
ATOM      1  CCB A02 d          10.315   8.239   1.603  0.00  0.00     0.240 C 
ATOM      2  OAK A02 d           9.163   8.655   1.622  0.00  0.00    -0.271 OA
ATOM      3  NBQ A02 d          11.232   8.558   2.515  0.00  0.00    -0.359 N 
ATOM      4  H45 A02 d          12.155   8.184   2.421  0.00  0.00     0.162 HD
ENDROOT
BRANCH   1   5
ATOM      5  CCI A02 d          10.797   7.313   0.460  0.00  0.00     0.089 C 
ATOM      6  H23 A02 d          10.141   6.430   0.463  0.00  0.00     0.087 H 
BRANCH   5   7
ATOM      7  NBS A02 d          12.180   6.836   0.721  0.00  0.00    -0.348 N 
ATOM      8  CBZ A02 d          12.588   5.612   0.349  0.00  0.00     0.218 C 
ATOM      9  OAI A02 d          11.859   4.769  -0.188  0.00  0.00    -0.274 OA
ATOM     10  H22 A02 d          12.824   7.442   1.186  0.00  0.00     0.163 HD
BRANCH   8  11
ATOM     11  CBG A02 d          14.055   5.281   0.690  0.00  0.00     0.009 C 
ATOM     12  H11 A02 d          14.571   4.962  -0.228  0.00  0.00     0.047 H 
ATOM     13  H12 A02 d          14.074   4.462   1.424  0.00  0.00     0.047 H 
BRANCH  11  14
ATOM     14  CAX A02 d          14.796   6.497   1.281  0.00  0.00    -0.057 C 
ATOM     15  H13 A02 d          14.155   7.387   1.189  0.00  0.00     0.033 H 
ATOM     16  H14 A02 d          15.729   6.657   0.718  0.00  0.00     0.033 H 
BRANCH  14  17
ATOM     17  CAU A02 d          15.136   6.276   2.759  0.00  0.00    -0.063 C 
ATOM     18  H15 A02 d          14.199   6.256   3.335  0.00  0.00     0.033 H 
ATOM     19  H16 A02 d          15.760   7.113   3.105  0.00  0.00     0.033 H 
BRANCH  17  20
ATOM     20  CAW A02 d          15.891   4.967   3.008  0.00  0.00    -0.050 C 
ATOM     21  H17 A02 d          16.262   4.561   2.055  0.00  0.00     0.035 H 
ATOM     22  H18 A02 d          15.223   4.233   3.484  0.00  0.00     0.035 H 
BRANCH  20  23
ATOM     23  CBD A02 d          17.067   5.283   3.935  0.00  0.00    -0.005 C 
ATOM     24  H19 A02 d          16.992   6.333   4.253  0.00  0.00     0.064 H 
ATOM     25  H20 A02 d          18.003   5.134   3.378  0.00  0.00     0.064 H 
BRANCH  23  26
ATOM     26  NBR A02 d          17.090   4.427   5.134  0.00  0.00    -0.359 N 
ATOM     27  CCC A02 d          16.255   4.553   6.166  0.00  0.00     0.249 C 
ATOM     28  OAL A02 d          15.402   5.446   6.273  0.00  0.00    -0.271 OA
ATOM     29  H21 A02 d          17.779   3.703   5.177  0.00  0.00     0.162 HD
BRANCH  27  30
ATOM     30  CCM A02 d          16.384   3.499   7.282  0.00  0.00     0.144 C 
ATOM     31  OBV A02 d          15.386   3.709   8.336  0.00  0.00    -0.346 OA
ATOM     32  CCN A02 d          14.327   2.718   8.194  0.00  0.00     0.140 C 
ATOM     33  CCL A02 d          14.578   2.057   6.824  0.00  0.00     0.105 C 
ATOM     34  H10 A02 d          14.420   1.961   8.987  0.00  0.00     0.123 H 
ATOM     35  CCK A02 d          16.090   2.113   6.709  0.00  0.00     0.098 C 
ATOM     36  H8  A02 d          14.082   2.604   6.009  0.00  0.00     0.093 H 
ATOM     37  H7  A02 d          16.438   2.001   5.672  0.00  0.00     0.091 H 
ATOM     38  H9  A02 d          17.399   3.536   7.706  0.00  0.00     0.102 H 
BRANCH  32  39
ATOM     39  N9  A02 d          12.945   3.351   8.304  0.00  0.00    -0.294 N 
ATOM     40  C4  A02 d          12.405   3.863   9.406  0.00  0.00     0.167 A 
ATOM     41  N3  A02 d          12.839   3.979  10.671  0.00  0.00    -0.222 NA
ATOM     42  C5  A02 d          11.138   4.323   9.070  0.00  0.00     0.149 A 
ATOM     43  C2  A02 d          12.073   4.544  11.595  0.00  0.00     0.091 A 
ATOM     44  N1  A02 d          10.850   5.005  11.298  0.00  0.00    -0.222 NA
ATOM     45  H1  A02 d          12.443   4.634  12.610  0.00  0.00     0.146 H 
ATOM     46  C6  A02 d          10.356   4.904  10.053  0.00  0.00     0.155 A 
ATOM     47  N7  A02 d          10.938   4.089   7.774  0.00  0.00    -0.236 NA
ATOM     48  C8  A02 d          12.051   3.507   7.314  0.00  0.00     0.071 A 
ATOM     49  H4  A02 d          12.210   3.201   6.281  0.00  0.00     0.144 H 
BRANCH  46  50
ATOM     50  N6  A02 d           9.138   5.349   9.760  0.00  0.00    -0.382 N 
ATOM     51  H2  A02 d           8.413   5.381  10.491  0.00  0.00     0.157 HD
ATOM     52  H3  A02 d           8.920   5.661   8.803  0.00  0.00     0.157 HD
ENDBRANCH  46  50
ENDBRANCH  32  39
BRANCH  33  53
ATOM     53  OAO A02 d          14.150   0.703   6.843  0.00  0.00    -0.388 OA
ATOM     54  H6  A02 d          14.876   0.139   6.604  0.00  0.00     0.210 HD
ENDBRANCH  33  53
BRANCH  35  55
ATOM     55  OAN A02 d          16.681   1.113   7.561  0.00  0.00    -0.390 OA
ATOM     56  H5  A02 d          17.386   1.504   8.065  0.00  0.00     0.210 HD
ENDBRANCH  35  55
ENDBRANCH  27  30
ENDBRANCH  23  26
ENDBRANCH  20  23
ENDBRANCH  17  20
ENDBRANCH  14  17
ENDBRANCH  11  14
ENDBRANCH   8  11
ENDBRANCH   5   7
BRANCH   5  57
ATOM     57  CBJ A02 d          10.669   7.959  -0.938  0.00  0.00    -0.038 C 
ATOM     58  H24 A02 d          11.683   8.113  -1.336  0.00  0.00     0.036 H 
ATOM     59  H25 A02 d          10.170   8.932  -0.818  0.00  0.00     0.036 H 
BRANCH  57  60
ATOM     60  CAZ A02 d           9.876   7.145  -1.966  0.00  0.00    -0.061 C 
ATOM     61  H26 A02 d           9.395   6.293  -1.462  0.00  0.00     0.033 H 
ATOM     62  H27 A02 d          10.561   6.773  -2.741  0.00  0.00     0.033 H 
BRANCH  60  63
ATOM     63  CAS A02 d           8.792   8.026  -2.623  0.00  0.00    -0.043 C 
ATOM     64  H28 A02 d           7.808   7.749  -2.214  0.00  0.00     0.035 H 
ATOM     65  H29 A02 d           8.800   7.854  -3.709  0.00  0.00     0.035 H 
BRANCH  63  66
ATOM     66  CAR A02 d           9.047   9.516  -2.350  0.00  0.00     0.080 C 
ATOM     67  H30 A02 d           9.672   9.932  -3.155  0.00  0.00     0.075 H 
ATOM     68  H31 A02 d           9.569   9.626  -1.387  0.00  0.00     0.075 H 
BRANCH  66  69
ATOM     69  NAC A02 d           7.768  10.245  -2.298  0.00  0.00    -0.079 N 
ATOM     70  H32 A02 d           7.909  11.141  -1.856  0.00  0.00     0.274 HD
ATOM     71  H33 A02 d           7.097   9.710  -1.767  0.00  0.00     0.274 HD
ATOM     72  H34 A02 d           7.421  10.383  -3.234  0.00  0.00     0.274 HD
ENDBRANCH  66  69
ENDBRANCH  63  66
ENDBRANCH  60  63
ENDBRANCH  57  60
ENDBRANCH   5  57
ENDBRANCH   1   5
BRANCH   3  73
ATOM     73  CBC A02 d          10.937   9.447   3.662  0.00  0.00    -0.005 C 
ATOM     74  H43 A02 d          10.288  10.269   3.325  0.00  0.00     0.064 H 
ATOM     75  H44 A02 d          10.423   8.870   4.444  0.00  0.00     0.064 H 
BRANCH  73  76
ATOM     76  CAV A02 d          12.233  10.031   4.236  0.00  0.00    -0.050 C 
ATOM     77  H41 A02 d          12.174  11.130   4.217  0.00  0.00     0.035 H 
ATOM     78  H42 A02 d          12.354   9.689   5.275  0.00  0.00     0.035 H 
BRANCH  76  79
ATOM     79  CAT A02 d          13.441   9.576   3.410  0.00  0.00    -0.063 C 
ATOM     80  H39 A02 d          13.772   8.593   3.776  0.00  0.00     0.033 H 
ATOM     81  H40 A02 d          13.140   9.492   2.355  0.00  0.00     0.033 H 
BRANCH  79  82
ATOM     82  CAY A02 d          14.609  10.562   3.514  0.00  0.00    -0.057 C 
ATOM     83  H37 A02 d          14.515  11.311   2.713  0.00  0.00     0.033 H 
ATOM     84  H38 A02 d          14.564  11.064   4.492  0.00  0.00     0.033 H 
BRANCH  82  85
ATOM     85  CBH A02 d          15.967   9.854   3.378  0.00  0.00     0.009 C 
ATOM     86  H35 A02 d          15.796   8.812   3.072  0.00  0.00     0.047 H 
ATOM     87  H36 A02 d          16.562  10.369   2.609  0.00  0.00     0.047 H 
BRANCH  85  88
ATOM     88  CCA A02 d          16.748   9.863   4.703  0.00  0.00     0.218 C 
ATOM     89  OAJ A02 d          17.214  10.914   5.156  0.00  0.00    -0.274 OA
ATOM     90  NBT A02 d          16.861   8.670   5.299  0.00  0.00    -0.348 N 
ATOM     91  H46 A02 d          16.441   7.876   4.860  0.00  0.00     0.163 HD
BRANCH  90  92
ATOM     92  CCJ A02 d          17.582   8.469   6.580  0.00  0.00     0.089 C 
ATOM     93  H47 A02 d          18.233   9.339   6.743  0.00  0.00     0.087 H 
BRANCH  92  94
ATOM     94  CBK A02 d          18.482   7.205   6.531  0.00  0.00    -0.036 C 
ATOM     95  H48 A02 d          18.252   6.655   5.606  0.00  0.00     0.036 H 
ATOM     96  H49 A02 d          18.241   6.577   7.400  0.00  0.00     0.036 H 
BRANCH  94  97
ATOM     97  CBB A02 d          19.992   7.498   6.553  0.00  0.00    -0.048 C 
ATOM     98  H50 A02 d          20.310   7.635   7.597  0.00  0.00     0.035 H 
ATOM     99  H51 A02 d          20.181   8.422   5.987  0.00  0.00     0.035 H 
BRANCH  97 100
ATOM    100  CBF A02 d          20.815   6.359   5.930  0.00  0.00     0.009 C 
ATOM    101  H52 A02 d          20.596   5.414   6.450  0.00  0.00     0.064 H 
ATOM    102  H53 A02 d          21.888   6.585   6.019  0.00  0.00     0.064 H 
BRANCH 100 103
ATOM    103  NBP A02 d          20.444   6.244   4.507  0.00  0.00    -0.227 N 
ATOM    104  CBX A02 d          21.090   6.865   3.510  0.00  0.00     0.665 C 
ATOM    105  NAB A02 d          22.150   7.643   3.723  0.00  0.00    -0.235 N 
ATOM    106  NAE A02 d          20.656   6.687   2.266  0.00  0.00    -0.235 N 
ATOM    107  H55 A02 d          22.619   8.103   2.928  0.00  0.00     0.174 HD
ATOM    108  H56 A02 d          22.502   7.784   4.680  0.00  0.00     0.174 HD
ATOM    109  H57 A02 d          19.837   6.088   2.087  0.00  0.00     0.174 HD
ATOM    110  H58 A02 d          21.139   7.147   1.481  0.00  0.00     0.174 HD
ATOM    111  H54 A02 d          19.640   5.649   4.264  0.00  0.00     0.177 HD
ENDBRANCH 100 103
ENDBRANCH  97 100
ENDBRANCH  94  97
ENDBRANCH  92  94
BRANCH  92 112
ATOM    112  CCD A02 d          16.580   8.395   7.759  0.00  0.00     0.241 C 
ATOM    113  OAM A02 d          16.958   8.546   8.921  0.00  0.00    -0.271 OA
ATOM    114  N   A02 d          15.312   8.157   7.417  0.00  0.00    -0.346 N 
ATOM    115  H59 A02 d          15.095   8.046   6.447  0.00  0.00     0.163 HD
BRANCH 114 116
ATOM    116  CA  A02 d          14.210   8.048   8.400  0.00  0.00     0.089 C 
ATOM    117  H60 A02 d          14.515   7.346   9.189  0.00  0.00     0.087 H 
BRANCH 116 118
ATOM    118  CB  A02 d          12.955   7.501   7.709  0.00  0.00    -0.036 C 
ATOM    119  H61 A02 d          13.074   6.418   7.554  0.00  0.00     0.036 H 
ATOM    120  H62 A02 d          12.836   7.999   6.735  0.00  0.00     0.036 H 
BRANCH 118 121
ATOM    121  CG  A02 d          11.701   7.747   8.550  0.00  0.00    -0.048 C 
ATOM    122  H63 A02 d          11.896   8.572   9.251  0.00  0.00     0.035 H 
ATOM    123  H64 A02 d          11.462   6.834   9.115  0.00  0.00     0.035 H 
BRANCH 121 124
ATOM    124  CD  A02 d          10.508   8.114   7.672  0.00  0.00     0.009 C 
ATOM    125  H65 A02 d           9.570   7.887   8.199  0.00  0.00     0.064 H 
ATOM    126  H66 A02 d          10.547   7.547   6.730  0.00  0.00     0.064 H 
BRANCH 124 127
ATOM    127  NE  A02 d          10.591   9.545   7.396  0.00  0.00    -0.227 N 
ATOM    128  CZ  A02 d           9.773  10.471   7.894  0.00  0.00     0.665 C 
ATOM    129  NH1 A02 d           8.791  10.187   8.749  0.00  0.00    -0.235 N 
ATOM    130  NH2 A02 d           9.986  11.724   7.518  0.00  0.00    -0.235 N 
ATOM    131  H68 A02 d           8.185  10.940   9.106  0.00  0.00     0.174 HD
ATOM    132  H69 A02 d           8.638   9.215   9.053  0.00  0.00     0.174 HD
ATOM    133  H70 A02 d          10.745  11.942   6.857  0.00  0.00     0.174 HD
ATOM    134  H71 A02 d           9.392  12.481   7.887  0.00  0.00     0.174 HD
ATOM    135  H67 A02 d          11.342   9.865   6.767  0.00  0.00     0.177 HD
ENDBRANCH 124 127
ENDBRANCH 121 124
ENDBRANCH 118 121
ENDBRANCH 116 118
BRANCH 116 136
ATOM    136  C   A02 d          13.897   9.413   9.054  0.00  0.00     0.238 C 
ATOM    137  O   A02 d          13.328  10.314   8.434  0.00  0.00    -0.271 OA
ATOM    138  NAF A02 d          14.269   9.519  10.328  0.00  0.00    -0.368 N 
ATOM    139  H72 A02 d          14.104  10.370  10.827  0.00  0.00     0.159 HD
ATOM    140  H73 A02 d          14.714   8.748  10.785  0.00  0.00     0.159 HD
ENDBRANCH 116 136
ENDBRANCH 114 116
ENDBRANCH  92 112
ENDBRANCH  90  92
ENDBRANCH  85  88
ENDBRANCH  82  85
ENDBRANCH  79  82
ENDBRANCH  76  79
ENDBRANCH  73  76
ENDBRANCH   3  73
TORSDOF 36
ENDMDL
MODEL 5
REMARK VINA RESULT:      -3.6      3.220      5.488
REMARK WARNING: 32 MAX_TORS EXCEEDED!!!
REMARK  36 active torsions:
REMARK  status: ('A' for Active; 'I' for Inactive)
REMARK    1  A    between atoms: C6_6  and  N6_7 
REMARK    2  A    between atoms: CCN_19  and  N9_10 
REMARK    3  A    between atoms: CCK_16  and  OAN_12 
REMARK    4  A    between atoms: CCL_17  and  OAO_13 
REMARK    5  A    between atoms: CCC_15  and  CCM_18 
REMARK       I    between atoms: NBR_27  and  CCC_15 
REMARK    6  A    between atoms: CBZ_20  and  CBG_22 
REMARK       I    between atoms: NBS_28  and  CBZ_20 
REMARK    7  A    between atoms: CBG_22  and  CAX_23 
REMARK    8  A    between atoms: CAX_23  and  CAU_24 
REMARK    9  A    between atoms: CAU_24  and  CAW_25 
REMARK   10  A    between atoms: CAW_25  and  CBD_26 
REMARK   11  A    between atoms: CBD_26  and  NBR_27 
REMARK   12  A    between atoms: CCI_29  and  NBS_28 
REMARK   13  A    between atoms: CCB_30  and  CCI_29 
REMARK   14  A    between atoms: CCI_29  and  CBJ_32 
REMARK       I    between atoms: NBQ_44  and  CCB_30 
REMARK   15  A    between atoms: CBJ_32  and  CAZ_33 
REMARK   16  A    between atoms: CAZ_33  and  CAS_34 
REMARK   17  A    between atoms: CAS_34  and  CAR_35 
REMARK   18  A    between atoms: CAR_35  and  NAC_36 
REMARK   19  A    between atoms: CBH_39  and  CCA_37 
REMARK       I    between atoms: CCA_37  and  NBT_45 
REMARK   20  A    between atoms: CAY_40  and  CBH_39 
REMARK   21  A    between atoms: CAT_41  and  CAY_40 
REMARK   22  A    between atoms: CAV_42  and  CAT_41 
REMARK   23  A    between atoms: CBC_43  and  CAV_42 
REMARK   24  A    between atoms: CBC_43  and  NBQ_44 
REMARK   25  A    between atoms: NBT_45  and  CCJ_46 
REMARK   26  A    between atoms: CCJ_46  and  CBK_47 
REMARK   27  A    between atoms: CCJ_46  and  CCD_54 
REMARK   28  A    between atoms: CBK_47  and  CBB_48 
REMARK   29  A    between atoms: CBB_48  and  CBF_49 
REMARK   30  A    between atoms: CBF_49  and  NBP_50 
REMARK       I    between atoms: NBP_50  and  CBX_51 
REMARK       I    between atoms: CBX_51  and  NAB_52 
REMARK       I    between atoms: CBX_51  and  NAE_53 
REMARK       I    between atoms: CCD_54  and  N_56 
REMARK   31  A    between atoms: N_56  and  CA_57 
REMARK   32  A    between atoms: CA_57  and  CB_58 
REMARK   33  A    between atoms: CA_57  and  C_65 
REMARK   34  A    between atoms: CB_58  and  CG_59 
REMARK   35  A    between atoms: CG_59  and  CD_60 
REMARK   36  A    between atoms: CD_60  and  NE_61 
REMARK       I    between atoms: NE_61  and  CZ_62 
REMARK       I    between atoms: CZ_62  and  NH1_63 
REMARK       I    between atoms: C_65  and  NAF_67 
ROOT
ATOM      1  CCB A02 d          13.949   7.499   2.775  0.00  0.00     0.240 C 
ATOM      2  OAK A02 d          13.357   6.478   2.448  0.00  0.00    -0.271 OA
ATOM      3  NBQ A02 d          14.743   8.189   1.958  0.00  0.00    -0.359 N 
ATOM      4  H45 A02 d          15.199   9.008   2.307  0.00  0.00     0.162 HD
ENDROOT
BRANCH   1   5
ATOM      5  CCI A02 d          13.833   8.046   4.219  0.00  0.00     0.089 C 
ATOM      6  H23 A02 d          14.763   8.593   4.430  0.00  0.00     0.087 H 
BRANCH   5   7
ATOM      7  NBS A02 d          13.748   6.930   5.196  0.00  0.00    -0.348 N 
ATOM      8  CBZ A02 d          14.842   6.414   5.779  0.00  0.00     0.218 C 
ATOM      9  OAI A02 d          15.999   6.774   5.529  0.00  0.00    -0.274 OA
ATOM     10  H22 A02 d          12.851   6.553   5.427  0.00  0.00     0.163 HD
BRANCH   8  11
ATOM     11  CBG A02 d          14.573   5.266   6.774  0.00  0.00     0.009 C 
ATOM     12  H11 A02 d          14.349   5.696   7.761  0.00  0.00     0.047 H 
ATOM     13  H12 A02 d          15.473   4.637   6.843  0.00  0.00     0.047 H 
BRANCH  11  14
ATOM     14  CAX A02 d          13.385   4.390   6.332  0.00  0.00    -0.057 C 
ATOM     15  H13 A02 d          13.553   4.053   5.298  0.00  0.00     0.033 H 
ATOM     16  H14 A02 d          12.461   4.987   6.378  0.00  0.00     0.033 H 
BRANCH  14  17
ATOM     17  CAU A02 d          13.232   3.163   7.238  0.00  0.00    -0.063 C 
ATOM     18  H15 A02 d          13.975   3.229   8.047  0.00  0.00     0.033 H 
ATOM     19  H16 A02 d          13.420   2.259   6.640  0.00  0.00     0.033 H 
BRANCH  17  20
ATOM     20  CAW A02 d          11.838   3.054   7.863  0.00  0.00    -0.050 C 
ATOM     21  H17 A02 d          11.924   2.903   8.950  0.00  0.00     0.035 H 
ATOM     22  H18 A02 d          11.292   2.209   7.418  0.00  0.00     0.035 H 
BRANCH  20  23
ATOM     23  CBD A02 d          11.100   4.364   7.575  0.00  0.00    -0.005 C 
ATOM     24  H19 A02 d          10.098   4.125   7.190  0.00  0.00     0.064 H 
ATOM     25  H20 A02 d          11.662   4.923   6.813  0.00  0.00     0.064 H 
BRANCH  23  26
ATOM     26  NBR A02 d          10.957   5.211   8.772  0.00  0.00    -0.359 N 
ATOM     27  CCC A02 d          11.331   6.489   8.840  0.00  0.00     0.249 C 
ATOM     28  OAL A02 d          11.906   7.101   7.927  0.00  0.00    -0.271 OA
ATOM     29  H21 A02 d          10.553   4.799   9.588  0.00  0.00     0.162 HD
BRANCH  27  30
ATOM     30  CCM A02 d          11.011   7.226  10.154  0.00  0.00     0.144 C 
ATOM     31  OBV A02 d          10.853   6.288  11.270  0.00  0.00    -0.346 OA
ATOM     32  CCN A02 d          12.048   6.334  12.104  0.00  0.00     0.140 C 
ATOM     33  CCL A02 d          13.074   7.146  11.290  0.00  0.00     0.105 C 
ATOM     34  H10 A02 d          11.824   6.864  13.041  0.00  0.00     0.123 H 
ATOM     35  CCK A02 d          12.191   8.121  10.534  0.00  0.00     0.098 C 
ATOM     36  H8  A02 d          13.656   6.505  10.611  0.00  0.00     0.093 H 
ATOM     37  H7  A02 d          12.694   8.553   9.658  0.00  0.00     0.091 H 
ATOM     38  H9  A02 d          10.096   7.824  10.026  0.00  0.00     0.102 H 
BRANCH  32  39
ATOM     39  N9  A02 d          12.541   4.935  12.458  0.00  0.00    -0.294 N 
ATOM     40  C4  A02 d          12.243   4.257  13.562  0.00  0.00     0.167 A 
ATOM     41  N3  A02 d          11.492   4.541  14.637  0.00  0.00    -0.222 NA
ATOM     42  C5  A02 d          12.906   3.039  13.489  0.00  0.00     0.149 A 
ATOM     43  C2  A02 d          11.366   3.659  15.621  0.00  0.00     0.091 A 
ATOM     44  N1  A02 d          11.987   2.472  15.574  0.00  0.00    -0.222 NA
ATOM     45  H1  A02 d          10.750   3.904  16.479  0.00  0.00     0.146 H 
ATOM     46  C6  A02 d          12.763   2.138  14.531  0.00  0.00     0.155 A 
ATOM     47  N7  A02 d          13.584   2.999  12.344  0.00  0.00    -0.236 NA
ATOM     48  C8  A02 d          13.345   4.156  11.717  0.00  0.00     0.071 A 
ATOM     49  H4  A02 d          13.747   4.429  10.743  0.00  0.00     0.144 H 
BRANCH  46  50
ATOM     50  N6  A02 d          13.389   0.966  14.489  0.00  0.00    -0.382 N 
ATOM     51  H2  A02 d          14.417   0.934  14.435  0.00  0.00     0.157 HD
ATOM     52  H3  A02 d          12.847   0.091  14.511  0.00  0.00     0.157 HD
ENDBRANCH  46  50
ENDBRANCH  32  39
BRANCH  33  53
ATOM     53  OAO A02 d          13.941   7.861  12.159  0.00  0.00    -0.388 OA
ATOM     54  H6  A02 d          14.693   8.173  11.669  0.00  0.00     0.210 HD
ENDBRANCH  33  53
BRANCH  35  55
ATOM     55  OAN A02 d          11.732   9.155  11.427  0.00  0.00    -0.390 OA
ATOM     56  H5  A02 d          10.795   9.275  11.316  0.00  0.00     0.210 HD
ENDBRANCH  35  55
ENDBRANCH  27  30
ENDBRANCH  23  26
ENDBRANCH  20  23
ENDBRANCH  17  20
ENDBRANCH  14  17
ENDBRANCH  11  14
ENDBRANCH   8  11
ENDBRANCH   5   7
BRANCH   5  57
ATOM     57  CBJ A02 d          12.673   9.052   4.395  0.00  0.00    -0.038 C 
ATOM     58  H24 A02 d          12.614   9.665   3.483  0.00  0.00     0.036 H 
ATOM     59  H25 A02 d          12.910   9.695   5.255  0.00  0.00     0.036 H 
BRANCH  57  60
ATOM     60  CAZ A02 d          11.295   8.427   4.636  0.00  0.00    -0.061 C 
ATOM     61  H26 A02 d          10.881   8.813   5.579  0.00  0.00     0.033 H 
ATOM     62  H27 A02 d          11.399   7.334   4.701  0.00  0.00     0.033 H 
BRANCH  60  63
ATOM     63  CAS A02 d          10.340   8.780   3.476  0.00  0.00    -0.043 C 
ATOM     64  H28 A02 d          10.931   9.144   2.622  0.00  0.00     0.035 H 
ATOM     65  H29 A02 d           9.649   9.570   3.809  0.00  0.00     0.035 H 
BRANCH  63  66
ATOM     66  CAR A02 d           9.525   7.555   3.036  0.00  0.00     0.080 C 
ATOM     67  H30 A02 d           8.692   7.882   2.395  0.00  0.00     0.075 H 
ATOM     68  H31 A02 d           9.125   7.044   3.925  0.00  0.00     0.075 H 
BRANCH  66  69
ATOM     69  NAC A02 d          10.383   6.623   2.283  0.00  0.00    -0.079 N 
ATOM     70  H32 A02 d          10.359   6.861   1.304  0.00  0.00     0.274 HD
ATOM     71  H33 A02 d          10.047   5.680   2.408  0.00  0.00     0.274 HD
ATOM     72  H34 A02 d          11.330   6.689   2.623  0.00  0.00     0.274 HD
ENDBRANCH  66  69
ENDBRANCH  63  66
ENDBRANCH  60  63
ENDBRANCH  57  60
ENDBRANCH   5  57
ENDBRANCH   1   5
BRANCH   3  73
ATOM     73  CBC A02 d          14.975   7.790   0.551  0.00  0.00    -0.005 C 
ATOM     74  H43 A02 d          14.238   7.024   0.266  0.00  0.00     0.064 H 
ATOM     75  H44 A02 d          14.859   8.670  -0.099  0.00  0.00     0.064 H 
BRANCH  73  76
ATOM     76  CAV A02 d          16.387   7.218   0.380  0.00  0.00    -0.050 C 
ATOM     77  H41 A02 d          16.452   6.251   0.901  0.00  0.00     0.035 H 
ATOM     78  H42 A02 d          16.590   7.071  -0.691  0.00  0.00     0.035 H 
BRANCH  76  79
ATOM     79  CAT A02 d          17.430   8.178   0.964  0.00  0.00    -0.063 C 
ATOM     80  H39 A02 d          16.985   8.710   1.817  0.00  0.00     0.033 H 
ATOM     81  H40 A02 d          18.297   7.595   1.308  0.00  0.00     0.033 H 
BRANCH  79  82
ATOM     82  CAY A02 d          17.902   9.205  -0.070  0.00  0.00    -0.057 C 
ATOM     83  H37 A02 d          18.970   9.412   0.095  0.00  0.00     0.033 H 
ATOM     84  H38 A02 d          17.760   8.788  -1.077  0.00  0.00     0.033 H 
BRANCH  82  85
ATOM     85  CBH A02 d          17.118  10.524   0.039  0.00  0.00     0.009 C 
ATOM     86  H35 A02 d          17.333  11.140  -0.846  0.00  0.00     0.047 H 
ATOM     87  H36 A02 d          16.042  10.297   0.075  0.00  0.00     0.047 H 
BRANCH  85  88
ATOM     88  CCA A02 d          17.504  11.313   1.301  0.00  0.00     0.218 C 
ATOM     89  OAJ A02 d          18.481  12.069   1.300  0.00  0.00    -0.274 OA
ATOM     90  NBT A02 d          16.703  11.118   2.355  0.00  0.00    -0.348 N 
ATOM     91  H46 A02 d          15.928  10.493   2.256  0.00  0.00     0.163 HD
BRANCH  90  92
ATOM     92  CCJ A02 d          16.910  11.783   3.665  0.00  0.00     0.089 C 
ATOM     93  H47 A02 d          17.112  12.847   3.477  0.00  0.00     0.087 H 
BRANCH  92  94
ATOM     94  CBK A02 d          18.137  11.193   4.412  0.00  0.00    -0.036 C 
ATOM     95  H48 A02 d          18.765  10.667   3.678  0.00  0.00     0.036 H 
ATOM     96  H49 A02 d          17.771  10.477   5.162  0.00  0.00     0.036 H 
BRANCH  94  97
ATOM     97  CBB A02 d          19.009  12.238   5.129  0.00  0.00    -0.048 C 
ATOM     98  H50 A02 d          19.127  11.938   6.181  0.00  0.00     0.035 H 
ATOM     99  H51 A02 d          18.503  13.214   5.081  0.00  0.00     0.035 H 
BRANCH  97 100
ATOM    100  CBF A02 d          20.402  12.370   4.493  0.00  0.00     0.009 C 
ATOM    101  H52 A02 d          21.176  12.203   5.256  0.00  0.00     0.064 H 
ATOM    102  H53 A02 d          20.520  13.376   4.065  0.00  0.00     0.064 H 
BRANCH 100 103
ATOM    103  NBP A02 d          20.523  11.356   3.429  0.00  0.00    -0.227 N 
ATOM    104  CBX A02 d          21.378  11.445   2.400  0.00  0.00     0.665 C 
ATOM    105  NAB A02 d          22.217  12.469   2.258  0.00  0.00    -0.235 N 
ATOM    106  NAE A02 d          21.389  10.467   1.500  0.00  0.00    -0.235 N 
ATOM    107  H55 A02 d          22.859  12.500   1.452  0.00  0.00     0.174 HD
ATOM    108  H56 A02 d          22.225  13.230   2.952  0.00  0.00     0.174 HD
ATOM    109  H57 A02 d          20.746   9.668   1.597  0.00  0.00     0.174 HD
ATOM    110  H58 A02 d          22.043  10.507   0.704  0.00  0.00     0.174 HD
ATOM    111  H54 A02 d          19.913  10.528   3.479  0.00  0.00     0.177 HD
ENDBRANCH 100 103
ENDBRANCH  97 100
ENDBRANCH  94  97
ENDBRANCH  92  94
BRANCH  92 112
ATOM    112  CCD A02 d          15.630  11.686   4.530  0.00  0.00     0.241 C 
ATOM    113  OAM A02 d          15.544  10.866   5.445  0.00  0.00    -0.271 OA
ATOM    114  N   A02 d          14.655  12.538   4.206  0.00  0.00    -0.346 N 
ATOM    115  H59 A02 d          14.810  13.169   3.446  0.00  0.00     0.163 HD
BRANCH 114 116
ATOM    116  CA  A02 d          13.355  12.596   4.912  0.00  0.00     0.089 C 
ATOM    117  H60 A02 d          13.245  11.684   5.516  0.00  0.00     0.087 H 
BRANCH 116 118
ATOM    118  CB  A02 d          12.214  12.653   3.889  0.00  0.00    -0.036 C 
ATOM    119  H61 A02 d          11.253  12.638   4.424  0.00  0.00     0.036 H 
ATOM    120  H62 A02 d          12.280  11.774   3.230  0.00  0.00     0.036 H 
BRANCH 118 121
ATOM    121  CG  A02 d          12.289  13.921   3.036  0.00  0.00    -0.048 C 
ATOM    122  H63 A02 d          13.332  14.270   3.005  0.00  0.00     0.035 H 
ATOM    123  H64 A02 d          11.656  14.698   3.491  0.00  0.00     0.035 H 
BRANCH 121 124
ATOM    124  CD  A02 d          11.809  13.661   1.612  0.00  0.00     0.009 C 
ATOM    125  H65 A02 d          11.724  14.611   1.065  0.00  0.00     0.064 H 
ATOM    126  H66 A02 d          10.829  13.160   1.632  0.00  0.00     0.064 H 
BRANCH 124 127
ATOM    127  NE  A02 d          12.796  12.801   0.968  0.00  0.00    -0.227 N 
ATOM    128  CZ  A02 d          12.518  11.692   0.283  0.00  0.00     0.665 C 
ATOM    129  NH1 A02 d          11.274  11.261   0.075  0.00  0.00    -0.235 N 
ATOM    130  NH2 A02 d          13.547  11.023  -0.219  0.00  0.00    -0.235 N 
ATOM    131  H68 A02 d          11.112  10.398  -0.463  0.00  0.00     0.174 HD
ATOM    132  H69 A02 d          10.475  11.792   0.451  0.00  0.00     0.174 HD
ATOM    133  H70 A02 d          14.507  11.357  -0.057  0.00  0.00     0.174 HD
ATOM    134  H71 A02 d          13.385  10.168  -0.771  0.00  0.00     0.174 HD
ATOM    135  H67 A02 d          13.787  13.072   1.049  0.00  0.00     0.177 HD
ENDBRANCH 124 127
ENDBRANCH 121 124
ENDBRANCH 118 121
ENDBRANCH 116 118
BRANCH 116 136
ATOM    136  C   A02 d          13.277  13.819   5.854  0.00  0.00     0.238 C 
ATOM    137  O   A02 d          12.372  13.944   6.682  0.00  0.00    -0.271 OA
ATOM    138  NAF A02 d          14.268  14.697   5.712  0.00  0.00    -0.368 N 
ATOM    139  H72 A02 d          14.295  15.518   6.283  0.00  0.00     0.159 HD
ATOM    140  H73 A02 d          14.986  14.535   5.034  0.00  0.00     0.159 HD
ENDBRANCH 116 136
ENDBRANCH 114 116
ENDBRANCH  92 112
ENDBRANCH  90  92
ENDBRANCH  85  88
ENDBRANCH  82  85
ENDBRANCH  79  82
ENDBRANCH  76  79
ENDBRANCH  73  76
ENDBRANCH   3  73
TORSDOF 36
ENDMDL
MODEL 6
REMARK VINA RESULT:      -3.5      3.421      6.264
REMARK WARNING: 32 MAX_TORS EXCEEDED!!!
REMARK  36 active torsions:
REMARK  status: ('A' for Active; 'I' for Inactive)
REMARK    1  A    between atoms: C6_6  and  N6_7 
REMARK    2  A    between atoms: CCN_19  and  N9_10 
REMARK    3  A    between atoms: CCK_16  and  OAN_12 
REMARK    4  A    between atoms: CCL_17  and  OAO_13 
REMARK    5  A    between atoms: CCC_15  and  CCM_18 
REMARK       I    between atoms: NBR_27  and  CCC_15 
REMARK    6  A    between atoms: CBZ_20  and  CBG_22 
REMARK       I    between atoms: NBS_28  and  CBZ_20 
REMARK    7  A    between atoms: CBG_22  and  CAX_23 
REMARK    8  A    between atoms: CAX_23  and  CAU_24 
REMARK    9  A    between atoms: CAU_24  and  CAW_25 
REMARK   10  A    between atoms: CAW_25  and  CBD_26 
REMARK   11  A    between atoms: CBD_26  and  NBR_27 
REMARK   12  A    between atoms: CCI_29  and  NBS_28 
REMARK   13  A    between atoms: CCB_30  and  CCI_29 
REMARK   14  A    between atoms: CCI_29  and  CBJ_32 
REMARK       I    between atoms: NBQ_44  and  CCB_30 
REMARK   15  A    between atoms: CBJ_32  and  CAZ_33 
REMARK   16  A    between atoms: CAZ_33  and  CAS_34 
REMARK   17  A    between atoms: CAS_34  and  CAR_35 
REMARK   18  A    between atoms: CAR_35  and  NAC_36 
REMARK   19  A    between atoms: CBH_39  and  CCA_37 
REMARK       I    between atoms: CCA_37  and  NBT_45 
REMARK   20  A    between atoms: CAY_40  and  CBH_39 
REMARK   21  A    between atoms: CAT_41  and  CAY_40 
REMARK   22  A    between atoms: CAV_42  and  CAT_41 
REMARK   23  A    between atoms: CBC_43  and  CAV_42 
REMARK   24  A    between atoms: CBC_43  and  NBQ_44 
REMARK   25  A    between atoms: NBT_45  and  CCJ_46 
REMARK   26  A    between atoms: CCJ_46  and  CBK_47 
REMARK   27  A    between atoms: CCJ_46  and  CCD_54 
REMARK   28  A    between atoms: CBK_47  and  CBB_48 
REMARK   29  A    between atoms: CBB_48  and  CBF_49 
REMARK   30  A    between atoms: CBF_49  and  NBP_50 
REMARK       I    between atoms: NBP_50  and  CBX_51 
REMARK       I    between atoms: CBX_51  and  NAB_52 
REMARK       I    between atoms: CBX_51  and  NAE_53 
REMARK       I    between atoms: CCD_54  and  N_56 
REMARK   31  A    between atoms: N_56  and  CA_57 
REMARK   32  A    between atoms: CA_57  and  CB_58 
REMARK   33  A    between atoms: CA_57  and  C_65 
REMARK   34  A    between atoms: CB_58  and  CG_59 
REMARK   35  A    between atoms: CG_59  and  CD_60 
REMARK   36  A    between atoms: CD_60  and  NE_61 
REMARK       I    between atoms: NE_61  and  CZ_62 
REMARK       I    between atoms: CZ_62  and  NH1_63 
REMARK       I    between atoms: C_65  and  NAF_67 
ROOT
ATOM      1  CCB A02 d          16.691   7.321  -0.580  0.00  0.00     0.240 C 
ATOM      2  OAK A02 d          17.408   7.457   0.404  0.00  0.00    -0.271 OA
ATOM      3  NBQ A02 d          17.079   6.710  -1.698  0.00  0.00    -0.359 N 
ATOM      4  H45 A02 d          16.435   6.649  -2.462  0.00  0.00     0.162 HD
ENDROOT
BRANCH   1   5
ATOM      5  CCI A02 d          15.256   7.901  -0.594  0.00  0.00     0.089 C 
ATOM      6  H23 A02 d          15.132   8.427  -1.552  0.00  0.00     0.087 H 
BRANCH   5   7
ATOM      7  NBS A02 d          15.087   8.907   0.486  0.00  0.00    -0.348 N 
ATOM      8  CBZ A02 d          15.380  10.204   0.297  0.00  0.00     0.218 C 
ATOM      9  OAI A02 d          15.850  10.666  -0.749  0.00  0.00    -0.274 OA
ATOM     10  H22 A02 d          14.747   8.611   1.378  0.00  0.00     0.163 HD
BRANCH   8  11
ATOM     11  CBG A02 d          15.139  11.113   1.520  0.00  0.00     0.009 C 
ATOM     12  H11 A02 d          16.067  11.657   1.747  0.00  0.00     0.047 H 
ATOM     13  H12 A02 d          14.861  10.486   2.380  0.00  0.00     0.047 H 
BRANCH  11  14
ATOM     14  CAX A02 d          14.013  12.134   1.263  0.00  0.00    -0.057 C 
ATOM     15  H13 A02 d          13.064  11.723   1.638  0.00  0.00     0.033 H 
ATOM     16  H14 A02 d          13.933  12.315   0.181  0.00  0.00     0.033 H 
BRANCH  14  17
ATOM     17  CAU A02 d          14.297  13.464   1.972  0.00  0.00    -0.063 C 
ATOM     18  H15 A02 d          14.873  14.108   1.292  0.00  0.00     0.033 H 
ATOM     19  H16 A02 d          14.890  13.260   2.876  0.00  0.00     0.033 H 
BRANCH  17  20
ATOM     20  CAW A02 d          13.020  14.204   2.383  0.00  0.00    -0.050 C 
ATOM     21  H17 A02 d          12.170  13.846   1.784  0.00  0.00     0.035 H 
ATOM     22  H18 A02 d          13.148  15.286   2.229  0.00  0.00     0.035 H 
BRANCH  20  23
ATOM     23  CBD A02 d          12.775  13.912   3.865  0.00  0.00    -0.005 C 
ATOM     24  H19 A02 d          12.245  14.767   4.309  0.00  0.00     0.064 H 
ATOM     25  H20 A02 d          13.746  13.783   4.363  0.00  0.00     0.064 H 
BRANCH  23  26
ATOM     26  NBR A02 d          11.970  12.696   4.078  0.00  0.00    -0.359 N 
ATOM     27  CCC A02 d          11.736  12.147   5.271  0.00  0.00     0.249 C 
ATOM     28  OAL A02 d          12.222  12.552   6.337  0.00  0.00    -0.271 OA
ATOM     29  H21 A02 d          11.573  12.253   3.275  0.00  0.00     0.162 HD
BRANCH  27  30
ATOM     30  CCM A02 d          10.793  10.929   5.290  0.00  0.00     0.144 C 
ATOM     31  OBV A02 d          11.403   9.788   5.981  0.00  0.00    -0.346 OA
ATOM     32  CCN A02 d          10.805   9.657   7.303  0.00  0.00     0.140 C 
ATOM     33  CCL A02 d           9.990  10.949   7.505  0.00  0.00     0.105 C 
ATOM     34  H10 A02 d          10.127   8.792   7.319  0.00  0.00     0.123 H 
ATOM     35  CCK A02 d           9.538  11.271   6.093  0.00  0.00     0.098 C 
ATOM     36  H8  A02 d          10.601  11.756   7.936  0.00  0.00     0.093 H 
ATOM     37  H7  A02 d           9.234  12.322   5.977  0.00  0.00     0.091 H 
ATOM     38  H9  A02 d          10.529  10.653   4.258  0.00  0.00     0.102 H 
BRANCH  32  39
ATOM     39  N9  A02 d          11.864   9.448   8.381  0.00  0.00    -0.294 N 
ATOM     40  C4  A02 d          11.753   8.657   9.443  0.00  0.00     0.167 A 
ATOM     41  N3  A02 d          10.772   7.859   9.893  0.00  0.00    -0.222 NA
ATOM     42  C5  A02 d          12.933   8.768  10.166  0.00  0.00     0.149 A 
ATOM     43  C2  A02 d          10.930   7.166  11.013  0.00  0.00     0.091 A 
ATOM     44  N1  A02 d          12.061   7.246  11.727  0.00  0.00    -0.222 NA
ATOM     45  H1  A02 d          10.128   6.522  11.358  0.00  0.00     0.146 H 
ATOM     46  C6  A02 d          13.072   8.038  11.335  0.00  0.00     0.155 A 
ATOM     47  N7  A02 d          13.737   9.615   9.527  0.00  0.00    -0.236 NA
ATOM     48  C8  A02 d          13.080  10.015   8.433  0.00  0.00     0.071 A 
ATOM     49  H4  A02 d          13.475  10.705   7.689  0.00  0.00     0.144 H 
BRANCH  46  50
ATOM     50  N6  A02 d          14.189   8.129  12.049  0.00  0.00    -0.382 N 
ATOM     51  H2  A02 d          14.488   7.340  12.639  0.00  0.00     0.157 HD
ATOM     52  H3  A02 d          14.756   8.988  12.012  0.00  0.00     0.157 HD
ENDBRANCH  46  50
ENDBRANCH  32  39
BRANCH  33  53
ATOM     53  OAO A02 d           8.857  10.697   8.324  0.00  0.00    -0.388 OA
ATOM     54  H6  A02 d           9.088  10.067   8.996  0.00  0.00     0.210 HD
ENDBRANCH  33  53
BRANCH  35  55
ATOM     55  OAN A02 d           8.472  10.381   5.707  0.00  0.00    -0.390 OA
ATOM     56  H5  A02 d           7.892  10.245   6.448  0.00  0.00     0.210 HD
ENDBRANCH  35  55
ENDBRANCH  27  30
ENDBRANCH  23  26
ENDBRANCH  20  23
ENDBRANCH  17  20
ENDBRANCH  14  17
ENDBRANCH  11  14
ENDBRANCH   8  11
ENDBRANCH   5   7
BRANCH   5  57
ATOM     57  CBJ A02 d          14.161   6.812  -0.538  0.00  0.00    -0.038 C 
ATOM     58  H24 A02 d          14.075   6.365  -1.540  0.00  0.00     0.036 H 
ATOM     59  H25 A02 d          13.211   7.299  -0.271  0.00  0.00     0.036 H 
BRANCH  57  60
ATOM     60  CAZ A02 d          14.412   5.682   0.465  0.00  0.00    -0.061 C 
ATOM     61  H26 A02 d          15.092   6.039   1.253  0.00  0.00     0.033 H 
ATOM     62  H27 A02 d          14.871   4.829  -0.056  0.00  0.00     0.033 H 
BRANCH  60  63
ATOM     63  CAS A02 d          13.082   5.231   1.105  0.00  0.00    -0.043 C 
ATOM     64  H28 A02 d          13.300   4.608   1.986  0.00  0.00     0.035 H 
ATOM     65  H29 A02 d          12.512   4.643   0.371  0.00  0.00     0.035 H 
BRANCH  63  66
ATOM     66  CAR A02 d          12.239   6.439   1.542  0.00  0.00     0.080 C 
ATOM     67  H30 A02 d          12.318   7.232   0.783  0.00  0.00     0.075 H 
ATOM     68  H31 A02 d          12.614   6.815   2.506  0.00  0.00     0.075 H 
BRANCH  66  69
ATOM     69  NAC A02 d          10.828   6.042   1.689  0.00  0.00    -0.079 N 
ATOM     70  H32 A02 d          10.779   5.088   2.011  0.00  0.00     0.274 HD
ATOM     71  H33 A02 d          10.362   6.120   0.798  0.00  0.00     0.274 HD
ATOM     72  H34 A02 d          10.376   6.646   2.358  0.00  0.00     0.274 HD
ENDBRANCH  66  69
ENDBRANCH  63  66
ENDBRANCH  60  63
ENDBRANCH  57  60
ENDBRANCH   5  57
ENDBRANCH   1   5
BRANCH   3  73
ATOM     73  CBC A02 d          18.426   6.116  -1.854  0.00  0.00    -0.005 C 
ATOM     74  H43 A02 d          18.658   6.021  -2.925  0.00  0.00     0.064 H 
ATOM     75  H44 A02 d          19.168   6.772  -1.375  0.00  0.00     0.064 H 
BRANCH  73  76
ATOM     76  CAV A02 d          18.482   4.730  -1.201  0.00  0.00    -0.050 C 
ATOM     77  H41 A02 d          17.682   4.651  -0.450  0.00  0.00     0.035 H 
ATOM     78  H42 A02 d          18.336   3.961  -1.974  0.00  0.00     0.035 H 
BRANCH  76  79
ATOM     79  CAT A02 d          19.838   4.511  -0.520  0.00  0.00    -0.063 C 
ATOM     80  H39 A02 d          20.079   3.439  -0.544  0.00  0.00     0.033 H 
ATOM     81  H40 A02 d          20.608   5.072  -1.071  0.00  0.00     0.033 H 
BRANCH  79  82
ATOM     82  CAY A02 d          19.828   4.985   0.937  0.00  0.00    -0.057 C 
ATOM     83  H37 A02 d          18.799   5.259   1.215  0.00  0.00     0.033 H 
ATOM     84  H38 A02 d          20.176   4.163   1.580  0.00  0.00     0.033 H 
BRANCH  82  85
ATOM     85  CBH A02 d          20.742   6.204   1.146  0.00  0.00     0.009 C 
ATOM     86  H35 A02 d          21.790   5.876   1.095  0.00  0.00     0.047 H 
ATOM     87  H36 A02 d          20.547   6.936   0.349  0.00  0.00     0.047 H 
BRANCH  85  88
ATOM     88  CCA A02 d          20.495   6.872   2.509  0.00  0.00     0.218 C 
ATOM     89  OAJ A02 d          21.421   7.037   3.310  0.00  0.00    -0.274 OA
ATOM     90  NBT A02 d          19.231   7.252   2.730  0.00  0.00    -0.348 N 
ATOM     91  H46 A02 d          18.551   7.085   2.016  0.00  0.00     0.163 HD
BRANCH  90  92
ATOM     92  CCJ A02 d          18.789   7.910   3.985  0.00  0.00     0.089 C 
ATOM     93  H47 A02 d          19.675   8.059   4.619  0.00  0.00     0.087 H 
BRANCH  92  94
ATOM     94  CBK A02 d          17.789   7.018   4.769  0.00  0.00    -0.036 C 
ATOM     95  H48 A02 d          17.201   7.666   5.436  0.00  0.00     0.036 H 
ATOM     96  H49 A02 d          18.366   6.300   5.369  0.00  0.00     0.036 H 
BRANCH  94  97
ATOM     97  CBB A02 d          16.811   6.227   3.882  0.00  0.00    -0.048 C 
ATOM     98  H50 A02 d          16.695   5.216   4.299  0.00  0.00     0.035 H 
ATOM     99  H51 A02 d          17.230   6.159   2.867  0.00  0.00     0.035 H 
BRANCH  97 100
ATOM    100  CBF A02 d          15.428   6.891   3.804  0.00  0.00     0.009 C 
ATOM    101  H52 A02 d          15.171   7.093   2.753  0.00  0.00     0.064 H 
ATOM    102  H53 A02 d          15.437   7.836   4.367  0.00  0.00     0.064 H 
BRANCH 100 103
ATOM    103  NBP A02 d          14.438   5.969   4.392  0.00  0.00    -0.227 N 
ATOM    104  CBX A02 d          13.492   6.340   5.265  0.00  0.00     0.665 C 
ATOM    105  NAB A02 d          13.353   7.601   5.673  0.00  0.00    -0.235 N 
ATOM    106  NAE A02 d          12.659   5.414   5.729  0.00  0.00    -0.235 N 
ATOM    107  H55 A02 d          12.612   7.845   6.347  0.00  0.00     0.174 HD
ATOM    108  H56 A02 d          13.985   8.331   5.316  0.00  0.00     0.174 HD
ATOM    109  H57 A02 d          12.754   4.435   5.422  0.00  0.00     0.174 HD
ATOM    110  H58 A02 d          11.917   5.674   6.396  0.00  0.00     0.174 HD
ATOM    111  H54 A02 d          14.476   4.978   4.113  0.00  0.00     0.177 HD
ENDBRANCH 100 103
ENDBRANCH  97 100
ENDBRANCH  94  97
ENDBRANCH  92  94
BRANCH  92 112
ATOM    112  CCD A02 d          18.180   9.300   3.683  0.00  0.00     0.241 C 
ATOM    113  OAM A02 d          18.327   9.830   2.581  0.00  0.00    -0.271 OA
ATOM    114  N   A02 d          17.506   9.860   4.689  0.00  0.00    -0.346 N 
ATOM    115  H59 A02 d          17.437   9.357   5.552  0.00  0.00     0.163 HD
BRANCH 114 116
ATOM    116  CA  A02 d          16.854  11.186   4.596  0.00  0.00     0.089 C 
ATOM    117  H60 A02 d          16.682  11.416   3.535  0.00  0.00     0.087 H 
BRANCH 116 118
ATOM    118  CB  A02 d          17.776  12.257   5.192  0.00  0.00    -0.036 C 
ATOM    119  H61 A02 d          18.629  11.764   5.681  0.00  0.00     0.036 H 
ATOM    120  H62 A02 d          17.214  12.840   5.936  0.00  0.00     0.036 H 
BRANCH 118 121
ATOM    121  CG  A02 d          18.303  13.205   4.112  0.00  0.00    -0.048 C 
ATOM    122  H63 A02 d          17.881  14.208   4.280  0.00  0.00     0.035 H 
ATOM    123  H64 A02 d          17.988  12.836   3.125  0.00  0.00     0.035 H 
BRANCH 121 124
ATOM    124  CD  A02 d          19.825  13.294   4.147  0.00  0.00     0.009 C 
ATOM    125  H65 A02 d          20.179  13.260   5.188  0.00  0.00     0.064 H 
ATOM    126  H66 A02 d          20.158  14.231   3.676  0.00  0.00     0.064 H 
BRANCH 124 127
ATOM    127  NE  A02 d          20.347  12.151   3.406  0.00  0.00    -0.227 N 
ATOM    128  CZ  A02 d          21.122  11.194   3.916  0.00  0.00     0.665 C 
ATOM    129  NH1 A02 d          21.480  11.158   5.199  0.00  0.00    -0.235 N 
ATOM    130  NH2 A02 d          21.521  10.239   3.086  0.00  0.00    -0.235 N 
ATOM    131  H68 A02 d          22.081  10.396   5.544  0.00  0.00     0.174 HD
ATOM    132  H69 A02 d          21.156  11.891   5.845  0.00  0.00     0.174 HD
ATOM    133  H70 A02 d          21.244  10.269   2.095  0.00  0.00     0.174 HD
ATOM    134  H71 A02 d          22.108   9.468   3.434  0.00  0.00     0.174 HD
ATOM    135  H67 A02 d          20.097  12.077   2.409  0.00  0.00     0.177 HD
ENDBRANCH 124 127
ENDBRANCH 121 124
ENDBRANCH 118 121
ENDBRANCH 116 118
BRANCH 116 136
ATOM    136  C   A02 d          15.492  11.200   5.327  0.00  0.00     0.238 C 
ATOM    137  O   A02 d          14.712  10.247   5.267  0.00  0.00    -0.271 OA
ATOM    138  NAF A02 d          15.250  12.303   6.034  0.00  0.00    -0.368 N 
ATOM    139  H72 A02 d          14.391  12.395   6.538  0.00  0.00     0.159 HD
ATOM    140  H73 A02 d          15.927  13.039   6.060  0.00  0.00     0.159 HD
ENDBRANCH 116 136
ENDBRANCH 114 116
ENDBRANCH  92 112
ENDBRANCH  90  92
ENDBRANCH  85  88
ENDBRANCH  82  85
ENDBRANCH  79  82
ENDBRANCH  76  79
ENDBRANCH  73  76
ENDBRANCH   3  73
TORSDOF 36
ENDMDL
MODEL 7
REMARK VINA RESULT:      -3.3      2.381      8.469
REMARK WARNING: 32 MAX_TORS EXCEEDED!!!
REMARK  36 active torsions:
REMARK  status: ('A' for Active; 'I' for Inactive)
REMARK    1  A    between atoms: C6_6  and  N6_7 
REMARK    2  A    between atoms: CCN_19  and  N9_10 
REMARK    3  A    between atoms: CCK_16  and  OAN_12 
REMARK    4  A    between atoms: CCL_17  and  OAO_13 
REMARK    5  A    between atoms: CCC_15  and  CCM_18 
REMARK       I    between atoms: NBR_27  and  CCC_15 
REMARK    6  A    between atoms: CBZ_20  and  CBG_22 
REMARK       I    between atoms: NBS_28  and  CBZ_20 
REMARK    7  A    between atoms: CBG_22  and  CAX_23 
REMARK    8  A    between atoms: CAX_23  and  CAU_24 
REMARK    9  A    between atoms: CAU_24  and  CAW_25 
REMARK   10  A    between atoms: CAW_25  and  CBD_26 
REMARK   11  A    between atoms: CBD_26  and  NBR_27 
REMARK   12  A    between atoms: CCI_29  and  NBS_28 
REMARK   13  A    between atoms: CCB_30  and  CCI_29 
REMARK   14  A    between atoms: CCI_29  and  CBJ_32 
REMARK       I    between atoms: NBQ_44  and  CCB_30 
REMARK   15  A    between atoms: CBJ_32  and  CAZ_33 
REMARK   16  A    between atoms: CAZ_33  and  CAS_34 
REMARK   17  A    between atoms: CAS_34  and  CAR_35 
REMARK   18  A    between atoms: CAR_35  and  NAC_36 
REMARK   19  A    between atoms: CBH_39  and  CCA_37 
REMARK       I    between atoms: CCA_37  and  NBT_45 
REMARK   20  A    between atoms: CAY_40  and  CBH_39 
REMARK   21  A    between atoms: CAT_41  and  CAY_40 
REMARK   22  A    between atoms: CAV_42  and  CAT_41 
REMARK   23  A    between atoms: CBC_43  and  CAV_42 
REMARK   24  A    between atoms: CBC_43  and  NBQ_44 
REMARK   25  A    between atoms: NBT_45  and  CCJ_46 
REMARK   26  A    between atoms: CCJ_46  and  CBK_47 
REMARK   27  A    between atoms: CCJ_46  and  CCD_54 
REMARK   28  A    between atoms: CBK_47  and  CBB_48 
REMARK   29  A    between atoms: CBB_48  and  CBF_49 
REMARK   30  A    between atoms: CBF_49  and  NBP_50 
REMARK       I    between atoms: NBP_50  and  CBX_51 
REMARK       I    between atoms: CBX_51  and  NAB_52 
REMARK       I    between atoms: CBX_51  and  NAE_53 
REMARK       I    between atoms: CCD_54  and  N_56 
REMARK   31  A    between atoms: N_56  and  CA_57 
REMARK   32  A    between atoms: CA_57  and  CB_58 
REMARK   33  A    between atoms: CA_57  and  C_65 
REMARK   34  A    between atoms: CB_58  and  CG_59 
REMARK   35  A    between atoms: CG_59  and  CD_60 
REMARK   36  A    between atoms: CD_60  and  NE_61 
REMARK       I    between atoms: NE_61  and  CZ_62 
REMARK       I    between atoms: CZ_62  and  NH1_63 
REMARK       I    between atoms: C_65  and  NAF_67 
ROOT
ATOM      1  CCB A02 d          18.511   7.824   5.024  0.00  0.00     0.240 C 
ATOM      2  OAK A02 d          17.820   8.322   5.903  0.00  0.00    -0.271 OA
ATOM      3  NBQ A02 d          18.040   7.447   3.836  0.00  0.00    -0.359 N 
ATOM      4  H45 A02 d          18.670   7.038   3.176  0.00  0.00     0.162 HD
ENDROOT
BRANCH   1   5
ATOM      5  CCI A02 d          20.018   7.561   5.262  0.00  0.00     0.089 C 
ATOM      6  H23 A02 d          20.466   7.346   4.281  0.00  0.00     0.087 H 
BRANCH   5   7
ATOM      7  NBS A02 d          20.212   6.356   6.109  0.00  0.00    -0.348 N 
ATOM      8  CBZ A02 d          20.164   5.116   5.597  0.00  0.00     0.218 C 
ATOM      9  OAI A02 d          19.912   4.861   4.413  0.00  0.00    -0.274 OA
ATOM     10  H22 A02 d          20.383   6.471   7.087  0.00  0.00     0.163 HD
BRANCH   8  11
ATOM     11  CBG A02 d          20.394   3.979   6.614  0.00  0.00     0.009 C 
ATOM     12  H11 A02 d          21.380   4.115   7.082  0.00  0.00     0.047 H 
ATOM     13  H12 A02 d          20.369   3.016   6.083  0.00  0.00     0.047 H 
BRANCH  11  14
ATOM     14  CAX A02 d          19.317   3.968   7.717  0.00  0.00    -0.057 C 
ATOM     15  H13 A02 d          19.385   4.902   8.294  0.00  0.00     0.033 H 
ATOM     16  H14 A02 d          19.494   3.111   8.383  0.00  0.00     0.033 H 
BRANCH  14  17
ATOM     17  CAU A02 d          17.910   3.853   7.118  0.00  0.00    -0.063 C 
ATOM     18  H15 A02 d          17.959   3.210   6.227  0.00  0.00     0.033 H 
ATOM     19  H16 A02 d          17.569   4.858   6.827  0.00  0.00     0.033 H 
BRANCH  17  20
ATOM     20  CAW A02 d          16.894   3.257   8.096  0.00  0.00    -0.050 C 
ATOM     21  H17 A02 d          17.301   3.273   9.118  0.00  0.00     0.035 H 
ATOM     22  H18 A02 d          16.662   2.220   7.811  0.00  0.00     0.035 H 
BRANCH  20  23
ATOM     23  CBD A02 d          15.628   4.114   8.024  0.00  0.00    -0.005 C 
ATOM     24  H19 A02 d          14.779   3.518   8.391  0.00  0.00     0.064 H 
ATOM     25  H20 A02 d          15.453   4.395   6.976  0.00  0.00     0.064 H 
BRANCH  23  26
ATOM     26  NBR A02 d          15.727   5.342   8.832  0.00  0.00    -0.359 N 
ATOM     27  CCC A02 d          14.681   6.041   9.273  0.00  0.00     0.249 C 
ATOM     28  OAL A02 d          13.499   5.781   9.001  0.00  0.00    -0.271 OA
ATOM     29  H21 A02 d          16.641   5.674   9.065  0.00  0.00     0.162 HD
BRANCH  27  30
ATOM     30  CCM A02 d          14.996   7.245  10.180  0.00  0.00     0.144 C 
ATOM     31  OBV A02 d          15.209   8.466   9.396  0.00  0.00    -0.346 OA
ATOM     32  CCN A02 d          14.029   9.315   9.505  0.00  0.00     0.140 C 
ATOM     33  CCL A02 d          12.958   8.429  10.171  0.00  0.00     0.105 C 
ATOM     34  H10 A02 d          14.249  10.173  10.157  0.00  0.00     0.123 H 
ATOM     35  CCK A02 d          13.791   7.537  11.074  0.00  0.00     0.098 C 
ATOM     36  H8  A02 d          12.389   7.848   9.430  0.00  0.00     0.093 H 
ATOM     37  H7  A02 d          13.255   6.624  11.375  0.00  0.00     0.091 H 
ATOM     38  H9  A02 d          15.885   7.023  10.789  0.00  0.00     0.102 H 
BRANCH  32  39
ATOM     39  N9  A02 d          13.595   9.852   8.146  0.00  0.00    -0.294 N 
ATOM     40  C4  A02 d          14.322  10.620   7.340  0.00  0.00     0.167 A 
ATOM     41  N3  A02 d          15.555  11.141   7.437  0.00  0.00    -0.222 NA
ATOM     42  C5  A02 d          13.549  10.887   6.218  0.00  0.00     0.149 A 
ATOM     43  C2  A02 d          16.045  11.895   6.461  0.00  0.00     0.091 A 
ATOM     44  N1  A02 d          15.326  12.162   5.362  0.00  0.00    -0.222 NA
ATOM     45  H1  A02 d          17.045  12.302   6.554  0.00  0.00     0.146 H 
ATOM     46  C6  A02 d          14.081  11.681   5.215  0.00  0.00     0.155 A 
ATOM     47  N7  A02 d          12.377  10.273   6.360  0.00  0.00    -0.236 NA
ATOM     48  C8  A02 d          12.420   9.634   7.534  0.00  0.00     0.071 A 
ATOM     49  H4  A02 d          11.614   9.023   7.938  0.00  0.00     0.144 H 
BRANCH  46  50
ATOM     50  N6  A02 d          13.363  11.956   4.131  0.00  0.00    -0.382 N 
ATOM     51  H2  A02 d          13.001  11.190   3.545  0.00  0.00     0.157 HD
ATOM     52  H3  A02 d          13.168  12.935   3.877  0.00  0.00     0.157 HD
ENDBRANCH  46  50
ENDBRANCH  32  39
BRANCH  33  53
ATOM     53  OAO A02 d          12.080   9.220  10.959  0.00  0.00    -0.388 OA
ATOM     54  H6  A02 d          12.397   9.247  11.854  0.00  0.00     0.210 HD
ENDBRANCH  33  53
BRANCH  35  55
ATOM     55  OAN A02 d          14.226   8.282  12.228  0.00  0.00    -0.390 OA
ATOM     56  H5  A02 d          15.122   8.571  12.098  0.00  0.00     0.210 HD
ENDBRANCH  35  55
ENDBRANCH  27  30
ENDBRANCH  23  26
ENDBRANCH  20  23
ENDBRANCH  17  20
ENDBRANCH  14  17
ENDBRANCH  11  14
ENDBRANCH   8  11
ENDBRANCH   5   7
BRANCH   5  57
ATOM     57  CBJ A02 d          20.765   8.789   5.833  0.00  0.00    -0.038 C 
ATOM     58  H24 A02 d          21.722   8.441   6.249  0.00  0.00     0.036 H 
ATOM     59  H25 A02 d          20.149   9.216   6.638  0.00  0.00     0.036 H 
BRANCH  57  60
ATOM     60  CAZ A02 d          21.063   9.901   4.823  0.00  0.00    -0.061 C 
ATOM     61  H26 A02 d          20.845   9.539   3.808  0.00  0.00     0.033 H 
ATOM     62  H27 A02 d          22.125  10.179   4.893  0.00  0.00     0.033 H 
BRANCH  60  63
ATOM     63  CAS A02 d          20.192  11.139   5.120  0.00  0.00    -0.043 C 
ATOM     64  H28 A02 d          20.333  11.434   6.172  0.00  0.00     0.035 H 
ATOM     65  H29 A02 d          19.135  10.884   4.949  0.00  0.00     0.035 H 
BRANCH  63  66
ATOM     66  CAR A02 d          20.576  12.319   4.214  0.00  0.00     0.080 C 
ATOM     67  H30 A02 d          21.616  12.195   3.876  0.00  0.00     0.075 H 
ATOM     68  H31 A02 d          20.484  13.258   4.780  0.00  0.00     0.075 H 
BRANCH  66  69
ATOM     69  NAC A02 d          19.683  12.366   3.043  0.00  0.00    -0.079 N 
ATOM     70  H32 A02 d          18.736  12.526   3.348  0.00  0.00     0.274 HD
ATOM     71  H33 A02 d          19.732  11.489   2.547  0.00  0.00     0.274 HD
ATOM     72  H34 A02 d          19.971  13.114   2.431  0.00  0.00     0.274 HD
ENDBRANCH  66  69
ENDBRANCH  63  66
ENDBRANCH  60  63
ENDBRANCH  57  60
ENDBRANCH   5  57
ENDBRANCH   1   5
BRANCH   3  73
ATOM     73  CBC A02 d          16.619   7.613   3.456  0.00  0.00    -0.005 C 
ATOM     74  H43 A02 d          16.175   6.622   3.276  0.00  0.00     0.064 H 
ATOM     75  H44 A02 d          16.080   8.111   4.276  0.00  0.00     0.064 H 
BRANCH  73  76
ATOM     76  CAV A02 d          16.496   8.459   2.184  0.00  0.00    -0.050 C 
ATOM     77  H41 A02 d          17.333   9.172   2.142  0.00  0.00     0.035 H 
ATOM     78  H42 A02 d          16.533   7.799   1.306  0.00  0.00     0.035 H 
BRANCH  76  79
ATOM     79  CAT A02 d          15.173   9.233   2.179  0.00  0.00    -0.063 C 
ATOM     80  H39 A02 d          14.389   8.600   2.619  0.00  0.00     0.033 H 
ATOM     81  H40 A02 d          15.291  10.145   2.783  0.00  0.00     0.033 H 
BRANCH  79  82
ATOM     82  CAY A02 d          14.750   9.630   0.761  0.00  0.00    -0.057 C 
ATOM     83  H37 A02 d          15.650   9.862   0.172  0.00  0.00     0.033 H 
ATOM     84  H38 A02 d          14.217   8.786   0.299  0.00  0.00     0.033 H 
BRANCH  82  85
ATOM     85  CBH A02 d          13.827  10.860   0.765  0.00  0.00     0.009 C 
ATOM     86  H35 A02 d          14.085  11.496   1.624  0.00  0.00     0.047 H 
ATOM     87  H36 A02 d          13.980  11.424  -0.168  0.00  0.00     0.047 H 
BRANCH  85  88
ATOM     88  CCA A02 d          12.346  10.459   0.868  0.00  0.00     0.218 C 
ATOM     89  OAJ A02 d          11.505  10.941   0.102  0.00  0.00    -0.274 OA
ATOM     90  NBT A02 d          12.069   9.565   1.825  0.00  0.00    -0.348 N 
ATOM     91  H46 A02 d          12.820   9.224   2.390  0.00  0.00     0.163 HD
BRANCH  90  92
ATOM     92  CCJ A02 d          10.700   9.056   2.088  0.00  0.00     0.089 C 
ATOM     93  H47 A02 d           9.985   9.828   1.771  0.00  0.00     0.087 H 
BRANCH  92  94
ATOM     94  CBK A02 d          10.476   8.793   3.601  0.00  0.00    -0.036 C 
ATOM     95  H48 A02 d           9.436   9.057   3.846  0.00  0.00     0.036 H 
ATOM     96  H49 A02 d          11.162   9.438   4.168  0.00  0.00     0.036 H 
BRANCH  94  97
ATOM     97  CBB A02 d          10.716   7.337   4.037  0.00  0.00    -0.048 C 
ATOM     98  H50 A02 d          11.722   7.032   3.714  0.00  0.00     0.035 H 
ATOM     99  H51 A02 d           9.965   6.695   3.553  0.00  0.00     0.035 H 
BRANCH  97 100
ATOM    100  CBF A02 d          10.611   7.159   5.560  0.00  0.00     0.009 C 
ATOM    101  H52 A02 d          10.894   8.095   6.064  0.00  0.00     0.064 H 
ATOM    102  H53 A02 d          11.280   6.350   5.887  0.00  0.00     0.064 H 
BRANCH 100 103
ATOM    103  NBP A02 d           9.214   6.818   5.891  0.00  0.00    -0.227 N 
ATOM    104  CBX A02 d           8.478   7.468   6.802  0.00  0.00     0.665 C 
ATOM    105  NAB A02 d           8.948   8.507   7.490  0.00  0.00    -0.235 N 
ATOM    106  NAE A02 d           7.230   7.061   7.016  0.00  0.00    -0.235 N 
ATOM    107  H55 A02 d           8.350   8.980   8.183  0.00  0.00     0.174 HD
ATOM    108  H56 A02 d           9.910   8.838   7.329  0.00  0.00     0.174 HD
ATOM    109  H57 A02 d           6.853   6.259   6.492  0.00  0.00     0.174 HD
ATOM    110  H58 A02 d           6.640   7.549   7.706  0.00  0.00     0.174 HD
ATOM    111  H54 A02 d           8.778   6.031   5.390  0.00  0.00     0.177 HD
ENDBRANCH 100 103
ENDBRANCH  97 100
ENDBRANCH  94  97
ENDBRANCH  92  94
BRANCH  92 112
ATOM    112  CCD A02 d          10.427   7.781   1.253  0.00  0.00     0.241 C 
ATOM    113  OAM A02 d           9.278   7.450   0.960  0.00  0.00    -0.271 OA
ATOM    114  N   A02 d          11.511   7.090   0.893  0.00  0.00    -0.346 N 
ATOM    115  H59 A02 d          12.407   7.433   1.176  0.00  0.00     0.163 HD
BRANCH 114 116
ATOM    116  CA  A02 d          11.456   5.844   0.096  0.00  0.00     0.089 C 
ATOM    117  H60 A02 d          10.462   5.392   0.225  0.00  0.00     0.087 H 
BRANCH 116 118
ATOM    118  CB  A02 d          12.517   4.860   0.603  0.00  0.00    -0.036 C 
ATOM    119  H61 A02 d          12.947   4.324  -0.256  0.00  0.00     0.036 H 
ATOM    120  H62 A02 d          12.040   4.139   1.283  0.00  0.00     0.036 H 
BRANCH 118 121
ATOM    121  CG  A02 d          13.639   5.583   1.351  0.00  0.00    -0.048 C 
ATOM    122  H63 A02 d          13.651   5.241   2.396  0.00  0.00     0.035 H 
ATOM    123  H64 A02 d          13.450   6.666   1.322  0.00  0.00     0.035 H 
BRANCH 121 124
ATOM    124  CD  A02 d          14.998   5.298   0.719  0.00  0.00     0.009 C 
ATOM    125  H65 A02 d          15.004   4.291   0.278  0.00  0.00     0.064 H 
ATOM    126  H66 A02 d          15.789   5.370   1.481  0.00  0.00     0.064 H 
BRANCH 124 127
ATOM    127  NE  A02 d          15.216   6.300  -0.320  0.00  0.00    -0.227 N 
ATOM    128  CZ  A02 d          16.085   6.187  -1.324  0.00  0.00     0.665 C 
ATOM    129  NH1 A02 d          16.839   5.104  -1.513  0.00  0.00    -0.235 N 
ATOM    130  NH2 A02 d          16.163   7.208  -2.167  0.00  0.00    -0.235 N 
ATOM    131  H68 A02 d          17.496   5.067  -2.305  0.00  0.00     0.174 HD
ATOM    132  H69 A02 d          16.764   4.306  -0.867  0.00  0.00     0.174 HD
ATOM    133  H70 A02 d          15.580   8.044  -2.019  0.00  0.00     0.174 HD
ATOM    134  H71 A02 d          16.808   7.165  -2.969  0.00  0.00     0.174 HD
ATOM    135  H67 A02 d          14.654   7.162  -0.274  0.00  0.00     0.177 HD
ENDBRANCH 124 127
ENDBRANCH 121 124
ENDBRANCH 118 121
ENDBRANCH 116 118
BRANCH 116 136
ATOM    136  C   A02 d          11.674   6.124  -1.409  0.00  0.00     0.238 C 
ATOM    137  O   A02 d          12.685   5.740  -2.000  0.00  0.00    -0.271 OA
ATOM    138  NAF A02 d          10.682   6.784  -2.003  0.00  0.00    -0.368 N 
ATOM    139  H72 A02 d          10.742   7.006  -2.976  0.00  0.00     0.159 HD
ATOM    140  H73 A02 d           9.877   7.057  -1.476  0.00  0.00     0.159 HD
ENDBRANCH 116 136
ENDBRANCH 114 116
ENDBRANCH  92 112
ENDBRANCH  90  92
ENDBRANCH  85  88
ENDBRANCH  82  85
ENDBRANCH  79  82
ENDBRANCH  76  79
ENDBRANCH  73  76
ENDBRANCH   3  73
TORSDOF 36
ENDMDL
MODEL 8
REMARK VINA RESULT:      -3.2      3.001      6.528
REMARK WARNING: 32 MAX_TORS EXCEEDED!!!
REMARK  36 active torsions:
REMARK  status: ('A' for Active; 'I' for Inactive)
REMARK    1  A    between atoms: C6_6  and  N6_7 
REMARK    2  A    between atoms: CCN_19  and  N9_10 
REMARK    3  A    between atoms: CCK_16  and  OAN_12 
REMARK    4  A    between atoms: CCL_17  and  OAO_13 
REMARK    5  A    between atoms: CCC_15  and  CCM_18 
REMARK       I    between atoms: NBR_27  and  CCC_15 
REMARK    6  A    between atoms: CBZ_20  and  CBG_22 
REMARK       I    between atoms: NBS_28  and  CBZ_20 
REMARK    7  A    between atoms: CBG_22  and  CAX_23 
REMARK    8  A    between atoms: CAX_23  and  CAU_24 
REMARK    9  A    between atoms: CAU_24  and  CAW_25 
REMARK   10  A    between atoms: CAW_25  and  CBD_26 
REMARK   11  A    between atoms: CBD_26  and  NBR_27 
REMARK   12  A    between atoms: CCI_29  and  NBS_28 
REMARK   13  A    between atoms: CCB_30  and  CCI_29 
REMARK   14  A    between atoms: CCI_29  and  CBJ_32 
REMARK       I    between atoms: NBQ_44  and  CCB_30 
REMARK   15  A    between atoms: CBJ_32  and  CAZ_33 
REMARK   16  A    between atoms: CAZ_33  and  CAS_34 
REMARK   17  A    between atoms: CAS_34  and  CAR_35 
REMARK   18  A    between atoms: CAR_35  and  NAC_36 
REMARK   19  A    between atoms: CBH_39  and  CCA_37 
REMARK       I    between atoms: CCA_37  and  NBT_45 
REMARK   20  A    between atoms: CAY_40  and  CBH_39 
REMARK   21  A    between atoms: CAT_41  and  CAY_40 
REMARK   22  A    between atoms: CAV_42  and  CAT_41 
REMARK   23  A    between atoms: CBC_43  and  CAV_42 
REMARK   24  A    between atoms: CBC_43  and  NBQ_44 
REMARK   25  A    between atoms: NBT_45  and  CCJ_46 
REMARK   26  A    between atoms: CCJ_46  and  CBK_47 
REMARK   27  A    between atoms: CCJ_46  and  CCD_54 
REMARK   28  A    between atoms: CBK_47  and  CBB_48 
REMARK   29  A    between atoms: CBB_48  and  CBF_49 
REMARK   30  A    between atoms: CBF_49  and  NBP_50 
REMARK       I    between atoms: NBP_50  and  CBX_51 
REMARK       I    between atoms: CBX_51  and  NAB_52 
REMARK       I    between atoms: CBX_51  and  NAE_53 
REMARK       I    between atoms: CCD_54  and  N_56 
REMARK   31  A    between atoms: N_56  and  CA_57 
REMARK   32  A    between atoms: CA_57  and  CB_58 
REMARK   33  A    between atoms: CA_57  and  C_65 
REMARK   34  A    between atoms: CB_58  and  CG_59 
REMARK   35  A    between atoms: CG_59  and  CD_60 
REMARK   36  A    between atoms: CD_60  and  NE_61 
REMARK       I    between atoms: NE_61  and  CZ_62 
REMARK       I    between atoms: CZ_62  and  NH1_63 
REMARK       I    between atoms: C_65  and  NAF_67 
ROOT
ATOM      1  CCB A02 d          14.065   7.818  -1.675  0.00  0.00     0.240 C 
ATOM      2  OAK A02 d          13.480   7.639  -2.736  0.00  0.00    -0.271 OA
ATOM      3  NBQ A02 d          14.619   8.977  -1.321  0.00  0.00    -0.359 N 
ATOM      4  H45 A02 d          15.088   9.037  -0.439  0.00  0.00     0.162 HD
ENDROOT
BRANCH   1   5
ATOM      5  CCI A02 d          14.229   6.658  -0.662  0.00  0.00     0.089 C 
ATOM      6  H23 A02 d          13.445   6.783   0.098  0.00  0.00     0.087 H 
BRANCH   5   7
ATOM      7  NBS A02 d          15.538   6.753   0.035  0.00  0.00    -0.348 N 
ATOM      8  CBZ A02 d          15.665   6.474   1.342  0.00  0.00     0.218 C 
ATOM      9  OAI A02 d          14.723   6.167   2.083  0.00  0.00    -0.274 OA
ATOM     10  H22 A02 d          16.346   7.032  -0.484  0.00  0.00     0.163 HD
BRANCH   8  11
ATOM     11  CBG A02 d          17.094   6.616   1.904  0.00  0.00     0.009 C 
ATOM     12  H11 A02 d          17.587   7.468   1.414  0.00  0.00     0.047 H 
ATOM     13  H12 A02 d          17.654   5.694   1.687  0.00  0.00     0.047 H 
BRANCH  11  14
ATOM     14  CAX A02 d          17.092   6.850   3.428  0.00  0.00    -0.057 C 
ATOM     15  H13 A02 d          18.096   6.637   3.825  0.00  0.00     0.033 H 
ATOM     16  H14 A02 d          16.361   6.171   3.894  0.00  0.00     0.033 H 
BRANCH  14  17
ATOM     17  CAU A02 d          16.716   8.297   3.767  0.00  0.00    -0.063 C 
ATOM     18  H15 A02 d          15.746   8.526   3.302  0.00  0.00     0.033 H 
ATOM     19  H16 A02 d          17.487   8.965   3.355  0.00  0.00     0.033 H 
BRANCH  17  20
ATOM     20  CAW A02 d          16.608   8.546   5.274  0.00  0.00    -0.050 C 
ATOM     21  H17 A02 d          17.559   8.944   5.659  0.00  0.00     0.035 H 
ATOM     22  H18 A02 d          16.366   7.607   5.793  0.00  0.00     0.035 H 
BRANCH  20  23
ATOM     23  CBD A02 d          15.488   9.567   5.492  0.00  0.00    -0.005 C 
ATOM     24  H19 A02 d          14.698   9.387   4.748  0.00  0.00     0.064 H 
ATOM     25  H20 A02 d          15.901  10.576   5.352  0.00  0.00     0.064 H 
BRANCH  23  26
ATOM     26  NBR A02 d          14.897   9.481   6.839  0.00  0.00    -0.359 N 
ATOM     27  CCC A02 d          13.805   8.776   7.139  0.00  0.00     0.249 C 
ATOM     28  OAL A02 d          13.117   8.163   6.311  0.00  0.00    -0.271 OA
ATOM     29  H21 A02 d          15.344   9.986   7.577  0.00  0.00     0.162 HD
BRANCH  27  30
ATOM     30  CCM A02 d          13.401   8.742   8.625  0.00  0.00     0.144 C 
ATOM     31  OBV A02 d          12.735   7.482   8.971  0.00  0.00    -0.346 OA
ATOM     32  CCN A02 d          13.667   6.638   9.709  0.00  0.00     0.140 C 
ATOM     33  CCL A02 d          15.038   7.326   9.559  0.00  0.00     0.105 C 
ATOM     34  H10 A02 d          13.384   6.615  10.771  0.00  0.00     0.123 H 
ATOM     35  CCK A02 d          14.657   8.794   9.495  0.00  0.00     0.098 C 
ATOM     36  H8  A02 d          15.564   6.997   8.651  0.00  0.00     0.093 H 
ATOM     37  H7  A02 d          15.451   9.416   9.055  0.00  0.00     0.091 H 
ATOM     38  H9  A02 d          12.741   9.594   8.846  0.00  0.00     0.102 H 
BRANCH  32  39
ATOM     39  N9  A02 d          13.662   5.205   9.188  0.00  0.00    -0.294 N 
ATOM     40  C4  A02 d          14.250   4.775   8.076  0.00  0.00     0.167 A 
ATOM     41  N3  A02 d          14.970   5.388   7.123  0.00  0.00    -0.222 NA
ATOM     42  C5  A02 d          13.991   3.414   7.971  0.00  0.00     0.149 A 
ATOM     43  C2  A02 d          15.447   4.701   6.094  0.00  0.00     0.091 A 
ATOM     44  N1  A02 d          15.221   3.386   5.972  0.00  0.00    -0.222 NA
ATOM     45  H1  A02 d          16.031   5.213   5.337  0.00  0.00     0.146 H 
ATOM     46  C6  A02 d          14.496   2.720   6.885  0.00  0.00     0.155 A 
ATOM     47  N7  A02 d          13.260   3.045   9.022  0.00  0.00    -0.236 NA
ATOM     48  C8  A02 d          13.075   4.143   9.763  0.00  0.00     0.071 A 
ATOM     49  H4  A02 d          12.525   4.172  10.702  0.00  0.00     0.144 H 
BRANCH  46  50
ATOM     50  N6  A02 d          14.261   1.418   6.758  0.00  0.00    -0.382 N 
ATOM     51  H2  A02 d          13.730   0.918   7.485  0.00  0.00     0.157 HD
ATOM     52  H3  A02 d          14.609   0.910   5.933  0.00  0.00     0.157 HD
ENDBRANCH  46  50
ENDBRANCH  32  39
BRANCH  33  53
ATOM     53  OAO A02 d          15.839   7.090  10.708  0.00  0.00    -0.388 OA
ATOM     54  H6  A02 d          15.277   6.915  11.454  0.00  0.00     0.210 HD
ENDBRANCH  33  53
BRANCH  35  55
ATOM     55  OAN A02 d          14.304   9.264  10.810  0.00  0.00    -0.390 OA
ATOM     56  H5  A02 d          14.748   8.736  11.464  0.00  0.00     0.210 HD
ENDBRANCH  35  55
ENDBRANCH  27  30
ENDBRANCH  23  26
ENDBRANCH  20  23
ENDBRANCH  17  20
ENDBRANCH  14  17
ENDBRANCH  11  14
ENDBRANCH   8  11
ENDBRANCH   5   7
BRANCH   5  57
ATOM     57  CBJ A02 d          14.018   5.265  -1.297  0.00  0.00    -0.038 C 
ATOM     58  H24 A02 d          15.007   4.811  -1.457  0.00  0.00     0.036 H 
ATOM     59  H25 A02 d          13.519   5.407  -2.267  0.00  0.00     0.036 H 
BRANCH  57  60
ATOM     60  CAZ A02 d          13.176   4.289  -0.469  0.00  0.00    -0.061 C 
ATOM     61  H26 A02 d          12.698   4.833   0.359  0.00  0.00     0.033 H 
ATOM     62  H27 A02 d          13.827   3.502  -0.063  0.00  0.00     0.033 H 
BRANCH  60  63
ATOM     63  CAS A02 d          12.086   3.644  -1.351  0.00  0.00    -0.043 C 
ATOM     64  H28 A02 d          12.340   2.586  -1.518  0.00  0.00     0.035 H 
ATOM     65  H29 A02 d          12.048   4.170  -2.317  0.00  0.00     0.035 H 
BRANCH  63  66
ATOM     66  CAR A02 d          10.707   3.728  -0.680  0.00  0.00     0.080 C 
ATOM     67  H30 A02 d          10.060   2.931  -1.076  0.00  0.00     0.075 H 
ATOM     68  H31 A02 d          10.256   4.709  -0.897  0.00  0.00     0.075 H 
BRANCH  66  69
ATOM     69  NAC A02 d          10.845   3.566   0.778  0.00  0.00    -0.079 N 
ATOM     70  H32 A02 d          10.008   3.896   1.234  0.00  0.00     0.274 HD
ATOM     71  H33 A02 d          11.637   4.101   1.102  0.00  0.00     0.274 HD
ATOM     72  H34 A02 d          10.986   2.592   0.996  0.00  0.00     0.274 HD
ENDBRANCH  66  69
ENDBRANCH  63  66
ENDBRANCH  60  63
ENDBRANCH  57  60
ENDBRANCH   5  57
ENDBRANCH   1   5
BRANCH   3  73
ATOM     73  CBC A02 d          14.566  10.179  -2.184  0.00  0.00    -0.005 C 
ATOM     74  H43 A02 d          13.881   9.992  -3.024  0.00  0.00     0.064 H 
ATOM     75  H44 A02 d          14.199  11.032  -1.594  0.00  0.00     0.064 H 
BRANCH  73  76
ATOM     76  CAV A02 d          15.959  10.509  -2.733  0.00  0.00    -0.050 C 
ATOM     77  H41 A02 d          16.551   9.584  -2.796  0.00  0.00     0.035 H 
ATOM     78  H42 A02 d          15.858  10.947  -3.736  0.00  0.00     0.035 H 
BRANCH  76  79
ATOM     79  CAT A02 d          16.677  11.506  -1.816  0.00  0.00    -0.063 C 
ATOM     80  H39 A02 d          16.971  10.990  -0.891  0.00  0.00     0.033 H 
ATOM     81  H40 A02 d          17.575  11.880  -2.330  0.00  0.00     0.033 H 
BRANCH  79  82
ATOM     82  CAY A02 d          15.781  12.696  -1.456  0.00  0.00    -0.057 C 
ATOM     83  H37 A02 d          15.190  12.977  -2.340  0.00  0.00     0.033 H 
ATOM     84  H38 A02 d          15.105  12.399  -0.641  0.00  0.00     0.033 H 
BRANCH  82  85
ATOM     85  CBH A02 d          16.606  13.912  -1.001  0.00  0.00     0.009 C 
ATOM     86  H35 A02 d          17.653  13.766  -1.303  0.00  0.00     0.047 H 
ATOM     87  H36 A02 d          16.207  14.815  -1.487  0.00  0.00     0.047 H 
BRANCH  85  88
ATOM     88  CCA A02 d          16.549  14.099   0.525  0.00  0.00     0.218 C 
ATOM     89  OAJ A02 d          17.288  14.911   1.091  0.00  0.00    -0.274 OA
ATOM     90  NBT A02 d          15.648  13.335   1.153  0.00  0.00    -0.348 N 
ATOM     91  H46 A02 d          15.086  12.713   0.607  0.00  0.00     0.163 HD
BRANCH  90  92
ATOM     92  CCJ A02 d          15.443  13.364   2.623  0.00  0.00     0.089 C 
ATOM     93  H47 A02 d          15.562  14.404   2.960  0.00  0.00     0.087 H 
BRANCH  92  94
ATOM     94  CBK A02 d          16.504  12.503   3.359  0.00  0.00    -0.036 C 
ATOM     95  H48 A02 d          17.322  12.289   2.656  0.00  0.00     0.036 H 
ATOM     96  H49 A02 d          16.029  11.560   3.666  0.00  0.00     0.036 H 
BRANCH  94  97
ATOM     97  CBB A02 d          17.106  13.166   4.610  0.00  0.00    -0.048 C 
ATOM     98  H50 A02 d          18.163  12.871   4.692  0.00  0.00     0.035 H 
ATOM     99  H51 A02 d          16.558  12.814   5.496  0.00  0.00     0.035 H 
BRANCH  97 100
ATOM    100  CBF A02 d          17.024  14.700   4.553  0.00  0.00     0.009 C 
ATOM    101  H52 A02 d          16.915  15.104   5.571  0.00  0.00     0.064 H 
ATOM    102  H53 A02 d          16.161  15.003   3.943  0.00  0.00     0.064 H 
BRANCH 100 103
ATOM    103  NBP A02 d          18.268  15.208   3.945  0.00  0.00    -0.227 N 
ATOM    104  CBX A02 d          18.805  16.405   4.221  0.00  0.00     0.665 C 
ATOM    105  NAB A02 d          18.257  17.247   5.096  0.00  0.00    -0.235 N 
ATOM    106  NAE A02 d          19.929  16.753   3.603  0.00  0.00    -0.235 N 
ATOM    107  H55 A02 d          18.701  18.159   5.280  0.00  0.00     0.174 HD
ATOM    108  H56 A02 d          17.390  16.988   5.588  0.00  0.00     0.174 HD
ATOM    109  H57 A02 d          20.364  16.111   2.924  0.00  0.00     0.174 HD
ATOM    110  H58 A02 d          20.366  17.664   3.803  0.00  0.00     0.174 HD
ATOM    111  H54 A02 d          18.756  14.605   3.267  0.00  0.00     0.177 HD
ENDBRANCH 100 103
ENDBRANCH  97 100
ENDBRANCH  94  97
ENDBRANCH  92  94
BRANCH  92 112
ATOM    112  CCD A02 d          14.008  12.908   2.979  0.00  0.00     0.241 C 
ATOM    113  OAM A02 d          13.121  13.730   3.212  0.00  0.00    -0.271 OA
ATOM    114  N   A02 d          13.820  11.587   3.016  0.00  0.00    -0.346 N 
ATOM    115  H59 A02 d          14.599  10.992   2.813  0.00  0.00     0.163 HD
BRANCH 114 116
ATOM    116  CA  A02 d          12.521  10.956   3.340  0.00  0.00     0.089 C 
ATOM    117  H60 A02 d          11.731  11.475   2.777  0.00  0.00     0.087 H 
BRANCH 116 118
ATOM    118  CB  A02 d          12.236  11.102   4.840  0.00  0.00    -0.036 C 
ATOM    119  H61 A02 d          13.024  11.721   5.295  0.00  0.00     0.036 H 
ATOM    120  H62 A02 d          12.241  10.104   5.303  0.00  0.00     0.036 H 
BRANCH 118 121
ATOM    121  CG  A02 d          10.878  11.761   5.091  0.00  0.00    -0.048 C 
ATOM    122  H63 A02 d          10.584  12.327   4.194  0.00  0.00     0.035 H 
ATOM    123  H64 A02 d          10.965  12.448   5.946  0.00  0.00     0.035 H 
BRANCH 121 124
ATOM    124  CD  A02 d           9.806  10.721   5.396  0.00  0.00     0.009 C 
ATOM    125  H65 A02 d           9.688  10.040   4.540  0.00  0.00     0.064 H 
ATOM    126  H66 A02 d           8.847  11.219   5.602  0.00  0.00     0.064 H 
BRANCH 124 127
ATOM    127  NE  A02 d          10.242   9.973   6.571  0.00  0.00    -0.227 N 
ATOM    128  CZ  A02 d           9.761  10.132   7.803  0.00  0.00     0.665 C 
ATOM    129  NH1 A02 d           8.779  10.984   8.095  0.00  0.00    -0.235 N 
ATOM    130  NH2 A02 d          10.292   9.377   8.756  0.00  0.00    -0.235 N 
ATOM    131  H68 A02 d           8.442  11.069   9.064  0.00  0.00     0.174 HD
ATOM    132  H69 A02 d           8.356  11.557   7.350  0.00  0.00     0.174 HD
ATOM    133  H70 A02 d          11.051   8.720   8.529  0.00  0.00     0.174 HD
ATOM    134  H71 A02 d           9.945   9.449   9.723  0.00  0.00     0.174 HD
ATOM    135  H67 A02 d          10.980   9.267   6.437  0.00  0.00     0.177 HD
ENDBRANCH 124 127
ENDBRANCH 121 124
ENDBRANCH 118 121
ENDBRANCH 116 118
BRANCH 116 136
ATOM    136  C   A02 d          12.502   9.462   2.944  0.00  0.00     0.238 C 
ATOM    137  O   A02 d          11.646   8.687   3.376  0.00  0.00    -0.271 OA
ATOM    138  NAF A02 d          13.459   9.098   2.093  0.00  0.00    -0.368 N 
ATOM    139  H72 A02 d          13.520   8.149   1.785  0.00  0.00     0.159 HD
ATOM    140  H73 A02 d          14.118   9.775   1.763  0.00  0.00     0.159 HD
ENDBRANCH 116 136
ENDBRANCH 114 116
ENDBRANCH  92 112
ENDBRANCH  90  92
ENDBRANCH  85  88
ENDBRANCH  82  85
ENDBRANCH  79  82
ENDBRANCH  76  79
ENDBRANCH  73  76
ENDBRANCH   3  73
TORSDOF 36
ENDMDL
MODEL 9
REMARK VINA RESULT:      -3.0      2.766      6.225
REMARK WARNING: 32 MAX_TORS EXCEEDED!!!
REMARK  36 active torsions:
REMARK  status: ('A' for Active; 'I' for Inactive)
REMARK    1  A    between atoms: C6_6  and  N6_7 
REMARK    2  A    between atoms: CCN_19  and  N9_10 
REMARK    3  A    between atoms: CCK_16  and  OAN_12 
REMARK    4  A    between atoms: CCL_17  and  OAO_13 
REMARK    5  A    between atoms: CCC_15  and  CCM_18 
REMARK       I    between atoms: NBR_27  and  CCC_15 
REMARK    6  A    between atoms: CBZ_20  and  CBG_22 
REMARK       I    between atoms: NBS_28  and  CBZ_20 
REMARK    7  A    between atoms: CBG_22  and  CAX_23 
REMARK    8  A    between atoms: CAX_23  and  CAU_24 
REMARK    9  A    between atoms: CAU_24  and  CAW_25 
REMARK   10  A    between atoms: CAW_25  and  CBD_26 
REMARK   11  A    between atoms: CBD_26  and  NBR_27 
REMARK   12  A    between atoms: CCI_29  and  NBS_28 
REMARK   13  A    between atoms: CCB_30  and  CCI_29 
REMARK   14  A    between atoms: CCI_29  and  CBJ_32 
REMARK       I    between atoms: NBQ_44  and  CCB_30 
REMARK   15  A    between atoms: CBJ_32  and  CAZ_33 
REMARK   16  A    between atoms: CAZ_33  and  CAS_34 
REMARK   17  A    between atoms: CAS_34  and  CAR_35 
REMARK   18  A    between atoms: CAR_35  and  NAC_36 
REMARK   19  A    between atoms: CBH_39  and  CCA_37 
REMARK       I    between atoms: CCA_37  and  NBT_45 
REMARK   20  A    between atoms: CAY_40  and  CBH_39 
REMARK   21  A    between atoms: CAT_41  and  CAY_40 
REMARK   22  A    between atoms: CAV_42  and  CAT_41 
REMARK   23  A    between atoms: CBC_43  and  CAV_42 
REMARK   24  A    between atoms: CBC_43  and  NBQ_44 
REMARK   25  A    between atoms: NBT_45  and  CCJ_46 
REMARK   26  A    between atoms: CCJ_46  and  CBK_47 
REMARK   27  A    between atoms: CCJ_46  and  CCD_54 
REMARK   28  A    between atoms: CBK_47  and  CBB_48 
REMARK   29  A    between atoms: CBB_48  and  CBF_49 
REMARK   30  A    between atoms: CBF_49  and  NBP_50 
REMARK       I    between atoms: NBP_50  and  CBX_51 
REMARK       I    between atoms: CBX_51  and  NAB_52 
REMARK       I    between atoms: CBX_51  and  NAE_53 
REMARK       I    between atoms: CCD_54  and  N_56 
REMARK   31  A    between atoms: N_56  and  CA_57 
REMARK   32  A    between atoms: CA_57  and  CB_58 
REMARK   33  A    between atoms: CA_57  and  C_65 
REMARK   34  A    between atoms: CB_58  and  CG_59 
REMARK   35  A    between atoms: CG_59  and  CD_60 
REMARK   36  A    between atoms: CD_60  and  NE_61 
REMARK       I    between atoms: NE_61  and  CZ_62 
REMARK       I    between atoms: CZ_62  and  NH1_63 
REMARK       I    between atoms: C_65  and  NAF_67 
ROOT
ATOM      1  CCB A02 d           9.880   8.165   1.600  0.00  0.00     0.240 C 
ATOM      2  OAK A02 d           8.692   8.408   1.425  0.00  0.00    -0.271 OA
ATOM      3  NBQ A02 d          10.537   8.455   2.722  0.00  0.00    -0.359 N 
ATOM      4  H45 A02 d          11.511   8.233   2.781  0.00  0.00     0.162 HD
ENDROOT
BRANCH   1   5
ATOM      5  CCI A02 d          10.723   7.515   0.476  0.00  0.00     0.089 C 
ATOM      6  H23 A02 d          10.141   6.666   0.088  0.00  0.00     0.087 H 
BRANCH   5   7
ATOM      7  NBS A02 d          11.991   6.966   1.024  0.00  0.00    -0.348 N 
ATOM      8  CBZ A02 d          12.591   5.895   0.480  0.00  0.00     0.218 C 
ATOM      9  OAI A02 d          12.136   5.251  -0.472  0.00  0.00    -0.274 OA
ATOM     10  H22 A02 d          12.408   7.405   1.819  0.00  0.00     0.163 HD
BRANCH   8  11
ATOM     11  CBG A02 d          13.903   5.462   1.167  0.00  0.00     0.009 C 
ATOM     12  H11 A02 d          14.568   5.015   0.415  0.00  0.00     0.047 H 
ATOM     13  H12 A02 d          13.669   4.716   1.941  0.00  0.00     0.047 H 
BRANCH  11  14
ATOM     14  CAX A02 d          14.626   6.654   1.826  0.00  0.00    -0.057 C 
ATOM     15  H13 A02 d          13.987   7.547   1.752  0.00  0.00     0.033 H 
ATOM     16  H14 A02 d          15.573   6.836   1.297  0.00  0.00     0.033 H 
BRANCH  14  17
ATOM     17  CAU A02 d          14.925   6.374   3.303  0.00  0.00    -0.063 C 
ATOM     18  H15 A02 d          13.971   6.261   3.839  0.00  0.00     0.033 H 
ATOM     19  H16 A02 d          15.478   7.230   3.718  0.00  0.00     0.033 H 
BRANCH  17  20
ATOM     20  CAW A02 d          15.757   5.106   3.513  0.00  0.00    -0.050 C 
ATOM     21  H17 A02 d          16.018   4.663   2.540  0.00  0.00     0.035 H 
ATOM     22  H18 A02 d          15.187   4.376   4.107  0.00  0.00     0.035 H 
BRANCH  20  23
ATOM     23  CBD A02 d          17.030   5.509   4.261  0.00  0.00    -0.005 C 
ATOM     24  H19 A02 d          16.969   6.579   4.508  0.00  0.00     0.064 H 
ATOM     25  H20 A02 d          17.894   5.333   3.605  0.00  0.00     0.064 H 
BRANCH  23  26
ATOM     26  NBR A02 d          17.221   4.747   5.508  0.00  0.00    -0.359 N 
ATOM     27  CCC A02 d          16.527   4.948   6.628  0.00  0.00     0.249 C 
ATOM     28  OAL A02 d          15.685   5.845   6.780  0.00  0.00    -0.271 OA
ATOM     29  H21 A02 d          17.919   4.030   5.513  0.00  0.00     0.162 HD
BRANCH  27  30
ATOM     30  CCM A02 d          16.815   3.983   7.794  0.00  0.00     0.144 C 
ATOM     31  OBV A02 d          15.771   4.057   8.822  0.00  0.00    -0.346 OA
ATOM     32  CCN A02 d          14.908   2.887   8.709  0.00  0.00     0.140 C 
ATOM     33  CCL A02 d          15.303   2.224   7.375  0.00  0.00     0.105 C 
ATOM     34  H10 A02 d          15.115   2.194   9.537  0.00  0.00     0.123 H 
ATOM     35  CCK A02 d          16.784   2.543   7.280  0.00  0.00     0.098 C 
ATOM     36  H8  A02 d          14.737   2.639   6.528  0.00  0.00     0.093 H 
ATOM     37  H7  A02 d          17.170   2.451   6.255  0.00  0.00     0.091 H 
ATOM     38  H9  A02 d          17.797   4.218   8.231  0.00  0.00     0.102 H 
BRANCH  32  39
ATOM     39  N9  A02 d          13.433   3.269   8.769  0.00  0.00    -0.294 N 
ATOM     40  C4  A02 d          12.804   3.797   9.814  0.00  0.00     0.167 A 
ATOM     41  N3  A02 d          13.203   4.133  11.050  0.00  0.00    -0.222 NA
ATOM     42  C5  A02 d          11.477   3.979   9.448  0.00  0.00     0.149 A 
ATOM     43  C2  A02 d          12.343   4.652  11.917  0.00  0.00     0.091 A 
ATOM     44  N1  A02 d          11.059   4.847  11.589  0.00  0.00    -0.222 NA
ATOM     45  H1  A02 d          12.686   4.923  12.910  0.00  0.00     0.146 H 
ATOM     46  C6  A02 d          10.597   4.518  10.372  0.00  0.00     0.155 A 
ATOM     47  N7  A02 d          11.329   3.567   8.191  0.00  0.00    -0.236 NA
ATOM     48  C8  A02 d          12.531   3.147   7.782  0.00  0.00     0.071 A 
ATOM     49  H4  A02 d          12.748   2.759   6.788  0.00  0.00     0.144 H 
BRANCH  46  50
ATOM     50  N6  A02 d           9.321   4.699  10.050  0.00  0.00    -0.382 N 
ATOM     51  H2  A02 d           8.683   3.892   9.998  0.00  0.00     0.157 HD
ATOM     52  H3  A02 d           8.969   5.647   9.852  0.00  0.00     0.157 HD
ENDBRANCH  46  50
ENDBRANCH  32  39
BRANCH  33  53
ATOM     53  OAO A02 d          15.121   0.817   7.449  0.00  0.00    -0.388 OA
ATOM     54  H6  A02 d          14.696   0.512   6.656  0.00  0.00     0.210 HD
ENDBRANCH  33  53
BRANCH  35  55
ATOM     55  OAN A02 d          17.523   1.701   8.186  0.00  0.00    -0.390 OA
ATOM     56  H5  A02 d          18.426   1.642   7.897  0.00  0.00     0.210 HD
ENDBRANCH  35  55
ENDBRANCH  27  30
ENDBRANCH  23  26
ENDBRANCH  20  23
ENDBRANCH  17  20
ENDBRANCH  14  17
ENDBRANCH  11  14
ENDBRANCH   8  11
ENDBRANCH   5   7
BRANCH   5  57
ATOM     57  CBJ A02 d          10.978   8.464  -0.717  0.00  0.00    -0.038 C 
ATOM     58  H24 A02 d          10.020   8.624  -1.233  0.00  0.00     0.036 H 
ATOM     59  H25 A02 d          11.684   7.969  -1.399  0.00  0.00     0.036 H 
BRANCH  57  60
ATOM     60  CAZ A02 d          11.555   9.835  -0.351  0.00  0.00    -0.061 C 
ATOM     61  H26 A02 d          12.505   9.984  -0.884  0.00  0.00     0.033 H 
ATOM     62  H27 A02 d          11.733   9.877   0.734  0.00  0.00     0.033 H 
BRANCH  60  63
ATOM     63  CAS A02 d          10.567  10.952  -0.749  0.00  0.00    -0.043 C 
ATOM     64  H28 A02 d          11.067  11.642  -1.446  0.00  0.00     0.035 H 
ATOM     65  H29 A02 d          10.263  11.501   0.155  0.00  0.00     0.035 H 
BRANCH  63  66
ATOM     66  CAR A02 d           9.317  10.372  -1.427  0.00  0.00     0.080 C 
ATOM     67  H30 A02 d           9.395   9.275  -1.456  0.00  0.00     0.075 H 
ATOM     68  H31 A02 d           9.245  10.762  -2.453  0.00  0.00     0.075 H 
BRANCH  66  69
ATOM     69  NAC A02 d           8.110  10.757  -0.673  0.00  0.00    -0.079 N 
ATOM     70  H32 A02 d           7.506  11.307  -1.264  0.00  0.00     0.274 HD
ATOM     71  H33 A02 d           8.377  11.301   0.133  0.00  0.00     0.274 HD
ATOM     72  H34 A02 d           7.623   9.927  -0.372  0.00  0.00     0.274 HD
ENDBRANCH  66  69
ENDBRANCH  63  66
ENDBRANCH  60  63
ENDBRANCH  57  60
ENDBRANCH   5  57
ENDBRANCH   1   5
BRANCH   3  73
ATOM     73  CBC A02 d           9.881   9.095   3.885  0.00  0.00    -0.005 C 
ATOM     74  H43 A02 d           8.883   9.450   3.587  0.00  0.00     0.064 H 
ATOM     75  H44 A02 d           9.781   8.358   4.695  0.00  0.00     0.064 H 
BRANCH  73  76
ATOM     76  CAV A02 d          10.710  10.283   4.384  0.00  0.00    -0.050 C 
ATOM     77  H41 A02 d          10.038  11.032   4.830  0.00  0.00     0.035 H 
ATOM     78  H42 A02 d          11.423   9.932   5.145  0.00  0.00     0.035 H 
BRANCH  76  79
ATOM     79  CAT A02 d          11.483  10.924   3.226  0.00  0.00    -0.063 C 
ATOM     80  H39 A02 d          12.535  10.612   3.285  0.00  0.00     0.033 H 
ATOM     81  H40 A02 d          11.050  10.579   2.275  0.00  0.00     0.033 H 
BRANCH  79  82
ATOM     82  CAY A02 d          11.416  12.454   3.273  0.00  0.00    -0.057 C 
ATOM     83  H37 A02 d          10.565  12.793   2.663  0.00  0.00     0.033 H 
ATOM     84  H38 A02 d          11.270  12.772   4.315  0.00  0.00     0.033 H 
BRANCH  82  85
ATOM     85  CBH A02 d          12.704  13.098   2.731  0.00  0.00     0.009 C 
ATOM     86  H35 A02 d          13.099  12.473   1.918  0.00  0.00     0.047 H 
ATOM     87  H36 A02 d          12.466  14.099   2.342  0.00  0.00     0.047 H 
BRANCH  85  88
ATOM     88  CCA A02 d          13.777  13.229   3.825  0.00  0.00     0.218 C 
ATOM     89  OAJ A02 d          13.668  14.073   4.720  0.00  0.00    -0.274 OA
ATOM     90  NBT A02 d          14.796  12.367   3.722  0.00  0.00    -0.348 N 
ATOM     91  H46 A02 d          14.791  11.712   2.967  0.00  0.00     0.163 HD
BRANCH  90  92
ATOM     92  CCJ A02 d          15.933  12.337   4.675  0.00  0.00     0.089 C 
ATOM     93  H47 A02 d          16.296  13.367   4.801  0.00  0.00     0.087 H 
BRANCH  92  94
ATOM     94  CBK A02 d          17.107  11.483   4.128  0.00  0.00    -0.036 C 
ATOM     95  H48 A02 d          16.734  10.887   3.282  0.00  0.00     0.036 H 
ATOM     96  H49 A02 d          17.446  10.810   4.929  0.00  0.00     0.036 H 
BRANCH  94  97
ATOM     97  CBB A02 d          18.317  12.300   3.643  0.00  0.00    -0.048 C 
ATOM     98  H50 A02 d          17.952  13.199   3.124  0.00  0.00     0.035 H 
ATOM     99  H51 A02 d          18.902  11.684   2.943  0.00  0.00     0.035 H 
BRANCH  97 100
ATOM    100  CBF A02 d          19.229  12.734   4.801  0.00  0.00     0.009 C 
ATOM    101  H52 A02 d          18.617  13.073   5.650  0.00  0.00     0.064 H 
ATOM    102  H53 A02 d          19.884  13.554   4.471  0.00  0.00     0.064 H 
BRANCH 100 103
ATOM    103  NBP A02 d          20.047  11.575   5.206  0.00  0.00    -0.227 N 
ATOM    104  CBX A02 d          21.301  11.357   4.787  0.00  0.00     0.665 C 
ATOM    105  NAB A02 d          21.933  12.192   3.964  0.00  0.00    -0.235 N 
ATOM    106  NAE A02 d          21.934  10.270   5.219  0.00  0.00    -0.235 N 
ATOM    107  H55 A02 d          22.898  11.988   3.665  0.00  0.00     0.174 HD
ATOM    108  H56 A02 d          21.458  13.041   3.628  0.00  0.00     0.174 HD
ATOM    109  H57 A02 d          21.457   9.615   5.856  0.00  0.00     0.174 HD
ATOM    110  H58 A02 d          22.901  10.083   4.918  0.00  0.00     0.174 HD
ATOM    111  H54 A02 d          19.628  10.890   5.852  0.00  0.00     0.177 HD
ENDBRANCH 100 103
ENDBRANCH  97 100
ENDBRANCH  94  97
ENDBRANCH  92  94
BRANCH  92 112
ATOM    112  CCD A02 d          15.466  11.824   6.059  0.00  0.00     0.241 C 
ATOM    113  OAM A02 d          16.204  11.892   7.042  0.00  0.00    -0.271 OA
ATOM    114  N   A02 d          14.233  11.312   6.093  0.00  0.00    -0.346 N 
ATOM    115  H59 A02 d          13.703  11.296   5.245  0.00  0.00     0.163 HD
BRANCH 114 116
ATOM    116  CA  A02 d          13.610  10.768   7.320  0.00  0.00     0.089 C 
ATOM    117  H60 A02 d          14.195  11.106   8.188  0.00  0.00     0.087 H 
BRANCH 116 118
ATOM    118  CB  A02 d          13.634   9.235   7.275  0.00  0.00    -0.036 C 
ATOM    119  H61 A02 d          14.677   8.891   7.339  0.00  0.00     0.036 H 
ATOM    120  H62 A02 d          13.194   8.898   6.324  0.00  0.00     0.036 H 
BRANCH 118 121
ATOM    121  CG  A02 d          12.838   8.629   8.433  0.00  0.00    -0.048 C 
ATOM    122  H63 A02 d          11.797   8.978   8.374  0.00  0.00     0.035 H 
ATOM    123  H64 A02 d          13.282   8.958   9.384  0.00  0.00     0.035 H 
BRANCH 121 124
ATOM    124  CD  A02 d          12.854   7.105   8.378  0.00  0.00     0.009 C 
ATOM    125  H65 A02 d          12.526   6.691   9.342  0.00  0.00     0.064 H 
ATOM    126  H66 A02 d          13.871   6.748   8.153  0.00  0.00     0.064 H 
BRANCH 124 127
ATOM    127  NE  A02 d          11.936   6.695   7.320  0.00  0.00    -0.227 N 
ATOM    128  CZ  A02 d          10.626   6.935   7.306  0.00  0.00     0.665 C 
ATOM    129  NH1 A02 d          10.005   7.627   8.261  0.00  0.00    -0.235 N 
ATOM    130  NH2 A02 d           9.942   6.469   6.270  0.00  0.00    -0.235 N 
ATOM    131  H68 A02 d           8.989   7.786   8.203  0.00  0.00     0.174 HD
ATOM    132  H69 A02 d          10.541   8.003   9.056  0.00  0.00     0.174 HD
ATOM    133  H70 A02 d          10.423   5.935   5.533  0.00  0.00     0.174 HD
ATOM    134  H71 A02 d           8.928   6.642   6.203  0.00  0.00     0.174 HD
ATOM    135  H67 A02 d          12.332   6.178   6.521  0.00  0.00     0.177 HD
ENDBRANCH 124 127
ENDBRANCH 121 124
ENDBRANCH 118 121
ENDBRANCH 116 118
BRANCH 116 136
ATOM    136  C   A02 d          12.156  11.266   7.486  0.00  0.00     0.238 C 
ATOM    137  O   A02 d          11.307  10.602   8.084  0.00  0.00    -0.271 OA
ATOM    138  NAF A02 d          11.914  12.464   6.957  0.00  0.00    -0.368 N 
ATOM    139  H72 A02 d          10.998  12.862   7.019  0.00  0.00     0.159 HD
ATOM    140  H73 A02 d          12.647  12.965   6.497  0.00  0.00     0.159 HD
ENDBRANCH 116 136
ENDBRANCH 114 116
ENDBRANCH  92 112
ENDBRANCH  90  92
ENDBRANCH  85  88
ENDBRANCH  82  85
ENDBRANCH  79  82
ENDBRANCH  76  79
ENDBRANCH  73  76
ENDBRANCH   3  73
TORSDOF 36
ENDMDL
MODEL 10
REMARK VINA RESULT:      -3.0      3.221      8.867
REMARK WARNING: 32 MAX_TORS EXCEEDED!!!
REMARK  36 active torsions:
REMARK  status: ('A' for Active; 'I' for Inactive)
REMARK    1  A    between atoms: C6_6  and  N6_7 
REMARK    2  A    between atoms: CCN_19  and  N9_10 
REMARK    3  A    between atoms: CCK_16  and  OAN_12 
REMARK    4  A    between atoms: CCL_17  and  OAO_13 
REMARK    5  A    between atoms: CCC_15  and  CCM_18 
REMARK       I    between atoms: NBR_27  and  CCC_15 
REMARK    6  A    between atoms: CBZ_20  and  CBG_22 
REMARK       I    between atoms: NBS_28  and  CBZ_20 
REMARK    7  A    between atoms: CBG_22  and  CAX_23 
REMARK    8  A    between atoms: CAX_23  and  CAU_24 
REMARK    9  A    between atoms: CAU_24  and  CAW_25 
REMARK   10  A    between atoms: CAW_25  and  CBD_26 
REMARK   11  A    between atoms: CBD_26  and  NBR_27 
REMARK   12  A    between atoms: CCI_29  and  NBS_28 
REMARK   13  A    between atoms: CCB_30  and  CCI_29 
REMARK   14  A    between atoms: CCI_29  and  CBJ_32 
REMARK       I    between atoms: NBQ_44  and  CCB_30 
REMARK   15  A    between atoms: CBJ_32  and  CAZ_33 
REMARK   16  A    between atoms: CAZ_33  and  CAS_34 
REMARK   17  A    between atoms: CAS_34  and  CAR_35 
REMARK   18  A    between atoms: CAR_35  and  NAC_36 
REMARK   19  A    between atoms: CBH_39  and  CCA_37 
REMARK       I    between atoms: CCA_37  and  NBT_45 
REMARK   20  A    between atoms: CAY_40  and  CBH_39 
REMARK   21  A    between atoms: CAT_41  and  CAY_40 
REMARK   22  A    between atoms: CAV_42  and  CAT_41 
REMARK   23  A    between atoms: CBC_43  and  CAV_42 
REMARK   24  A    between atoms: CBC_43  and  NBQ_44 
REMARK   25  A    between atoms: NBT_45  and  CCJ_46 
REMARK   26  A    between atoms: CCJ_46  and  CBK_47 
REMARK   27  A    between atoms: CCJ_46  and  CCD_54 
REMARK   28  A    between atoms: CBK_47  and  CBB_48 
REMARK   29  A    between atoms: CBB_48  and  CBF_49 
REMARK   30  A    between atoms: CBF_49  and  NBP_50 
REMARK       I    between atoms: NBP_50  and  CBX_51 
REMARK       I    between atoms: CBX_51  and  NAB_52 
REMARK       I    between atoms: CBX_51  and  NAE_53 
REMARK       I    between atoms: CCD_54  and  N_56 
REMARK   31  A    between atoms: N_56  and  CA_57 
REMARK   32  A    between atoms: CA_57  and  CB_58 
REMARK   33  A    between atoms: CA_57  and  C_65 
REMARK   34  A    between atoms: CB_58  and  CG_59 
REMARK   35  A    between atoms: CG_59  and  CD_60 
REMARK   36  A    between atoms: CD_60  and  NE_61 
REMARK       I    between atoms: NE_61  and  CZ_62 
REMARK       I    between atoms: CZ_62  and  NH1_63 
REMARK       I    between atoms: C_65  and  NAF_67 
ROOT
ATOM      1  CCB A02 d          18.467   7.533   5.165  0.00  0.00     0.240 C 
ATOM      2  OAK A02 d          17.576   7.850   5.943  0.00  0.00    -0.271 OA
ATOM      3  NBQ A02 d          18.252   7.168   3.903  0.00  0.00    -0.359 N 
ATOM      4  H45 A02 d          19.035   6.913   3.334  0.00  0.00     0.162 HD
ENDROOT
BRANCH   1   5
ATOM      5  CCI A02 d          19.943   7.502   5.631  0.00  0.00     0.089 C 
ATOM      6  H23 A02 d          20.560   7.348   4.733  0.00  0.00     0.087 H 
BRANCH   5   7
ATOM      7  NBS A02 d          20.184   6.348   6.534  0.00  0.00    -0.348 N 
ATOM      8  CBZ A02 d          20.337   5.100   6.063  0.00  0.00     0.218 C 
ATOM      9  OAI A02 d          20.248   4.792   4.868  0.00  0.00    -0.274 OA
ATOM     10  H22 A02 d          20.233   6.504   7.521  0.00  0.00     0.163 HD
BRANCH   8  11
ATOM     11  CBG A02 d          20.587   4.022   7.137  0.00  0.00     0.009 C 
ATOM     12  H11 A02 d          21.397   4.360   7.799  0.00  0.00     0.047 H 
ATOM     13  H12 A02 d          20.887   3.087   6.639  0.00  0.00     0.047 H 
BRANCH  11  14
ATOM     14  CAX A02 d          19.328   3.753   7.985  0.00  0.00    -0.057 C 
ATOM     15  H13 A02 d          19.304   4.463   8.826  0.00  0.00     0.033 H 
ATOM     16  H14 A02 d          19.370   2.725   8.374  0.00  0.00     0.033 H 
BRANCH  14  17
ATOM     17  CAU A02 d          18.052   3.921   7.153  0.00  0.00    -0.063 C 
ATOM     18  H15 A02 d          18.262   3.606   6.120  0.00  0.00     0.033 H 
ATOM     19  H16 A02 d          17.764   4.982   7.161  0.00  0.00     0.033 H 
BRANCH  17  20
ATOM     20  CAW A02 d          16.880   3.093   7.688  0.00  0.00    -0.050 C 
ATOM     21  H17 A02 d          17.034   2.867   8.753  0.00  0.00     0.035 H 
ATOM     22  H18 A02 d          16.795   2.153   7.122  0.00  0.00     0.035 H 
BRANCH  20  23
ATOM     23  CBD A02 d          15.608   3.926   7.510  0.00  0.00    -0.005 C 
ATOM     24  H19 A02 d          14.764   3.379   7.956  0.00  0.00     0.064 H 
ATOM     25  H20 A02 d          15.427   4.066   6.435  0.00  0.00     0.064 H 
BRANCH  23  26
ATOM     26  NBR A02 d          15.704   5.251   8.148  0.00  0.00    -0.359 N 
ATOM     27  CCC A02 d          14.656   5.968   8.555  0.00  0.00     0.249 C 
ATOM     28  OAL A02 d          13.472   5.640   8.385  0.00  0.00    -0.271 OA
ATOM     29  H21 A02 d          16.615   5.637   8.286  0.00  0.00     0.162 HD
BRANCH  27  30
ATOM     30  CCM A02 d          14.972   7.288   9.283  0.00  0.00     0.144 C 
ATOM     31  OBV A02 d          15.019   8.418   8.349  0.00  0.00    -0.346 OA
ATOM     32  CCN A02 d          13.798   9.202   8.487  0.00  0.00     0.140 C 
ATOM     33  CCL A02 d          12.864   8.339   9.358  0.00  0.00     0.105 C 
ATOM     34  H10 A02 d          14.020  10.143   9.011  0.00  0.00     0.123 H 
ATOM     35  CCK A02 d          13.844   7.612  10.262  0.00  0.00     0.098 C 
ATOM     36  H8  A02 d          12.267   7.642   8.752  0.00  0.00     0.093 H 
ATOM     37  H7  A02 d          13.407   6.711  10.718  0.00  0.00     0.091 H 
ATOM     38  H9  A02 d          15.931   7.194   9.815  0.00  0.00     0.102 H 
BRANCH  32  39
ATOM     39  N9  A02 d          13.194   9.547   7.130  0.00  0.00    -0.294 N 
ATOM     40  C4  A02 d          12.038  10.170   6.924  0.00  0.00     0.167 A 
ATOM     41  N3  A02 d          11.096  10.651   7.751  0.00  0.00    -0.222 NA
ATOM     42  C5  A02 d          11.864  10.273   5.551  0.00  0.00     0.149 A 
ATOM     43  C2  A02 d          10.011  11.239   7.264  0.00  0.00     0.091 A 
ATOM     44  N1  A02 d           9.821  11.361   5.943  0.00  0.00    -0.222 NA
ATOM     45  H1  A02 d           9.264  11.627   7.947  0.00  0.00     0.146 H 
ATOM     46  C6  A02 d          10.721  10.886   5.066  0.00  0.00     0.155 A 
ATOM     47  N7  A02 d          12.917   9.721   4.952  0.00  0.00    -0.236 NA
ATOM     48  C8  A02 d          13.728   9.291   5.925  0.00  0.00     0.071 A 
ATOM     49  H4  A02 d          14.688   8.803   5.763  0.00  0.00     0.144 H 
BRANCH  46  50
ATOM     50  N6  A02 d          10.526  10.995   3.756  0.00  0.00    -0.382 N 
ATOM     51  H2  A02 d          11.239  11.449   3.167  0.00  0.00     0.157 HD
ATOM     52  H3  A02 d           9.663  10.628   3.331  0.00  0.00     0.157 HD
ENDBRANCH  46  50
ENDBRANCH  32  39
BRANCH  33  53
ATOM     53  OAO A02 d          12.015   9.165  10.141  0.00  0.00    -0.388 OA
ATOM     54  H6  A02 d          11.819   8.728  10.962  0.00  0.00     0.210 HD
ENDBRANCH  33  53
BRANCH  35  55
ATOM     55  OAN A02 d          14.336   8.514  11.272  0.00  0.00    -0.390 OA
ATOM     56  H5  A02 d          15.051   9.028  10.914  0.00  0.00     0.210 HD
ENDBRANCH  35  55
ENDBRANCH  27  30
ENDBRANCH  23  26
ENDBRANCH  20  23
ENDBRANCH  17  20
ENDBRANCH  14  17
ENDBRANCH  11  14
ENDBRANCH   8  11
ENDBRANCH   5   7
BRANCH   5  57
ATOM     57  CBJ A02 d          20.406   8.833   6.266  0.00  0.00    -0.038 C 
ATOM     58  H24 A02 d          21.425   8.687   6.656  0.00  0.00     0.036 H 
ATOM     59  H25 A02 d          19.726   9.067   7.098  0.00  0.00     0.036 H 
BRANCH  57  60
ATOM     60  CAZ A02 d          20.429  10.038   5.320  0.00  0.00    -0.061 C 
ATOM     61  H26 A02 d          19.808  10.843   5.741  0.00  0.00     0.033 H 
ATOM     62  H27 A02 d          20.025   9.738   4.341  0.00  0.00     0.033 H 
BRANCH  60  63
ATOM     63  CAS A02 d          21.874  10.548   5.141  0.00  0.00    -0.043 C 
ATOM     64  H28 A02 d          22.569   9.821   5.587  0.00  0.00     0.035 H 
ATOM     65  H29 A02 d          21.978  11.518   5.651  0.00  0.00     0.035 H 
BRANCH  63  66
ATOM     66  CAR A02 d          22.220  10.726   3.654  0.00  0.00     0.080 C 
ATOM     67  H30 A02 d          23.190  10.251   3.447  0.00  0.00     0.075 H 
ATOM     68  H31 A02 d          22.278  11.799   3.419  0.00  0.00     0.075 H 
BRANCH  66  69
ATOM     69  NAC A02 d          21.181  10.099   2.817  0.00  0.00    -0.079 N 
ATOM     70  H32 A02 d          21.381   9.116   2.713  0.00  0.00     0.274 HD
ATOM     71  H33 A02 d          21.171  10.538   1.909  0.00  0.00     0.274 HD
ATOM     72  H34 A02 d          20.281  10.214   3.256  0.00  0.00     0.274 HD
ENDBRANCH  66  69
ENDBRANCH  63  66
ENDBRANCH  60  63
ENDBRANCH  57  60
ENDBRANCH   5  57
ENDBRANCH   1   5
BRANCH   3  73
ATOM     73  CBC A02 d          16.897   7.127   3.307  0.00  0.00    -0.005 C 
ATOM     74  H43 A02 d          16.784   6.197   2.729  0.00  0.00     0.064 H 
ATOM     75  H44 A02 d          16.147   7.151   4.112  0.00  0.00     0.064 H 
BRANCH  73  76
ATOM     76  CAV A02 d          16.679   8.327   2.379  0.00  0.00    -0.050 C 
ATOM     77  H41 A02 d          17.266   9.181   2.749  0.00  0.00     0.035 H 
ATOM     78  H42 A02 d          17.013   8.065   1.365  0.00  0.00     0.035 H 
BRANCH  76  79
ATOM     79  CAT A02 d          15.196   8.714   2.339  0.00  0.00    -0.063 C 
ATOM     80  H39 A02 d          14.599   7.813   2.136  0.00  0.00     0.033 H 
ATOM     81  H40 A02 d          14.910   9.130   3.316  0.00  0.00     0.033 H 
BRANCH  79  82
ATOM     82  CAY A02 d          14.907   9.755   1.253  0.00  0.00    -0.057 C 
ATOM     83  H37 A02 d          15.810  10.362   1.092  0.00  0.00     0.033 H 
ATOM     84  H38 A02 d          14.645   9.233   0.321  0.00  0.00     0.033 H 
BRANCH  82  85
ATOM     85  CBH A02 d          13.746  10.683   1.648  0.00  0.00     0.009 C 
ATOM     86  H35 A02 d          13.125  10.874   0.761  0.00  0.00     0.047 H 
ATOM     87  H36 A02 d          13.139  10.186   2.420  0.00  0.00     0.047 H 
BRANCH  85  88
ATOM     88  CCA A02 d          14.254  12.025   2.199  0.00  0.00     0.218 C 
ATOM     89  OAJ A02 d          15.178  12.629   1.644  0.00  0.00    -0.274 OA
ATOM     90  NBT A02 d          13.616  12.464   3.291  0.00  0.00    -0.348 N 
ATOM     91  H46 A02 d          12.871  11.910   3.663  0.00  0.00     0.163 HD
BRANCH  90  92
ATOM     92  CCJ A02 d          13.960  13.735   3.976  0.00  0.00     0.089 C 
ATOM     93  H47 A02 d          13.336  13.813   4.878  0.00  0.00     0.087 H 
BRANCH  92  94
ATOM     94  CBK A02 d          13.652  14.963   3.079  0.00  0.00    -0.036 C 
ATOM     95  H48 A02 d          12.903  14.663   2.330  0.00  0.00     0.036 H 
ATOM     96  H49 A02 d          14.581  15.258   2.570  0.00  0.00     0.036 H 
BRANCH  94  97
ATOM     97  CBB A02 d          13.109  16.186   3.837  0.00  0.00    -0.048 C 
ATOM     98  H50 A02 d          13.531  17.097   3.387  0.00  0.00     0.035 H 
ATOM     99  H51 A02 d          13.423  16.118   4.889  0.00  0.00     0.035 H 
BRANCH  97 100
ATOM    100  CBF A02 d          11.575  16.272   3.783  0.00  0.00     0.009 C 
ATOM    101  H52 A02 d          11.156  16.067   4.779  0.00  0.00     0.064 H 
ATOM    102  H53 A02 d          11.187  15.537   3.063  0.00  0.00     0.064 H 
BRANCH 100 103
ATOM    103  NBP A02 d          11.203  17.634   3.356  0.00  0.00    -0.227 N 
ATOM    104  CBX A02 d           9.979  17.981   2.935  0.00  0.00     0.665 C 
ATOM    105  NAB A02 d           8.971  17.112   2.881  0.00  0.00    -0.235 N 
ATOM    106  NAE A02 d           9.767  19.242   2.571  0.00  0.00    -0.235 N 
ATOM    107  H55 A02 d           8.043  17.418   2.551  0.00  0.00     0.174 HD
ATOM    108  H56 A02 d           9.117  16.134   3.167  0.00  0.00     0.174 HD
ATOM    109  H57 A02 d          10.538  19.925   2.608  0.00  0.00     0.174 HD
ATOM    110  H58 A02 d           8.833  19.536   2.251  0.00  0.00     0.174 HD
ATOM    111  H54 A02 d          11.929  18.364   3.382  0.00  0.00     0.177 HD
ENDBRANCH 100 103
ENDBRANCH  97 100
ENDBRANCH  94  97
ENDBRANCH  92  94
BRANCH  92 112
ATOM    112  CCD A02 d          15.442  13.726   4.422  0.00  0.00     0.241 C 
ATOM    113  OAM A02 d          15.831  12.972   5.314  0.00  0.00    -0.271 OA
ATOM    114  N   A02 d          16.238  14.583   3.778  0.00  0.00    -0.346 N 
ATOM    115  H59 A02 d          15.836  15.159   3.066  0.00  0.00     0.163 HD
BRANCH 114 116
ATOM    116  CA  A02 d          17.683  14.724   4.062  0.00  0.00     0.089 C 
ATOM    117  H60 A02 d          18.087  15.525   3.427  0.00  0.00     0.087 H 
BRANCH 116 118
ATOM    118  CB  A02 d          18.407  13.414   3.727  0.00  0.00    -0.036 C 
ATOM    119  H61 A02 d          17.824  12.867   2.971  0.00  0.00     0.036 H 
ATOM    120  H62 A02 d          18.485  12.805   4.640  0.00  0.00     0.036 H 
BRANCH 118 121
ATOM    121  CG  A02 d          19.812  13.674   3.180  0.00  0.00    -0.048 C 
ATOM    122  H63 A02 d          20.299  12.710   2.971  0.00  0.00     0.035 H 
ATOM    123  H64 A02 d          20.394  14.224   3.934  0.00  0.00     0.035 H 
BRANCH 121 124
ATOM    124  CD  A02 d          19.763  14.495   1.895  0.00  0.00     0.009 C 
ATOM    125  H65 A02 d          18.730  14.546   1.522  0.00  0.00     0.064 H 
ATOM    126  H66 A02 d          20.407  14.035   1.131  0.00  0.00     0.064 H 
BRANCH 124 127
ATOM    127  NE  A02 d          20.245  15.835   2.213  0.00  0.00    -0.227 N 
ATOM    128  CZ  A02 d          21.346  16.394   1.711  0.00  0.00     0.665 C 
ATOM    129  NH1 A02 d          22.122  15.787   0.813  0.00  0.00    -0.235 N 
ATOM    130  NH2 A02 d          21.642  17.616   2.129  0.00  0.00    -0.235 N 
ATOM    131  H68 A02 d          22.963  16.262   0.456  0.00  0.00     0.174 HD
ATOM    132  H69 A02 d          21.881  14.844   0.477  0.00  0.00     0.174 HD
ATOM    133  H70 A02 d          21.041  18.083   2.823  0.00  0.00     0.174 HD
ATOM    134  H71 A02 d          22.474  18.100   1.760  0.00  0.00     0.174 HD
ATOM    135  H67 A02 d          19.691  16.394   2.877  0.00  0.00     0.177 HD
ENDBRANCH 124 127
ENDBRANCH 121 124
ENDBRANCH 118 121
ENDBRANCH 116 118
BRANCH 116 136
ATOM    136  C   A02 d          17.936  15.100   5.541  0.00  0.00     0.238 C 
ATOM    137  O   A02 d          17.855  16.264   5.938  0.00  0.00    -0.271 OA
ATOM    138  NAF A02 d          18.220  14.071   6.337  0.00  0.00    -0.368 N 
ATOM    139  H72 A02 d          18.397  14.225   7.309  0.00  0.00     0.159 HD
ATOM    140  H73 A02 d          18.256  13.144   5.962  0.00  0.00     0.159 HD
ENDBRANCH 116 136
ENDBRANCH 114 116
ENDBRANCH  92 112
ENDBRANCH  90  92
ENDBRANCH  85  88
ENDBRANCH  82  85
ENDBRANCH  79  82
ENDBRANCH  76  79
ENDBRANCH  73  76
ENDBRANCH   3  73
TORSDOF 36
ENDMDL
