MODEL 1
REMARK VINA RESULT:      -7.3      0.000      0.000
REMARK  2 active torsions:
REMARK  status: ('A' for Active; 'I' for Inactive)
REMARK    1  A    between atoms: C6_6  and  S11_10 
REMARK    2  A    between atoms: C7_14  and  N15_15 
ROOT
ATOM      1  C1  MOL d         -22.434   2.141 -24.650  0.00  0.00    -0.059 A 
ATOM      2  C2  MOL d         -22.752   2.093 -26.007  0.00  0.00    -0.081 A 
ATOM      3  C3  MOL d         -22.284   1.038 -26.785  0.00  0.00    -0.070 A 
ATOM      4  C4  MOL d         -21.501   0.023 -26.213  0.00  0.00     0.002 A 
ATOM      5  C5  MOL d         -21.180   0.069 -24.839  0.00  0.00     0.001 A 
ATOM      6  C6  MOL d         -21.658   1.137 -24.051  0.00  0.00     0.091 A 
ATOM      7  C9  MOL d         -19.944  -2.012 -25.088  0.00  0.00    -0.080 A 
ATOM      8  C10 MOL d         -20.398  -0.961 -24.293  0.00  0.00    -0.070 A 
ATOM      9  C8  MOL d         -20.261  -2.046 -26.446  0.00  0.00    -0.057 A 
ATOM     10  C7  MOL d         -21.038  -1.034 -27.014  0.00  0.00     0.036 A 
ATOM     11  H1  MOL d         -22.793   2.967 -24.047  0.00  0.00     0.086 H 
ATOM     12  H2  MOL d         -23.359   2.873 -26.453  0.00  0.00     0.083 H 
ATOM     13  H3  MOL d         -22.525   0.999 -27.841  0.00  0.00     0.084 H 
ATOM     14  H4  MOL d         -19.344  -2.804 -24.651  0.00  0.00     0.083 H 
ATOM     15  H5  MOL d         -20.143  -0.938 -23.239  0.00  0.00     0.084 H 
ATOM     16  H6  MOL d         -19.903  -2.862 -27.064  0.00  0.00     0.086 H 
ENDROOT
BRANCH   6  17
ATOM     17  S11 MOL d         -21.345   1.283 -22.469  0.00  0.00     0.138 S 
ATOM     18  O14 MOL d         -22.091   0.230 -21.742  0.00  0.00    -0.591 OA
ATOM     19  O12 MOL d         -21.756   2.644 -22.031  0.00  0.00    -0.591 OA
ATOM     20  O13 MOL d         -19.900   1.130 -22.155  0.00  0.00    -0.591 OA
ENDBRANCH   6  17
BRANCH  10  21
ATOM     21  N15 MOL d         -21.325  -1.104 -28.348  0.00  0.00    -0.398 N 
ATOM     22  H7  MOL d         -20.929  -1.863 -28.920  0.00  0.00     0.156 HD
ATOM     23  H8  MOL d         -21.935  -0.398 -28.781  0.00  0.00     0.156 HD
ENDBRANCH  10  21
TORSDOF 2
ENDMDL
MODEL 2
REMARK VINA RESULT:      -7.3      1.411      3.440
REMARK  2 active torsions:
REMARK  status: ('A' for Active; 'I' for Inactive)
REMARK    1  A    between atoms: C6_6  and  S11_10 
REMARK    2  A    between atoms: C7_14  and  N15_15 
ROOT
ATOM      1  C1  MOL d         -20.519  -2.144 -24.659  0.00  0.00    -0.059 A 
ATOM      2  C2  MOL d         -20.195  -2.088 -26.014  0.00  0.00    -0.081 A 
ATOM      3  C3  MOL d         -20.664  -1.030 -26.789  0.00  0.00    -0.070 A 
ATOM      4  C4  MOL d         -21.451  -0.021 -26.215  0.00  0.00     0.002 A 
ATOM      5  C5  MOL d         -21.778  -0.075 -24.842  0.00  0.00     0.001 A 
ATOM      6  C6  MOL d         -21.300  -1.145 -24.058  0.00  0.00     0.091 A 
ATOM      7  C9  MOL d         -23.019   2.004 -25.085  0.00  0.00    -0.080 A 
ATOM      8  C10 MOL d         -22.566   0.950 -24.294  0.00  0.00    -0.070 A 
ATOM      9  C8  MOL d         -22.696   2.046 -26.442  0.00  0.00    -0.057 A 
ATOM     10  C7  MOL d         -21.914   1.039 -27.013  0.00  0.00     0.036 A 
ATOM     11  H1  MOL d         -20.160  -2.972 -24.059  0.00  0.00     0.086 H 
ATOM     12  H2  MOL d         -19.584  -2.863 -26.462  0.00  0.00     0.083 H 
ATOM     13  H3  MOL d         -20.418  -0.986 -27.843  0.00  0.00     0.084 H 
ATOM     14  H4  MOL d         -23.623   2.792 -24.647  0.00  0.00     0.083 H 
ATOM     15  H5  MOL d         -22.824   0.921 -23.242  0.00  0.00     0.084 H 
ATOM     16  H6  MOL d         -23.054   2.864 -27.057  0.00  0.00     0.086 H 
ENDROOT
BRANCH   6  17
ATOM     17  S11 MOL d         -21.619  -1.301 -22.478  0.00  0.00     0.138 S 
ATOM     18  O14 MOL d         -20.872  -0.255 -21.742  0.00  0.00    -0.591 OA
ATOM     19  O12 MOL d         -21.215  -2.666 -22.047  0.00  0.00    -0.591 OA
ATOM     20  O13 MOL d         -23.064  -1.144 -22.168  0.00  0.00    -0.591 OA
ENDBRANCH   6  17
BRANCH  10  21
ATOM     21  N15 MOL d         -21.622   1.117 -28.344  0.00  0.00    -0.398 N 
ATOM     22  H7  MOL d         -21.836   0.324 -28.965  0.00  0.00     0.156 HD
ATOM     23  H8  MOL d         -21.188   1.969 -28.727  0.00  0.00     0.156 HD
ENDBRANCH  10  21
TORSDOF 2
ENDMDL
MODEL 3
REMARK VINA RESULT:      -7.1      1.349      3.219
REMARK  2 active torsions:
REMARK  status: ('A' for Active; 'I' for Inactive)
REMARK    1  A    between atoms: C6_6  and  S11_10 
REMARK    2  A    between atoms: C7_14  and  N15_15 
ROOT
ATOM      1  C1  MOL d         -20.546  -2.094 -24.540  0.00  0.00    -0.059 A 
ATOM      2  C2  MOL d         -20.182  -2.122 -25.886  0.00  0.00    -0.081 A 
ATOM      3  C3  MOL d         -20.617  -1.107 -26.735  0.00  0.00    -0.070 A 
ATOM      4  C4  MOL d         -21.411  -0.059 -26.245  0.00  0.00     0.002 A 
ATOM      5  C5  MOL d         -21.779  -0.029 -24.883  0.00  0.00     0.001 A 
ATOM      6  C6  MOL d         -21.336  -1.055 -24.022  0.00  0.00     0.091 A 
ATOM      7  C9  MOL d         -22.992   2.042 -25.286  0.00  0.00    -0.080 A 
ATOM      8  C10 MOL d         -22.572   1.033 -24.420  0.00  0.00    -0.070 A 
ATOM      9  C8  MOL d         -22.629   2.000 -26.632  0.00  0.00    -0.057 A 
ATOM     10  C7  MOL d         -21.840   0.955 -27.118  0.00  0.00     0.036 A 
ATOM     11  H1  MOL d         -20.214  -2.888 -23.881  0.00  0.00     0.086 H 
ATOM     12  H2  MOL d         -19.566  -2.927 -26.268  0.00  0.00     0.083 H 
ATOM     13  H3  MOL d         -20.340  -1.127 -27.782  0.00  0.00     0.084 H 
ATOM     14  H4  MOL d         -23.600   2.859 -24.913  0.00  0.00     0.083 H 
ATOM     15  H5  MOL d         -22.862   1.069 -23.376  0.00  0.00     0.084 H 
ATOM     16  H6  MOL d         -22.960   2.783 -27.304  0.00  0.00     0.086 H 
ENDROOT
BRANCH   6  17
ATOM     17  S11 MOL d         -21.703  -1.114 -22.447  0.00  0.00     0.138 S 
ATOM     18  O14 MOL d         -23.163  -0.912 -22.296  0.00  0.00    -0.591 OA
ATOM     19  O12 MOL d         -20.931  -0.056 -21.742  0.00  0.00    -0.591 OA
ATOM     20  O13 MOL d         -21.348  -2.416 -21.824  0.00  0.00    -0.591 OA
ENDBRANCH   6  17
BRANCH  10  21
ATOM     21  N15 MOL d         -21.508   0.952 -28.443  0.00  0.00    -0.398 N 
ATOM     22  H7  MOL d         -20.865   0.237 -28.810  0.00  0.00     0.156 HD
ATOM     23  H8  MOL d         -21.901   1.664 -29.073  0.00  0.00     0.156 HD
ENDBRANCH  10  21
TORSDOF 2
ENDMDL
MODEL 4
REMARK VINA RESULT:      -7.1      3.975      4.457
REMARK  2 active torsions:
REMARK  status: ('A' for Active; 'I' for Inactive)
REMARK    1  A    between atoms: C6_6  and  S11_10 
REMARK    2  A    between atoms: C7_14  and  N15_15 
ROOT
ATOM      1  C1  MOL d         -22.599   1.616 -27.063  0.00  0.00    -0.059 A 
ATOM      2  C2  MOL d         -22.944   2.337 -25.920  0.00  0.00    -0.081 A 
ATOM      3  C3  MOL d         -22.557   1.865 -24.668  0.00  0.00    -0.070 A 
ATOM      4  C4  MOL d         -21.821   0.676 -24.551  0.00  0.00     0.002 A 
ATOM      5  C5  MOL d         -21.470  -0.054 -25.708  0.00  0.00     0.001 A 
ATOM      6  C6  MOL d         -21.859   0.427 -26.975  0.00  0.00     0.091 A 
ATOM      7  C9  MOL d         -20.348  -1.691 -24.300  0.00  0.00    -0.080 A 
ATOM      8  C10 MOL d         -20.731  -1.239 -25.562  0.00  0.00    -0.070 A 
ATOM      9  C8  MOL d         -20.705  -0.966 -23.162  0.00  0.00    -0.057 A 
ATOM     10  C7  MOL d         -21.439   0.216 -23.280  0.00  0.00     0.036 A 
ATOM     11  H1  MOL d         -22.908   1.981 -28.035  0.00  0.00     0.086 H 
ATOM     12  H2  MOL d         -23.509   3.258 -26.004  0.00  0.00     0.083 H 
ATOM     13  H3  MOL d         -22.826   2.419 -23.777  0.00  0.00     0.084 H 
ATOM     14  H4  MOL d         -19.773  -2.606 -24.203  0.00  0.00     0.083 H 
ATOM     15  H5  MOL d         -20.455  -1.809 -26.441  0.00  0.00     0.084 H 
ATOM     16  H6  MOL d         -20.410  -1.323 -22.182  0.00  0.00     0.086 H 
ENDROOT
BRANCH   6  17
ATOM     17  S11 MOL d         -21.510  -0.334 -28.361  0.00  0.00     0.138 S 
ATOM     18  O14 MOL d         -20.037  -0.366 -28.521  0.00  0.00    -0.591 OA
ATOM     19  O12 MOL d         -22.164   0.396 -29.479  0.00  0.00    -0.591 OA
ATOM     20  O13 MOL d         -22.010  -1.734 -28.387  0.00  0.00    -0.591 OA
ENDBRANCH   6  17
BRANCH  10  21
ATOM     21  N15 MOL d         -21.769   0.893 -22.141  0.00  0.00    -0.398 N 
ATOM     22  H7  MOL d         -22.320   0.427 -21.406  0.00  0.00     0.156 HD
ATOM     23  H8  MOL d         -21.468   1.870 -22.018  0.00  0.00     0.156 HD
ENDBRANCH  10  21
TORSDOF 2
ENDMDL
MODEL 5
REMARK VINA RESULT:      -6.8      1.308      1.568
REMARK  2 active torsions:
REMARK  status: ('A' for Active; 'I' for Inactive)
REMARK    1  A    between atoms: C6_6  and  S11_10 
REMARK    2  A    between atoms: C7_14  and  N15_15 
ROOT
ATOM      1  C1  MOL d         -22.858   1.687 -24.263  0.00  0.00    -0.059 A 
ATOM      2  C2  MOL d         -23.091   2.407 -25.435  0.00  0.00    -0.081 A 
ATOM      3  C3  MOL d         -22.610   1.919 -26.647  0.00  0.00    -0.070 A 
ATOM      4  C4  MOL d         -21.899   0.710 -26.697  0.00  0.00     0.002 A 
ATOM      5  C5  MOL d         -21.663  -0.020 -25.512  0.00  0.00     0.001 A 
ATOM      6  C6  MOL d         -22.155   0.473 -24.285  0.00  0.00     0.091 A 
ATOM      7  C9  MOL d         -20.484  -1.702 -26.816  0.00  0.00    -0.080 A 
ATOM      8  C10 MOL d         -20.952  -1.228 -25.592  0.00  0.00    -0.070 A 
ATOM      9  C8  MOL d         -20.716  -0.970 -27.981  0.00  0.00    -0.057 A 
ATOM     10  C7  MOL d         -21.422   0.234 -27.929  0.00  0.00     0.036 A 
ATOM     11  H1  MOL d         -23.227   2.072 -23.319  0.00  0.00     0.086 H 
ATOM     12  H2  MOL d         -23.643   3.339 -25.402  0.00  0.00     0.083 H 
ATOM     13  H3  MOL d         -22.785   2.477 -27.559  0.00  0.00     0.084 H 
ATOM     14  H4  MOL d         -19.940  -2.639 -26.863  0.00  0.00     0.083 H 
ATOM     15  H5  MOL d         -20.764  -1.799 -24.690  0.00  0.00     0.084 H 
ATOM     16  H6  MOL d         -20.346  -1.338 -28.932  0.00  0.00     0.086 H 
ENDROOT
BRANCH   6  17
ATOM     17  S11 MOL d         -21.937  -0.286 -22.871  0.00  0.00     0.138 S 
ATOM     18  O14 MOL d         -22.938  -1.373 -22.762  0.00  0.00    -0.591 OA
ATOM     19  O12 MOL d         -22.090   0.707 -21.774  0.00  0.00    -0.591 OA
ATOM     20  O13 MOL d         -20.584  -0.887 -22.746  0.00  0.00    -0.591 OA
ENDBRANCH   6  17
BRANCH  10  21
ATOM     21  N15 MOL d         -21.625   0.920 -29.093  0.00  0.00    -0.398 N 
ATOM     22  H7  MOL d         -22.146   1.808 -29.082  0.00  0.00     0.156 HD
ATOM     23  H8  MOL d         -21.259   0.548 -29.980  0.00  0.00     0.156 HD
ENDBRANCH  10  21
TORSDOF 2
ENDMDL
MODEL 6
REMARK VINA RESULT:      -6.2      1.026      1.647
REMARK  2 active torsions:
REMARK  status: ('A' for Active; 'I' for Inactive)
REMARK    1  A    between atoms: C6_6  and  S11_10 
REMARK    2  A    between atoms: C7_14  and  N15_15 
ROOT
ATOM      1  C1  MOL d         -22.513   2.300 -25.207  0.00  0.00    -0.059 A 
ATOM      2  C2  MOL d         -23.007   2.480 -26.499  0.00  0.00    -0.081 A 
ATOM      3  C3  MOL d         -22.699   1.547 -27.486  0.00  0.00    -0.070 A 
ATOM      4  C4  MOL d         -21.904   0.431 -27.189  0.00  0.00     0.002 A 
ATOM      5  C5  MOL d         -21.404   0.247 -25.881  0.00  0.00     0.001 A 
ATOM      6  C6  MOL d         -21.719   1.190 -24.880  0.00  0.00     0.091 A 
ATOM      7  C9  MOL d         -20.322  -1.806 -26.613  0.00  0.00    -0.080 A 
ATOM      8  C10 MOL d         -20.613  -0.881 -25.612  0.00  0.00    -0.070 A 
ATOM      9  C8  MOL d         -20.814  -1.613 -27.904  0.00  0.00    -0.057 A 
ATOM     10  C7  MOL d         -21.605  -0.499 -28.199  0.00  0.00     0.036 A 
ATOM     11  H1  MOL d         -22.747   3.031 -24.441  0.00  0.00     0.086 H 
ATOM     12  H2  MOL d         -23.625   3.339 -26.732  0.00  0.00     0.083 H 
ATOM     13  H3  MOL d         -23.077   1.685 -28.492  0.00  0.00     0.084 H 
ATOM     14  H4  MOL d         -19.713  -2.675 -26.389  0.00  0.00     0.083 H 
ATOM     15  H5  MOL d         -20.223  -1.034 -24.612  0.00  0.00     0.084 H 
ATOM     16  H6  MOL d         -20.583  -2.331 -28.682  0.00  0.00     0.086 H 
ENDROOT
BRANCH   6  17
ATOM     17  S11 MOL d         -21.196   1.073 -23.353  0.00  0.00     0.138 S 
ATOM     18  O14 MOL d         -19.748   1.384 -23.326  0.00  0.00    -0.591 OA
ATOM     19  O12 MOL d         -21.466  -0.306 -22.866  0.00  0.00    -0.591 OA
ATOM     20  O13 MOL d         -21.890   2.015 -22.436  0.00  0.00    -0.591 OA
ENDBRANCH   6  17
BRANCH  10  21
ATOM     21  N15 MOL d         -22.065  -0.348 -29.475  0.00  0.00    -0.398 N 
ATOM     22  H7  MOL d         -22.560  -1.122 -29.939  0.00  0.00     0.156 HD
ATOM     23  H8  MOL d         -21.916   0.541 -29.974  0.00  0.00     0.156 HD
ENDBRANCH  10  21
TORSDOF 2
ENDMDL
MODEL 7
REMARK VINA RESULT:      -5.3      1.289      3.223
REMARK  2 active torsions:
REMARK  status: ('A' for Active; 'I' for Inactive)
REMARK    1  A    between atoms: C6_6  and  S11_10 
REMARK    2  A    between atoms: C7_14  and  N15_15 
ROOT
ATOM      1  C1  MOL d         -20.710  -2.033 -24.539  0.00  0.00    -0.059 A 
ATOM      2  C2  MOL d         -20.298  -2.741 -25.668  0.00  0.00    -0.081 A 
ATOM      3  C3  MOL d         -20.508  -2.199 -26.933  0.00  0.00    -0.070 A 
ATOM      4  C4  MOL d         -21.125  -0.947 -27.078  0.00  0.00     0.002 A 
ATOM      5  C5  MOL d         -21.542  -0.228 -25.936  0.00  0.00     0.001 A 
ATOM      6  C6  MOL d         -21.325  -0.777 -24.655  0.00  0.00     0.091 A 
ATOM      7  C9  MOL d         -22.350   1.551 -27.387  0.00  0.00    -0.080 A 
ATOM      8  C10 MOL d         -22.154   1.023 -26.111  0.00  0.00    -0.070 A 
ATOM      9  C8  MOL d         -21.940   0.831 -28.509  0.00  0.00    -0.057 A 
ATOM     10  C7  MOL d         -21.328  -0.416 -28.363  0.00  0.00     0.036 A 
ATOM     11  H1  MOL d         -20.553  -2.461 -23.556  0.00  0.00     0.086 H 
ATOM     12  H2  MOL d         -19.817  -3.707 -25.561  0.00  0.00     0.083 H 
ATOM     13  H3  MOL d         -20.192  -2.747 -27.813  0.00  0.00     0.084 H 
ATOM     14  H4  MOL d         -22.820   2.521 -27.506  0.00  0.00     0.083 H 
ATOM     15  H5  MOL d         -22.480   1.585 -25.243  0.00  0.00     0.084 H 
ATOM     16  H6  MOL d         -22.098   1.241 -29.500  0.00  0.00     0.086 H 
ENDROOT
BRANCH   6  17
ATOM     17  S11 MOL d         -21.767  -0.037 -23.285  0.00  0.00     0.138 S 
ATOM     18  O14 MOL d         -20.676   0.876 -22.871  0.00  0.00    -0.591 OA
ATOM     19  O12 MOL d         -22.033  -1.073 -22.252  0.00  0.00    -0.591 OA
ATOM     20  O13 MOL d         -23.008   0.766 -23.442  0.00  0.00    -0.591 OA
ENDBRANCH   6  17
BRANCH  10  21
ATOM     21  N15 MOL d         -20.943  -1.088 -29.488  0.00  0.00    -0.398 N 
ATOM     22  H7  MOL d         -19.960  -1.062 -29.792  0.00  0.00     0.156 HD
ATOM     23  H8  MOL d         -21.637  -1.620 -30.032  0.00  0.00     0.156 HD
ENDBRANCH  10  21
TORSDOF 2
ENDMDL
MODEL 8
REMARK VINA RESULT:      -4.7      2.348      2.983
REMARK  2 active torsions:
REMARK  status: ('A' for Active; 'I' for Inactive)
REMARK    1  A    between atoms: C6_6  and  S11_10 
REMARK    2  A    between atoms: C7_14  and  N15_15 
ROOT
ATOM      1  C1  MOL d         -20.652   0.413 -23.251  0.00  0.00    -0.059 A 
ATOM      2  C2  MOL d         -19.892   1.403 -23.874  0.00  0.00    -0.081 A 
ATOM      3  C3  MOL d         -19.889   1.493 -25.264  0.00  0.00    -0.070 A 
ATOM      4  C4  MOL d         -20.647   0.600 -26.037  0.00  0.00     0.002 A 
ATOM      5  C5  MOL d         -21.417  -0.402 -25.408  0.00  0.00     0.001 A 
ATOM      6  C6  MOL d         -21.423  -0.490 -24.000  0.00  0.00     0.091 A 
ATOM      7  C9  MOL d         -22.156  -1.169 -27.596  0.00  0.00    -0.080 A 
ATOM      8  C10 MOL d         -22.168  -1.280 -26.206  0.00  0.00    -0.070 A 
ATOM      9  C8  MOL d         -21.387  -0.180 -28.209  0.00  0.00    -0.057 A 
ATOM     10  C7  MOL d         -20.631   0.707 -27.438  0.00  0.00     0.036 A 
ATOM     11  H1  MOL d         -20.647   0.340 -22.170  0.00  0.00     0.086 H 
ATOM     12  H2  MOL d         -19.309   2.097 -23.281  0.00  0.00     0.083 H 
ATOM     13  H3  MOL d         -19.297   2.258 -25.752  0.00  0.00     0.084 H 
ATOM     14  H4  MOL d         -22.745  -1.851 -28.200  0.00  0.00     0.083 H 
ATOM     15  H5  MOL d         -22.764  -2.054 -25.736  0.00  0.00     0.084 H 
ATOM     16  H6  MOL d         -21.375  -0.099 -29.290  0.00  0.00     0.086 H 
ENDROOT
BRANCH   6  17
ATOM     17  S11 MOL d         -22.269  -1.601 -23.182  0.00  0.00     0.138 S 
ATOM     18  O14 MOL d         -21.547  -2.892 -23.258  0.00  0.00    -0.591 OA
ATOM     19  O12 MOL d         -23.625  -1.699 -23.785  0.00  0.00    -0.591 OA
ATOM     20  O13 MOL d         -22.441  -1.249 -21.748  0.00  0.00    -0.591 OA
ENDBRANCH   6  17
BRANCH  10  21
ATOM     21  N15 MOL d         -19.891   1.659 -28.078  0.00  0.00    -0.398 N 
ATOM     22  H7  MOL d         -19.294   2.298 -27.535  0.00  0.00     0.156 HD
ATOM     23  H8  MOL d         -19.931   1.738 -29.104  0.00  0.00     0.156 HD
ENDBRANCH  10  21
TORSDOF 2
ENDMDL
