MODEL 1
REMARK VINA RESULT:      -5.7      0.000      0.000
REMARK  5 active torsions:
REMARK  status: ('A' for Active; 'I' for Inactive)
REMARK    1  A    between atoms: S1_9  and  N1_1 
REMARK    2  A    between atoms: C5_5  and  O3_15 
REMARK    3  A    between atoms: O3_15  and  C8_6 
REMARK    4  A    between atoms: C8_6  and  C9_16 
REMARK    5  A    between atoms: C1_10  and  S1_9 
ROOT
ATOM      1  C2  EZL d          -3.451   3.727  15.315  0.00  0.00     0.076 A 
ATOM      2  C3  EZL d          -4.658   4.388  15.084  0.00  0.00     0.039 A 
ATOM      3  C4  EZL d          -4.642   5.694  14.528  0.00  0.00    -0.032 A 
ATOM      4  C5  EZL d          -3.299   6.145  14.300  0.00  0.00     0.070 A 
ATOM      5  C1  EZL d          -4.950   2.223  15.977  0.00  0.00     0.214 A 
ATOM      6  N2  EZL d          -3.645   2.478  15.890  0.00  0.00    -0.227 NA
ATOM      7  S2  EZL d          -5.969   3.443  15.471  0.00  0.00    -0.054 SA
ATOM      8  C6  EZL d          -2.062   5.532  14.536  0.00  0.00    -0.049 A 
ATOM      9  C7  EZL d          -2.124   4.214  15.103  0.00  0.00    -0.051 A 
ATOM     10  H3  EZL d          -5.529   6.276  14.305  0.00  0.00     0.090 H 
ATOM     11  H6  EZL d          -1.121   6.018  14.307  0.00  0.00     0.087 H 
ATOM     12  H7  EZL d          -1.240   3.638  15.350  0.00  0.00     0.087 H 
ENDROOT
BRANCH   4  13
ATOM     13  O3  EZL d          -3.231   7.412  13.705  0.00  0.00    -0.351 OA
BRANCH  13  14
ATOM     14  C8  EZL d          -2.023   8.274  13.794  0.00  0.00     0.023 C 
ATOM     15  H4  EZL d          -1.990   8.943  12.922  0.00  0.00     0.074 H 
ATOM     16  H5  EZL d          -1.125   7.638  13.802  0.00  0.00     0.074 H 
BRANCH  14  17
ATOM     17  C9  EZL d          -2.055   9.118  15.077  0.00  0.00    -0.056 C 
ATOM     18  H8  EZL d          -1.147   9.737  15.132  0.00  0.00     0.030 H 
ATOM     19  H9  EZL d          -2.101   8.454  15.952  0.00  0.00     0.030 H 
ATOM     20  H10 EZL d          -2.941   9.770  15.065  0.00  0.00     0.030 H 
ENDBRANCH  14  17
ENDBRANCH  13  14
ENDBRANCH   4  13
BRANCH   5  21
ATOM     21  S1  EZL d          -5.601   0.690  16.634  0.00  0.00     0.281 S 
ATOM     22  O1  EZL d          -5.260   0.733  18.024  0.00  0.00    -0.199 OA
ATOM     23  O2  EZL d          -7.002   0.770  16.335  0.00  0.00    -0.199 OA
BRANCH  21  24
ATOM     24  N1  EZL d          -4.862  -0.474  15.873  0.00  0.00    -0.323 N 
ATOM     25  H1  EZL d          -5.357  -1.027  15.203  0.00  0.00     0.169 HD
ATOM     26  H2  EZL d          -3.897  -0.660  16.061  0.00  0.00     0.169 HD
ENDBRANCH  21  24
ENDBRANCH   5  21
TORSDOF 5
ENDMDL
MODEL 2
REMARK VINA RESULT:      -5.1      3.195      6.611
REMARK  5 active torsions:
REMARK  status: ('A' for Active; 'I' for Inactive)
REMARK    1  A    between atoms: S1_9  and  N1_1 
REMARK    2  A    between atoms: C5_5  and  O3_15 
REMARK    3  A    between atoms: O3_15  and  C8_6 
REMARK    4  A    between atoms: C8_6  and  C9_16 
REMARK    5  A    between atoms: C1_10  and  S1_9 
ROOT
ATOM      1  C2  EZL d          -4.560   5.278  14.799  0.00  0.00     0.076 A 
ATOM      2  C3  EZL d          -3.602   4.264  14.845  0.00  0.00     0.039 A 
ATOM      3  C4  EZL d          -3.998   2.948  15.200  0.00  0.00    -0.032 A 
ATOM      4  C5  EZL d          -5.403   2.886  15.483  0.00  0.00     0.070 A 
ATOM      5  C1  EZL d          -2.705   6.349  14.198  0.00  0.00     0.214 A 
ATOM      6  N2  EZL d          -4.000   6.505  14.468  0.00  0.00    -0.227 NA
ATOM      7  S2  EZL d          -2.098   4.807  14.393  0.00  0.00    -0.054 SA
ATOM      8  C6  EZL d          -6.395   3.875  15.474  0.00  0.00    -0.049 A 
ATOM      9  C7  EZL d          -5.951   5.192  15.115  0.00  0.00    -0.051 A 
ATOM     10  H3  EZL d          -3.325   2.099  15.250  0.00  0.00     0.090 H 
ATOM     11  H6  EZL d          -7.428   3.660  15.722  0.00  0.00     0.087 H 
ATOM     12  H7  EZL d          -6.615   6.049  15.086  0.00  0.00     0.087 H 
ENDROOT
BRANCH   4  13
ATOM     13  O3  EZL d          -5.852   1.595  15.792  0.00  0.00    -0.351 OA
BRANCH  13  14
ATOM     14  C8  EZL d          -6.801   1.322  16.903  0.00  0.00     0.023 C 
ATOM     15  H4  EZL d          -7.609   0.672  16.538  0.00  0.00     0.074 H 
ATOM     16  H5  EZL d          -7.226   2.272  17.257  0.00  0.00     0.074 H 
BRANCH  14  17
ATOM     17  C9  EZL d          -6.081   0.626  18.068  0.00  0.00    -0.056 C 
ATOM     18  H8  EZL d          -5.044   0.403  17.778  0.00  0.00     0.030 H 
ATOM     19  H9  EZL d          -6.603  -0.311  18.314  0.00  0.00     0.030 H 
ATOM     20  H10 EZL d          -6.081   1.286  18.947  0.00  0.00     0.030 H 
ENDBRANCH  14  17
ENDBRANCH  13  14
ENDBRANCH   4  13
BRANCH   5  21
ATOM     21  S1  EZL d          -1.645   7.701  13.695  0.00  0.00     0.281 S 
ATOM     22  O1  EZL d          -1.336   8.376  14.919  0.00  0.00    -0.199 OA
ATOM     23  O2  EZL d          -0.544   7.040  13.056  0.00  0.00    -0.199 OA
BRANCH  21  24
ATOM     24  N1  EZL d          -2.494   8.597  12.717  0.00  0.00    -0.323 N 
ATOM     25  H1  EZL d          -2.173   8.760  11.784  0.00  0.00     0.169 HD
ATOM     26  H2  EZL d          -3.353   9.003  13.029  0.00  0.00     0.169 HD
ENDBRANCH  21  24
ENDBRANCH   5  21
TORSDOF 5
ENDMDL
MODEL 3
REMARK VINA RESULT:      -4.7      1.932      2.150
REMARK  5 active torsions:
REMARK  status: ('A' for Active; 'I' for Inactive)
REMARK    1  A    between atoms: S1_9  and  N1_1 
REMARK    2  A    between atoms: C5_5  and  O3_15 
REMARK    3  A    between atoms: O3_15  and  C8_6 
REMARK    4  A    between atoms: C8_6  and  C9_16 
REMARK    5  A    between atoms: C1_10  and  S1_9 
ROOT
ATOM      1  C2  EZL d          -3.516   3.777  13.191  0.00  0.00     0.076 A 
ATOM      2  C3  EZL d          -3.811   4.636  14.250  0.00  0.00     0.039 A 
ATOM      3  C4  EZL d          -3.613   6.032  14.090  0.00  0.00    -0.032 A 
ATOM      4  C5  EZL d          -3.095   6.338  12.787  0.00  0.00     0.070 A 
ATOM      5  C1  EZL d          -4.257   2.373  14.750  0.00  0.00     0.214 A 
ATOM      6  N2  EZL d          -3.736   2.446  13.526  0.00  0.00    -0.227 NA
ATOM      7  S2  EZL d          -4.431   3.821  15.559  0.00  0.00    -0.054 SA
ATOM      8  C6  EZL d          -2.763   5.513  11.705  0.00  0.00    -0.049 A 
ATOM      9  C7  EZL d          -2.974   4.108  11.911  0.00  0.00    -0.051 A 
ATOM     10  H3  EZL d          -3.825   6.773  14.853  0.00  0.00     0.090 H 
ATOM     11  H6  EZL d          -2.372   5.908  10.774  0.00  0.00     0.087 H 
ATOM     12  H7  EZL d          -2.742   3.362  11.159  0.00  0.00     0.087 H 
ENDROOT
BRANCH   4  13
ATOM     13  O3  EZL d          -2.928   7.711  12.562  0.00  0.00    -0.351 OA
BRANCH  13  14
ATOM     14  C8  EZL d          -1.708   8.448  12.983  0.00  0.00     0.023 C 
ATOM     15  H4  EZL d          -1.271   8.954  12.110  0.00  0.00     0.074 H 
ATOM     16  H5  EZL d          -0.979   7.734  13.395  0.00  0.00     0.074 H 
BRANCH  14  17
ATOM     17  C9  EZL d          -2.051   9.494  14.054  0.00  0.00    -0.056 C 
ATOM     18  H8  EZL d          -1.124   9.857  14.522  0.00  0.00     0.030 H 
ATOM     19  H9  EZL d          -2.695   9.037  14.821  0.00  0.00     0.030 H 
ATOM     20  H10 EZL d          -2.580  10.337  13.587  0.00  0.00     0.030 H 
ENDBRANCH  14  17
ENDBRANCH  13  14
ENDBRANCH   4  13
BRANCH   5  21
ATOM     21  S1  EZL d          -4.712   0.823  15.522  0.00  0.00     0.281 S 
ATOM     22  O1  EZL d          -4.801  -0.098  14.429  0.00  0.00    -0.199 OA
ATOM     23  O2  EZL d          -3.641   0.587  16.448  0.00  0.00    -0.199 OA
BRANCH  21  24
ATOM     24  N1  EZL d          -6.104   1.060  16.218  0.00  0.00    -0.323 N 
ATOM     25  H1  EZL d          -6.320   1.952  16.615  0.00  0.00     0.169 HD
ATOM     26  H2  EZL d          -6.773   0.317  16.263  0.00  0.00     0.169 HD
ENDBRANCH  21  24
ENDBRANCH   5  21
TORSDOF 5
ENDMDL
MODEL 4
REMARK VINA RESULT:      -4.5      1.376      1.751
REMARK  5 active torsions:
REMARK  status: ('A' for Active; 'I' for Inactive)
REMARK    1  A    between atoms: S1_9  and  N1_1 
REMARK    2  A    between atoms: C5_5  and  O3_15 
REMARK    3  A    between atoms: O3_15  and  C8_6 
REMARK    4  A    between atoms: C8_6  and  C9_16 
REMARK    5  A    between atoms: C1_10  and  S1_9 
ROOT
ATOM      1  C2  EZL d          -3.161   4.338  14.872  0.00  0.00     0.076 A 
ATOM      2  C3  EZL d          -4.401   4.717  14.356  0.00  0.00     0.039 A 
ATOM      3  C4  EZL d          -4.506   5.916  13.605  0.00  0.00    -0.032 A 
ATOM      4  C5  EZL d          -3.240   6.584  13.512  0.00  0.00     0.070 A 
ATOM      5  C1  EZL d          -4.479   2.674  15.535  0.00  0.00     0.214 A 
ATOM      6  N2  EZL d          -3.241   3.162  15.607  0.00  0.00    -0.227 NA
ATOM      7  S2  EZL d          -5.582   3.596  14.690  0.00  0.00    -0.054 SA
ATOM      8  C6  EZL d          -1.979   6.258  14.030  0.00  0.00    -0.049 A 
ATOM      9  C7  EZL d          -1.919   5.040  14.787  0.00  0.00    -0.051 A 
ATOM     10  H3  EZL d          -5.424   6.281  13.159  0.00  0.00     0.090 H 
ATOM     11  H6  EZL d          -1.108   6.883  13.869  0.00  0.00     0.087 H 
ATOM     12  H7  EZL d          -1.008   4.683  15.255  0.00  0.00     0.087 H 
ENDROOT
BRANCH   4  13
ATOM     13  O3  EZL d          -3.281   7.750  12.737  0.00  0.00    -0.351 OA
BRANCH  13  14
ATOM     14  C8  EZL d          -2.157   8.722  12.692  0.00  0.00     0.023 C 
ATOM     15  H4  EZL d          -1.715   8.811  13.696  0.00  0.00     0.074 H 
ATOM     16  H5  EZL d          -2.539   9.703  12.372  0.00  0.00     0.074 H 
BRANCH  14  17
ATOM     17  C9  EZL d          -1.077   8.253  11.705  0.00  0.00    -0.056 C 
ATOM     18  H8  EZL d          -1.536   8.062  10.723  0.00  0.00     0.030 H 
ATOM     19  H9  EZL d          -0.614   7.329  12.080  0.00  0.00     0.030 H 
ATOM     20  H10 EZL d          -0.309   9.033  11.604  0.00  0.00     0.030 H 
ENDBRANCH  14  17
ENDBRANCH  13  14
ENDBRANCH   4  13
BRANCH   5  21
ATOM     21  S1  EZL d          -4.968   1.144  16.326  0.00  0.00     0.281 S 
ATOM     22  O1  EZL d          -5.935   0.582  15.431  0.00  0.00    -0.199 OA
ATOM     23  O2  EZL d          -3.734   0.420  16.441  0.00  0.00    -0.199 OA
BRANCH  21  24
ATOM     24  N1  EZL d          -5.598   1.536  17.715  0.00  0.00    -0.323 N 
ATOM     25  H1  EZL d          -6.018   2.436  17.837  0.00  0.00     0.169 HD
ATOM     26  H2  EZL d          -5.577   0.886  18.475  0.00  0.00     0.169 HD
ENDBRANCH  21  24
ENDBRANCH   5  21
TORSDOF 5
ENDMDL
MODEL 5
REMARK VINA RESULT:      -4.4      3.146      6.428
REMARK  5 active torsions:
REMARK  status: ('A' for Active; 'I' for Inactive)
REMARK    1  A    between atoms: S1_9  and  N1_1 
REMARK    2  A    between atoms: C5_5  and  O3_15 
REMARK    3  A    between atoms: O3_15  and  C8_6 
REMARK    4  A    between atoms: C8_6  and  C9_16 
REMARK    5  A    between atoms: C1_10  and  S1_9 
ROOT
ATOM      1  C2  EZL d          -3.763   4.049  13.665  0.00  0.00     0.076 A 
ATOM      2  C3  EZL d          -4.375   4.856  14.625  0.00  0.00     0.039 A 
ATOM      3  C4  EZL d          -5.426   4.322  15.416  0.00  0.00    -0.032 A 
ATOM      4  C5  EZL d          -5.706   2.961  15.058  0.00  0.00     0.070 A 
ATOM      5  C1  EZL d          -2.639   5.958  13.468  0.00  0.00     0.214 A 
ATOM      6  N2  EZL d          -2.781   4.734  12.961  0.00  0.00    -0.227 NA
ATOM      7  S2  EZL d          -3.680   6.363  14.706  0.00  0.00    -0.054 SA
ATOM      8  C6  EZL d          -5.138   2.121  14.092  0.00  0.00    -0.049 A 
ATOM      9  C7  EZL d          -4.083   2.702  13.311  0.00  0.00    -0.051 A 
ATOM     10  H3  EZL d          -5.950   4.871  16.190  0.00  0.00     0.090 H 
ATOM     11  H6  EZL d          -5.473   1.100  13.944  0.00  0.00     0.087 H 
ATOM     12  H7  EZL d          -3.572   2.164  12.521  0.00  0.00     0.087 H 
ENDROOT
BRANCH   4  13
ATOM     13  O3  EZL d          -6.705   2.373  15.846  0.00  0.00    -0.351 OA
BRANCH  13  14
ATOM     14  C8  EZL d          -6.523   2.100  17.296  0.00  0.00     0.023 C 
ATOM     15  H4  EZL d          -7.442   2.373  17.834  0.00  0.00     0.074 H 
ATOM     16  H5  EZL d          -5.684   2.702  17.675  0.00  0.00     0.074 H 
BRANCH  14  17
ATOM     17  C9  EZL d          -6.224   0.611  17.532  0.00  0.00    -0.056 C 
ATOM     18  H8  EZL d          -7.156   0.086  17.784  0.00  0.00     0.030 H 
ATOM     19  H9  EZL d          -5.508   0.508  18.361  0.00  0.00     0.030 H 
ATOM     20  H10 EZL d          -5.793   0.175  16.619  0.00  0.00     0.030 H 
ENDBRANCH  14  17
ENDBRANCH  13  14
ENDBRANCH   4  13
BRANCH   5  21
ATOM     21  S1  EZL d          -1.440   7.134  12.847  0.00  0.00     0.281 S 
ATOM     22  O1  EZL d          -0.284   6.339  12.565  0.00  0.00    -0.199 OA
ATOM     23  O2  EZL d          -2.095   7.704  11.705  0.00  0.00    -0.199 OA
BRANCH  21  24
ATOM     24  N1  EZL d          -1.185   8.169  14.006  0.00  0.00    -0.323 N 
ATOM     25  H1  EZL d          -1.029   9.133  13.790  0.00  0.00     0.169 HD
ATOM     26  H2  EZL d          -1.179   7.863  14.958  0.00  0.00     0.169 HD
ENDBRANCH  21  24
ENDBRANCH   5  21
TORSDOF 5
ENDMDL
MODEL 6
REMARK VINA RESULT:      -4.3      3.860      6.821
REMARK  5 active torsions:
REMARK  status: ('A' for Active; 'I' for Inactive)
REMARK    1  A    between atoms: S1_9  and  N1_1 
REMARK    2  A    between atoms: C5_5  and  O3_15 
REMARK    3  A    between atoms: O3_15  and  C8_6 
REMARK    4  A    between atoms: C8_6  and  C9_16 
REMARK    5  A    between atoms: C1_10  and  S1_9 
ROOT
ATOM      1  C2  EZL d          -3.899   5.387  14.313  0.00  0.00     0.076 A 
ATOM      2  C3  EZL d          -3.169   4.894  13.231  0.00  0.00     0.039 A 
ATOM      3  C4  EZL d          -3.456   3.597  12.729  0.00  0.00    -0.032 A 
ATOM      4  C5  EZL d          -4.505   2.970  13.481  0.00  0.00     0.070 A 
ATOM      5  C1  EZL d          -2.529   7.078  13.854  0.00  0.00     0.214 A 
ATOM      6  N2  EZL d          -3.469   6.651  14.696  0.00  0.00    -0.227 NA
ATOM      7  S2  EZL d          -2.074   6.007  12.660  0.00  0.00    -0.054 SA
ATOM      8  C6  EZL d          -5.247   3.412  14.583  0.00  0.00    -0.049 A 
ATOM      9  C7  EZL d          -4.921   4.726  15.061  0.00  0.00    -0.051 A 
ATOM     10  H3  EZL d          -2.948   3.140  11.888  0.00  0.00     0.090 H 
ATOM     11  H6  EZL d          -6.016   2.803  15.045  0.00  0.00     0.087 H 
ATOM     12  H7  EZL d          -5.410   5.179  15.917  0.00  0.00     0.087 H 
ENDROOT
BRANCH   4  13
ATOM     13  O3  EZL d          -4.859   1.705  12.993  0.00  0.00    -0.351 OA
BRANCH  13  14
ATOM     14  C8  EZL d          -4.304   0.446  13.556  0.00  0.00     0.023 C 
ATOM     15  H4  EZL d          -4.935   0.116  14.395  0.00  0.00     0.074 H 
ATOM     16  H5  EZL d          -3.282   0.631  13.918  0.00  0.00     0.074 H 
BRANCH  14  17
ATOM     17  C9  EZL d          -4.270  -0.655  12.486  0.00  0.00    -0.056 C 
ATOM     18  H8  EZL d          -3.462  -1.366  12.717  0.00  0.00     0.030 H 
ATOM     19  H9  EZL d          -4.090  -0.202  11.500  0.00  0.00     0.030 H 
ATOM     20  H10 EZL d          -5.232  -1.186  12.475  0.00  0.00     0.030 H 
ENDBRANCH  14  17
ENDBRANCH  13  14
ENDBRANCH   4  13
BRANCH   5  21
ATOM     21  S1  EZL d          -1.753   8.685  13.997  0.00  0.00     0.281 S 
ATOM     22  O1  EZL d          -2.147   9.150  15.293  0.00  0.00    -0.199 OA
ATOM     23  O2  EZL d          -0.356   8.395  13.840  0.00  0.00    -0.199 OA
BRANCH  21  24
ATOM     24  N1  EZL d          -2.343   9.575  12.839  0.00  0.00    -0.323 N 
ATOM     25  H1  EZL d          -2.421  10.565  12.959  0.00  0.00     0.169 HD
ATOM     26  H2  EZL d          -2.641   9.149  11.984  0.00  0.00     0.169 HD
ENDBRANCH  21  24
ENDBRANCH   5  21
TORSDOF 5
ENDMDL
MODEL 7
REMARK VINA RESULT:      -3.7      2.024      2.528
REMARK  5 active torsions:
REMARK  status: ('A' for Active; 'I' for Inactive)
REMARK    1  A    between atoms: S1_9  and  N1_1 
REMARK    2  A    between atoms: C5_5  and  O3_15 
REMARK    3  A    between atoms: O3_15  and  C8_6 
REMARK    4  A    between atoms: C8_6  and  C9_16 
REMARK    5  A    between atoms: C1_10  and  S1_9 
ROOT
ATOM      1  C2  EZL d          -2.883   4.908  13.897  0.00  0.00     0.076 A 
ATOM      2  C3  EZL d          -3.353   6.056  14.536  0.00  0.00     0.039 A 
ATOM      3  C4  EZL d          -2.623   7.268  14.418  0.00  0.00    -0.032 A 
ATOM      4  C5  EZL d          -1.443   7.088  13.621  0.00  0.00     0.070 A 
ATOM      5  C1  EZL d          -4.755   4.186  14.856  0.00  0.00     0.214 A 
ATOM      6  N2  EZL d          -3.695   3.808  14.143  0.00  0.00    -0.227 NA
ATOM      7  S2  EZL d          -4.795   5.788  15.317  0.00  0.00    -0.054 SA
ATOM      8  C6  EZL d          -0.920   5.957  12.981  0.00  0.00    -0.049 A 
ATOM      9  C7  EZL d          -1.686   4.752  13.132  0.00  0.00    -0.051 A 
ATOM     10  H3  EZL d          -2.918   8.208  14.870  0.00  0.00     0.090 H 
ATOM     11  H6  EZL d           0.001   5.988  12.411  0.00  0.00     0.087 H 
ATOM     12  H7  EZL d          -1.383   3.805  12.701  0.00  0.00     0.087 H 
ENDROOT
BRANCH   4  13
ATOM     13  O3  EZL d          -0.713   8.269  13.433  0.00  0.00    -0.351 OA
BRANCH  13  14
ATOM     14  C8  EZL d          -1.363   9.570  13.122  0.00  0.00     0.023 C 
ATOM     15  H4  EZL d          -0.615  10.374  13.190  0.00  0.00     0.074 H 
ATOM     16  H5  EZL d          -2.168   9.755  13.848  0.00  0.00     0.074 H 
BRANCH  14  17
ATOM     17  C9  EZL d          -1.956   9.552  11.705  0.00  0.00    -0.056 C 
ATOM     18  H8  EZL d          -3.041   9.721  11.759  0.00  0.00     0.030 H 
ATOM     19  H9  EZL d          -1.760   8.576  11.237  0.00  0.00     0.030 H 
ATOM     20  H10 EZL d          -1.491  10.346  11.102  0.00  0.00     0.030 H 
ENDBRANCH  14  17
ENDBRANCH  13  14
ENDBRANCH   4  13
BRANCH   5  21
ATOM     21  S1  EZL d          -6.054   3.053  15.342  0.00  0.00     0.281 S 
ATOM     22  O1  EZL d          -6.758   3.751  16.375  0.00  0.00    -0.199 OA
ATOM     23  O2  EZL d          -6.784   2.843  14.125  0.00  0.00    -0.199 OA
BRANCH  21  24
ATOM     24  N1  EZL d          -5.341   1.755  15.878  0.00  0.00    -0.323 N 
ATOM     25  H1  EZL d          -5.804   0.870  15.821  0.00  0.00     0.169 HD
ATOM     26  H2  EZL d          -4.425   1.815  16.275  0.00  0.00     0.169 HD
ENDBRANCH  21  24
ENDBRANCH   5  21
TORSDOF 5
ENDMDL
MODEL 8
REMARK VINA RESULT:      -3.6      1.941      2.407
REMARK  5 active torsions:
REMARK  status: ('A' for Active; 'I' for Inactive)
REMARK    1  A    between atoms: S1_9  and  N1_1 
REMARK    2  A    between atoms: C5_5  and  O3_15 
REMARK    3  A    between atoms: O3_15  and  C8_6 
REMARK    4  A    between atoms: C8_6  and  C9_16 
REMARK    5  A    between atoms: C1_10  and  S1_9 
ROOT
ATOM      1  C2  EZL d          -3.893   4.880  15.132  0.00  0.00     0.076 A 
ATOM      2  C3  EZL d          -3.552   4.685  13.793  0.00  0.00     0.039 A 
ATOM      3  C4  EZL d          -3.118   5.791  13.016  0.00  0.00    -0.032 A 
ATOM      4  C5  EZL d          -3.119   7.000  13.788  0.00  0.00     0.070 A 
ATOM      5  C1  EZL d          -4.208   2.692  14.875  0.00  0.00     0.214 A 
ATOM      6  N2  EZL d          -4.326   3.704  15.733  0.00  0.00    -0.227 NA
ATOM      7  S2  EZL d          -3.671   3.088  13.346  0.00  0.00    -0.054 SA
ATOM      8  C6  EZL d          -3.473   7.249  15.120  0.00  0.00    -0.049 A 
ATOM      9  C7  EZL d          -3.911   6.104  15.868  0.00  0.00    -0.051 A 
ATOM     10  H3  EZL d          -2.824   5.730  11.974  0.00  0.00     0.090 H 
ATOM     11  H6  EZL d          -3.420   8.239  15.558  0.00  0.00     0.087 H 
ATOM     12  H7  EZL d          -4.228   6.164  16.903  0.00  0.00     0.087 H 
ENDROOT
BRANCH   4  13
ATOM     13  O3  EZL d          -2.651   8.114  13.078  0.00  0.00    -0.351 OA
BRANCH  13  14
ATOM     14  C8  EZL d          -2.090   8.009  11.705  0.00  0.00     0.023 C 
ATOM     15  H4  EZL d          -2.190   8.980  11.199  0.00  0.00     0.074 H 
ATOM     16  H5  EZL d          -2.647   7.244  11.144  0.00  0.00     0.074 H 
BRANCH  14  17
ATOM     17  C9  EZL d          -0.606   7.617  11.757  0.00  0.00    -0.056 C 
ATOM     18  H8  EZL d          -0.463   6.654  11.244  0.00  0.00     0.030 H 
ATOM     19  H9  EZL d          -0.287   7.525  12.806  0.00  0.00     0.030 H 
ATOM     20  H10 EZL d          -0.004   8.390  11.257  0.00  0.00     0.030 H 
ENDBRANCH  14  17
ENDBRANCH  13  14
ENDBRANCH   4  13
BRANCH   5  21
ATOM     21  S1  EZL d          -4.633   1.005  15.296  0.00  0.00     0.281 S 
ATOM     22  O1  EZL d          -4.712   0.339  14.031  0.00  0.00    -0.199 OA
ATOM     23  O2  EZL d          -3.553   0.594  16.148  0.00  0.00    -0.199 OA
BRANCH  21  24
ATOM     24  N1  EZL d          -6.025   1.062  16.029  0.00  0.00    -0.323 N 
ATOM     25  H1  EZL d          -6.536   1.921  16.067  0.00  0.00     0.169 HD
ATOM     26  H2  EZL d          -6.399   0.238  16.457  0.00  0.00     0.169 HD
ENDBRANCH  21  24
ENDBRANCH   5  21
TORSDOF 5
ENDMDL
MODEL 9
REMARK VINA RESULT:      -3.0      3.813      6.950
REMARK  5 active torsions:
REMARK  status: ('A' for Active; 'I' for Inactive)
REMARK    1  A    between atoms: S1_9  and  N1_1 
REMARK    2  A    between atoms: C5_5  and  O3_15 
REMARK    3  A    between atoms: O3_15  and  C8_6 
REMARK    4  A    between atoms: C8_6  and  C9_16 
REMARK    5  A    between atoms: C1_10  and  S1_9 
ROOT
ATOM      1  C2  EZL d          -2.735   5.057  12.920  0.00  0.00     0.076 A 
ATOM      2  C3  EZL d          -3.214   5.384  14.189  0.00  0.00     0.039 A 
ATOM      3  C4  EZL d          -3.968   4.427  14.917  0.00  0.00    -0.032 A 
ATOM      4  C5  EZL d          -4.131   3.214  14.167  0.00  0.00     0.070 A 
ATOM      5  C1  EZL d          -1.965   7.125  13.200  0.00  0.00     0.214 A 
ATOM      6  N2  EZL d          -2.049   6.114  12.336  0.00  0.00    -0.227 NA
ATOM      7  S2  EZL d          -2.735   6.903  14.662  0.00  0.00    -0.054 SA
ATOM      8  C6  EZL d          -3.691   2.849  12.888  0.00  0.00    -0.049 A 
ATOM      9  C7  EZL d          -2.937   3.848  12.185  0.00  0.00    -0.051 A 
ATOM     10  H3  EZL d          -4.369   4.590  15.911  0.00  0.00     0.090 H 
ATOM     11  H6  EZL d          -3.906   1.877  12.458  0.00  0.00     0.087 H 
ATOM     12  H7  EZL d          -2.554   3.698  11.182  0.00  0.00     0.087 H 
ENDROOT
BRANCH   4  13
ATOM     13  O3  EZL d          -4.827   2.218  14.865  0.00  0.00    -0.351 OA
BRANCH  13  14
ATOM     14  C8  EZL d          -5.088   0.872  14.289  0.00  0.00     0.023 C 
ATOM     15  H4  EZL d          -4.982   0.919  13.196  0.00  0.00     0.074 H 
ATOM     16  H5  EZL d          -6.112   0.562  14.546  0.00  0.00     0.074 H 
BRANCH  14  17
ATOM     17  C9  EZL d          -4.093  -0.156  14.849  0.00  0.00    -0.056 C 
ATOM     18  H8  EZL d          -3.327  -0.375  14.090  0.00  0.00     0.030 H 
ATOM     19  H9  EZL d          -4.629  -1.081  15.109  0.00  0.00     0.030 H 
ATOM     20  H10 EZL d          -3.610   0.253  15.748  0.00  0.00     0.030 H 
ENDBRANCH  14  17
ENDBRANCH  13  14
ENDBRANCH   4  13
BRANCH   5  21
ATOM     21  S1  EZL d          -1.118   8.657  12.825  0.00  0.00     0.281 S 
ATOM     22  O1  EZL d          -0.281   8.331  11.710  0.00  0.00    -0.199 OA
ATOM     23  O2  EZL d          -2.191   9.570  12.549  0.00  0.00    -0.199 OA
BRANCH  21  24
ATOM     24  N1  EZL d          -0.285   9.036  14.107  0.00  0.00    -0.323 N 
ATOM     25  H1  EZL d           0.010   8.322  14.741  0.00  0.00     0.169 HD
ATOM     26  H2  EZL d          -0.052   9.992  14.286  0.00  0.00     0.169 HD
ENDBRANCH  21  24
ENDBRANCH   5  21
TORSDOF 5
ENDMDL
