MODEL 1
REMARK VINA RESULT:      -8.8      0.000      0.000
REMARK  11 active torsions:
REMARK  status: ('A' for Active; 'I' for Inactive)
REMARK    1  A    between atoms: C20_3  and  C36_4 
REMARK    2  A    between atoms: C16_8  and  C35_9 
REMARK    3  A    between atoms: C5_13  and  O36_14 
REMARK    4  A    between atoms: C8_19  and  C25_20 
REMARK    5  A    between atoms: C10_22  and  O26_23 
REMARK    6  A    between atoms: O26_23  and  C27_24 
REMARK    7  A    between atoms: C11_25  and  O28_26 
REMARK    8  A    between atoms: C12_27  and  C29_28 
REMARK    9  A    between atoms: C14_30  and  C30_31 
REMARK   10  A    between atoms: C15_32  and  O31_33 
REMARK   11  A    between atoms: O31_33  and  C32_34 
REMARK       I    between atoms: C32_34  and  N34_36 
ROOT
ATOM      1  O37 BC6 d          41.345  -5.576  41.903  0.00  0.00    -0.268 OA
ATOM      2  C21 BC6 d          41.296  -6.015  40.757  0.00  0.00     0.251 C 
ATOM      3  C20 BC6 d          41.765  -7.379  40.571  0.00  0.00     0.002 C 
ATOM      4  C19 BC6 d          40.917  -8.308  40.033  0.00  0.00    -0.092 C 
ATOM      5  C18 BC6 d          41.191  -9.755  39.776  0.00  0.00    -0.049 C 
ATOM      6  C17 BC6 d          40.368 -10.146  38.545  0.00  0.00    -0.057 C 
ATOM      7  C16 BC6 d          38.880 -10.366  38.808  0.00  0.00    -0.028 C 
ATOM      8  N22 BC6 d          40.835  -5.222  39.776  0.00  0.00    -0.323 N 
ATOM      9  C3  BC6 d          40.991  -5.422  38.426  0.00  0.00     0.038 A 
ATOM     10  C4  BC6 d          39.919  -5.131  37.599  0.00  0.00    -0.025 A 
ATOM     11  C5  BC6 d          40.004  -5.305  36.216  0.00  0.00     0.068 A 
ATOM     12  C6  BC6 d          41.173  -5.786  35.631  0.00  0.00    -0.045 A 
ATOM     13  C1  BC6 d          42.268  -6.099  36.465  0.00  0.00    -0.053 A 
ATOM     14  C2  BC6 d          42.171  -5.893  37.846  0.00  0.00    -0.051 A 
ATOM     15  C7  BC6 d          43.560  -6.664  35.912  0.00  0.00    -0.038 C 
ATOM     16  C8  BC6 d          43.537  -8.205  35.758  0.00  0.00    -0.051 C 
ATOM     17  C9  BC6 d          42.400  -8.669  34.803  0.00  0.00    -0.035 C 
ATOM     18  C10 BC6 d          42.222 -10.173  34.625  0.00  0.00     0.063 C 
ATOM     19  C11 BC6 d          41.136 -10.515  33.604  0.00  0.00     0.067 C 
ATOM     20  C12 BC6 d          39.775  -9.939  34.010  0.00  0.00    -0.014 C 
ATOM     21  C13 BC6 d          39.281 -10.553  35.316  0.00  0.00    -0.092 C 
ATOM     22  C14 BC6 d          38.577  -9.941  36.312  0.00  0.00    -0.058 C 
ATOM     23  C15 BC6 d          38.169 -10.789  37.496  0.00  0.00     0.074 C 
ATOM     24  H4  BC6 d          39.925  -7.951  39.760  0.00  0.00     0.077 H 
ATOM     25  H5  BC6 d          40.885 -10.359  40.644  0.00  0.00     0.038 H 
ATOM     26  H6  BC6 d          42.261  -9.910  39.581  0.00  0.00     0.038 H 
ATOM     27  H7  BC6 d          40.784 -11.079  38.138  0.00  0.00     0.034 H 
ATOM     28  H8  BC6 d          40.467  -9.344  37.799  0.00  0.00     0.034 H 
ATOM     29  H9  BC6 d          38.450  -9.411  39.142  0.00  0.00     0.043 H 
ATOM     30  H13 BC6 d          40.329  -4.406  40.056  0.00  0.00     0.169 HD
ATOM     31  H14 BC6 d          38.997  -4.760  38.034  0.00  0.00     0.091 H 
ATOM     32  H16 BC6 d          41.241  -5.918  34.557  0.00  0.00     0.088 H 
ATOM     33  H17 BC6 d          43.027  -6.101  38.477  0.00  0.00     0.087 H 
ATOM     34  H18 BC6 d          44.380  -6.393  36.594  0.00  0.00     0.040 H 
ATOM     35  H19 BC6 d          43.742  -6.217  34.924  0.00  0.00     0.040 H 
ATOM     36  H20 BC6 d          44.487  -8.483  35.279  0.00  0.00     0.040 H 
ATOM     37  H24 BC6 d          42.601  -8.238  33.811  0.00  0.00     0.037 H 
ATOM     38  H25 BC6 d          41.453  -8.266  35.192  0.00  0.00     0.037 H 
ATOM     39  H26 BC6 d          41.942 -10.604  35.597  0.00  0.00     0.087 H 
ATOM     40  H30 BC6 d          41.044 -11.608  33.513  0.00  0.00     0.087 H 
ATOM     41  H32 BC6 d          39.832  -8.844  34.091  0.00  0.00     0.049 H 
ATOM     42  H36 BC6 d          39.518 -11.604  35.472  0.00  0.00     0.078 H 
ATOM     43  H40 BC6 d          38.381 -11.847  37.282  0.00  0.00     0.092 H 
ENDROOT
BRANCH  23  44
ATOM     44  O31 BC6 d          36.780 -10.586  37.711  0.00  0.00    -0.294 OA
BRANCH  44  45
ATOM     45  C32 BC6 d          35.879 -11.114  36.727  0.00  0.00     0.358 C 
ATOM     46  O33 BC6 d          36.013 -12.275  36.375  0.00  0.00    -0.239 OA
ATOM     47  N34 BC6 d          34.968 -10.251  36.305  0.00  0.00    -0.346 N 
ATOM     48  H41 BC6 d          34.295 -10.530  35.618  0.00  0.00     0.161 HD
ATOM     49  H42 BC6 d          34.952  -9.322  36.672  0.00  0.00     0.161 HD
ENDBRANCH  44  45
ENDBRANCH  23  44
BRANCH   7  50
ATOM     50  C35 BC6 d          38.632 -11.408  39.912  0.00  0.00    -0.070 C 
ATOM     51  H10 BC6 d          37.587 -11.342  40.251  0.00  0.00     0.028 H 
ATOM     52  H11 BC6 d          39.305 -11.211  40.760  0.00  0.00     0.028 H 
ATOM     53  H12 BC6 d          38.826 -12.415  39.517  0.00  0.00     0.028 H 
ENDBRANCH   7  50
BRANCH  22  54
ATOM     54  C30 BC6 d          38.153  -8.495  36.266  0.00  0.00    -0.052 C 
ATOM     55  H37 BC6 d          37.180  -8.413  35.759  0.00  0.00     0.033 H 
ATOM     56  H38 BC6 d          38.904  -7.910  35.714  0.00  0.00     0.033 H 
ATOM     57  H39 BC6 d          38.066  -8.105  37.291  0.00  0.00     0.033 H 
ENDBRANCH  22  54
BRANCH  20  58
ATOM     58  C29 BC6 d          38.763 -10.371  32.954  0.00  0.00    -0.067 C 
ATOM     59  H33 BC6 d          38.099  -9.526  32.715  0.00  0.00     0.028 H 
ATOM     60  H34 BC6 d          38.165 -11.209  33.339  0.00  0.00     0.028 H 
ATOM     61  H35 BC6 d          39.294 -10.687  32.045  0.00  0.00     0.028 H 
ENDBRANCH  20  58
BRANCH  19  62
ATOM     62  O28 BC6 d          41.578  -9.954  32.349  0.00  0.00    -0.392 OA
ATOM     63  H31 BC6 d          40.931 -10.135  31.678  0.00  0.00     0.210 HD
ENDBRANCH  19  62
BRANCH   3  64
ATOM     64  C36 BC6 d          43.146  -7.699  41.064  0.00  0.00    -0.046 C 
ATOM     65  H1  BC6 d          43.235  -7.407  42.121  0.00  0.00     0.033 H 
ATOM     66  H2  BC6 d          43.885  -7.145  40.467  0.00  0.00     0.033 H 
ATOM     67  H3  BC6 d          43.329  -8.779  40.965  0.00  0.00     0.033 H 
ENDBRANCH   3  64
BRANCH  18  68
ATOM     68  O26 BC6 d          43.455 -10.777  34.178  0.00  0.00    -0.388 OA
BRANCH  68  69
ATOM     69  C27 BC6 d          43.573 -12.148  34.487  0.00  0.00     0.005 C 
ATOM     70  H27 BC6 d          42.658 -12.490  34.991  0.00  0.00     0.066 H 
ATOM     71  H28 BC6 d          44.436 -12.301  35.151  0.00  0.00     0.066 H 
ATOM     72  H29 BC6 d          43.718 -12.722  33.560  0.00  0.00     0.066 H 
ENDBRANCH  68  69
ENDBRANCH  18  68
BRANCH  16  73
ATOM     73  C25 BC6 d          43.491  -8.959  37.100  0.00  0.00    -0.073 C 
ATOM     74  H21 BC6 d          44.257  -8.550  37.776  0.00  0.00     0.028 H 
ATOM     75  H22 BC6 d          43.687 -10.027  36.927  0.00  0.00     0.028 H 
ATOM     76  H23 BC6 d          42.497  -8.837  37.555  0.00  0.00     0.028 H 
ENDBRANCH  16  73
BRANCH  11  77
ATOM     77  O36 BC6 d          38.889  -5.043  35.472  0.00  0.00    -0.361 OA
ATOM     78  H15 BC6 d          38.442  -5.858  35.274  0.00  0.00     0.217 HD
ENDBRANCH  11  77
TORSDOF 11
ENDMDL
