MODEL 1
REMARK VINA RESULT:      -8.6      0.000      0.000
REMARK  6 active torsions:
REMARK  status: ('A' for Active; 'I' for Inactive)
REMARK    1  A    between atoms: N1_2  and  C1_1 
REMARK    2  A    between atoms: C2_3  and  O2_5 
REMARK    3  A    between atoms: C9_17  and  N3_8 
REMARK    4  A    between atoms: C4_9  and  O4_10 
REMARK    5  A    between atoms: C5_11  and  C6_13 
REMARK    6  A    between atoms: C6_13  and  O6_14 
ROOT
ATOM      1  C1  DKZ d          33.414  23.001  27.912  0.00  0.00     0.141 C 
ATOM      2  C2  DKZ d          33.885  23.127  26.450  0.00  0.00     0.110 C 
ATOM      3  C3  DKZ d          32.937  22.325  25.529  0.00  0.00     0.134 C 
ATOM      4  F3  DKZ d          33.470  22.230  24.265  0.00  0.00    -0.244 F 
ATOM      5  C4  DKZ d          32.671  20.899  26.068  0.00  0.00     0.094 C 
ATOM      6  C5  DKZ d          32.401  20.847  27.592  0.00  0.00     0.088 C 
ATOM      7  O5  DKZ d          33.416  21.591  28.313  0.00  0.00    -0.353 OA
ATOM      8  H1  DKZ d          32.401  23.424  27.974  0.00  0.00     0.123 H 
ATOM      9  H2  DKZ d          34.891  22.690  26.371  0.00  0.00     0.094 H 
ATOM     10  H5  DKZ d          31.977  22.861  25.471  0.00  0.00     0.100 H 
ATOM     11  H7  DKZ d          33.554  20.279  25.856  0.00  0.00     0.091 H 
ATOM     12  H9  DKZ d          31.415  21.294  27.787  0.00  0.00     0.090 H 
ENDROOT
BRANCH   1  13
ATOM     13  N1  DKZ d          34.263  23.613  28.959  0.00  0.00    -0.280 N 
ATOM     14  C7  DKZ d          35.670  23.471  28.959  0.00  0.00    -0.009 A 
ATOM     15  C8  DKZ d          36.410  24.055  29.987  0.00  0.00    -0.024 A 
ATOM     16  H13 DKZ d          36.169  22.913  28.168  0.00  0.00     0.112 H 
ATOM     17  C9  DKZ d          35.714  24.745  30.990  0.00  0.00     0.125 A 
ATOM     18  H14 DKZ d          37.496  23.978  30.009  0.00  0.00     0.091 H 
ATOM     19  N2  DKZ d          34.365  24.857  30.973  0.00  0.00    -0.293 N 
ATOM     20  C10 DKZ d          33.625  24.300  29.994  0.00  0.00     0.330 A 
ATOM     21  H3  DKZ d          33.908  25.365  31.704  0.00  0.00     0.172 HD
ATOM     22  O10 DKZ d          32.390  24.405  29.985  0.00  0.00    -0.246 OA
BRANCH  17  23
ATOM     23  N3  DKZ d          36.382  25.302  31.996  0.00  0.00    -0.284 NA
ATOM     24  H6  DKZ d          37.281  24.936  32.268  0.00  0.00     0.188 HD
ENDBRANCH  17  23
ENDBRANCH   1  13
BRANCH   2  25
ATOM     25  O2  DKZ d          33.970  24.517  26.051  0.00  0.00    -0.388 OA
ATOM     26  H4  DKZ d          34.771  24.656  25.559  0.00  0.00     0.210 HD
ENDBRANCH   2  25
BRANCH   6  27
ATOM     27  C6  DKZ d          32.415  19.403  28.129  0.00  0.00     0.043 C 
ATOM     28  H10 DKZ d          32.783  19.399  29.166  0.00  0.00     0.078 H 
ATOM     29  H11 DKZ d          33.076  18.783  27.504  0.00  0.00     0.078 H 
BRANCH  27  30
ATOM     30  O6  DKZ d          31.082  18.875  28.089  0.00  0.00    -0.398 OA
ATOM     31  H12 DKZ d          31.103  17.946  28.286  0.00  0.00     0.209 HD
ENDBRANCH  27  30
ENDBRANCH   6  27
BRANCH   5  32
ATOM     32  O4  DKZ d          31.546  20.361  25.381  0.00  0.00    -0.390 OA
ATOM     33  H8  DKZ d          31.629  20.539  24.451  0.00  0.00     0.210 HD
ENDBRANCH   5  32
TORSDOF 6
ENDMDL
MODEL 2
REMARK VINA RESULT:      -7.7      1.570      1.626
REMARK  6 active torsions:
REMARK  status: ('A' for Active; 'I' for Inactive)
REMARK    1  A    between atoms: N1_2  and  C1_1 
REMARK    2  A    between atoms: C2_3  and  O2_5 
REMARK    3  A    between atoms: C9_17  and  N3_8 
REMARK    4  A    between atoms: C4_9  and  O4_10 
REMARK    5  A    between atoms: C5_11  and  C6_13 
REMARK    6  A    between atoms: C6_13  and  O6_14 
ROOT
ATOM      1  C1  DKZ d          32.799  23.290  28.639  0.00  0.00     0.141 C 
ATOM      2  C2  DKZ d          32.327  24.159  27.458  0.00  0.00     0.110 C 
ATOM      3  C3  DKZ d          31.251  23.397  26.651  0.00  0.00     0.134 C 
ATOM      4  F3  DKZ d          30.992  24.050  25.469  0.00  0.00    -0.244 F 
ATOM      5  C4  DKZ d          31.680  21.943  26.336  0.00  0.00     0.094 C 
ATOM      6  C5  DKZ d          32.328  21.210  27.536  0.00  0.00     0.088 C 
ATOM      7  O5  DKZ d          33.360  22.032  28.137  0.00  0.00    -0.353 OA
ATOM      8  H1  DKZ d          31.927  23.100  29.283  0.00  0.00     0.123 H 
ATOM      9  H2  DKZ d          33.187  24.341  26.796  0.00  0.00     0.094 H 
ATOM     10  H5  DKZ d          30.328  23.367  27.251  0.00  0.00     0.100 H 
ATOM     11  H7  DKZ d          32.411  21.970  25.516  0.00  0.00     0.091 H 
ATOM     12  H9  DKZ d          31.547  21.003  28.282  0.00  0.00     0.090 H 
ENDROOT
BRANCH   1  13
ATOM     13  N1  DKZ d          33.912  23.807  29.468  0.00  0.00    -0.280 N 
ATOM     14  C7  DKZ d          35.266  23.567  29.134  0.00  0.00    -0.009 A 
ATOM     15  C8  DKZ d          36.267  24.064  29.968  0.00  0.00    -0.024 A 
ATOM     16  H13 DKZ d          35.522  23.003  28.239  0.00  0.00     0.112 H 
ATOM     17  C9  DKZ d          35.878  24.767  31.118  0.00  0.00     0.125 A 
ATOM     18  H14 DKZ d          37.319  23.912  29.733  0.00  0.00     0.091 H 
ATOM     19  N2  DKZ d          34.576  24.973  31.421  0.00  0.00    -0.293 N 
ATOM     20  C10 DKZ d          33.587  24.501  30.634  0.00  0.00     0.330 A 
ATOM     21  H3  DKZ d          34.341  25.486  32.247  0.00  0.00     0.172 HD
ATOM     22  O10 DKZ d          32.396  24.692  30.918  0.00  0.00    -0.246 OA
BRANCH  17  23
ATOM     23  N3  DKZ d          36.803  25.243  31.948  0.00  0.00    -0.284 NA
ATOM     24  H6  DKZ d          37.496  25.893  31.610  0.00  0.00     0.188 HD
ENDBRANCH  17  23
ENDBRANCH   1  13
BRANCH   2  25
ATOM     25  O2  DKZ d          31.841  25.443  27.920  0.00  0.00    -0.388 OA
ATOM     26  H4  DKZ d          31.975  25.512  28.858  0.00  0.00     0.210 HD
ENDBRANCH   2  25
BRANCH   6  27
ATOM     27  C6  DKZ d          32.983  19.881  27.110  0.00  0.00     0.043 C 
ATOM     28  H10 DKZ d          32.343  19.041  27.415  0.00  0.00     0.078 H 
ATOM     29  H11 DKZ d          33.968  19.785  27.591  0.00  0.00     0.078 H 
BRANCH  27  30
ATOM     30  O6  DKZ d          33.142  19.873  25.684  0.00  0.00    -0.398 OA
ATOM     31  H12 DKZ d          33.555  20.682  25.407  0.00  0.00     0.209 HD
ENDBRANCH  27  30
ENDBRANCH   6  27
BRANCH   5  32
ATOM     32  O4  DKZ d          30.530  21.217  25.916  0.00  0.00    -0.390 OA
ATOM     33  H8  DKZ d          30.340  20.533  26.549  0.00  0.00     0.210 HD
ENDBRANCH   5  32
TORSDOF 6
ENDMDL
MODEL 3
REMARK VINA RESULT:      -6.1      3.212      5.973
REMARK  6 active torsions:
REMARK  status: ('A' for Active; 'I' for Inactive)
REMARK    1  A    between atoms: N1_2  and  C1_1 
REMARK    2  A    between atoms: C2_3  and  O2_5 
REMARK    3  A    between atoms: C9_17  and  N3_8 
REMARK    4  A    between atoms: C4_9  and  O4_10 
REMARK    5  A    between atoms: C5_11  and  C6_13 
REMARK    6  A    between atoms: C6_13  and  O6_14 
ROOT
ATOM      1  C1  DKZ d          33.837  23.782  28.800  0.00  0.00     0.141 C 
ATOM      2  C2  DKZ d          32.950  24.290  29.953  0.00  0.00     0.110 C 
ATOM      3  C3  DKZ d          33.759  25.264  30.840  0.00  0.00     0.134 C 
ATOM      4  F3  DKZ d          33.068  25.540  31.996  0.00  0.00    -0.244 F 
ATOM      5  C4  DKZ d          35.150  24.693  31.213  0.00  0.00     0.094 C 
ATOM      6  C5  DKZ d          35.887  24.023  30.028  0.00  0.00     0.088 C 
ATOM      7  O5  DKZ d          35.011  23.092  29.344  0.00  0.00    -0.353 OA
ATOM      8  H1  DKZ d          34.140  24.655  28.203  0.00  0.00     0.123 H 
ATOM      9  H2  DKZ d          32.657  23.428  30.570  0.00  0.00     0.094 H 
ATOM     10  H5  DKZ d          33.905  26.200  30.280  0.00  0.00     0.100 H 
ATOM     11  H7  DKZ d          35.013  23.939  32.001  0.00  0.00     0.091 H 
ATOM     12  H9  DKZ d          36.204  24.808  29.325  0.00  0.00     0.090 H 
ENDROOT
BRANCH   1  13
ATOM     13  N1  DKZ d          33.270  22.750  27.903  0.00  0.00    -0.280 N 
ATOM     14  C7  DKZ d          33.510  21.371  28.104  0.00  0.00    -0.009 A 
ATOM     15  C8  DKZ d          32.964  20.451  27.210  0.00  0.00    -0.024 A 
ATOM     16  H13 DKZ d          34.113  21.032  28.945  0.00  0.00     0.112 H 
ATOM     17  C9  DKZ d          32.212  20.945  26.133  0.00  0.00     0.125 A 
ATOM     18  H14 DKZ d          33.116  19.381  27.343  0.00  0.00     0.091 H 
ATOM     19  N2  DKZ d          32.007  22.271  25.957  0.00  0.00    -0.293 N 
ATOM     20  C10 DKZ d          32.525  23.183  26.804  0.00  0.00     0.330 A 
ATOM     21  H3  DKZ d          31.457  22.581  25.180  0.00  0.00     0.172 HD
ATOM     22  O10 DKZ d          32.334  24.395  26.635  0.00  0.00    -0.246 OA
BRANCH  17  23
ATOM     23  N3  DKZ d          31.687  20.101  25.249  0.00  0.00    -0.284 NA
ATOM     24  H6  DKZ d          30.735  20.220  24.942  0.00  0.00     0.188 HD
ENDBRANCH  17  23
ENDBRANCH   1  13
BRANCH   2  25
ATOM     25  O2  DKZ d          31.742  24.907  29.445  0.00  0.00    -0.388 OA
ATOM     26  H4  DKZ d          31.019  24.294  29.519  0.00  0.00     0.210 HD
ENDBRANCH   2  25
BRANCH   6  27
ATOM     27  C6  DKZ d          37.127  23.235  30.495  0.00  0.00     0.043 C 
ATOM     28  H10 DKZ d          38.024  23.633  29.999  0.00  0.00     0.078 H 
ATOM     29  H11 DKZ d          37.007  22.173  30.239  0.00  0.00     0.078 H 
BRANCH  27  30
ATOM     30  O6  DKZ d          37.262  23.374  31.917  0.00  0.00    -0.398 OA
ATOM     31  H12 DKZ d          36.867  22.625  32.347  0.00  0.00     0.209 HD
ENDBRANCH  27  30
ENDBRANCH   6  27
BRANCH   5  32
ATOM     32  O4  DKZ d          35.952  25.756  31.715  0.00  0.00    -0.390 OA
ATOM     33  H8  DKZ d          35.829  26.528  31.174  0.00  0.00     0.210 HD
ENDBRANCH   5  32
TORSDOF 6
ENDMDL
MODEL 4
REMARK VINA RESULT:      -5.9      1.754      2.876
REMARK  6 active torsions:
REMARK  status: ('A' for Active; 'I' for Inactive)
REMARK    1  A    between atoms: N1_2  and  C1_1 
REMARK    2  A    between atoms: C2_3  and  O2_5 
REMARK    3  A    between atoms: C9_17  and  N3_8 
REMARK    4  A    between atoms: C4_9  and  O4_10 
REMARK    5  A    between atoms: C5_11  and  C6_13 
REMARK    6  A    between atoms: C6_13  and  O6_14 
ROOT
ATOM      1  C1  DKZ d          33.422  22.372  28.045  0.00  0.00     0.141 C 
ATOM      2  C2  DKZ d          32.747  21.072  28.522  0.00  0.00     0.110 C 
ATOM      3  C3  DKZ d          32.085  20.360  27.321  0.00  0.00     0.134 C 
ATOM      4  F3  DKZ d          31.284  19.332  27.760  0.00  0.00    -0.244 F 
ATOM      5  C4  DKZ d          31.231  21.330  26.468  0.00  0.00     0.094 C 
ATOM      6  C5  DKZ d          31.913  22.695  26.204  0.00  0.00     0.088 C 
ATOM      7  O5  DKZ d          32.421  23.257  27.440  0.00  0.00    -0.353 OA
ATOM      8  H1  DKZ d          34.194  22.098  27.311  0.00  0.00     0.123 H 
ATOM      9  H2  DKZ d          31.960  21.335  29.243  0.00  0.00     0.094 H 
ATOM     10  H5  DKZ d          32.880  19.944  26.685  0.00  0.00     0.100 H 
ATOM     11  H7  DKZ d          30.287  21.517  27.000  0.00  0.00     0.091 H 
ATOM     12  H9  DKZ d          32.748  22.538  25.506  0.00  0.00     0.090 H 
ENDROOT
BRANCH   1  13
ATOM     13  N1  DKZ d          34.019  23.253  29.075  0.00  0.00    -0.280 N 
ATOM     14  C7  DKZ d          35.369  23.123  29.476  0.00  0.00    -0.009 A 
ATOM     15  C8  DKZ d          35.865  23.970  30.467  0.00  0.00    -0.024 A 
ATOM     16  H13 DKZ d          36.012  22.373  29.018  0.00  0.00     0.112 H 
ATOM     17  C9  DKZ d          34.986  24.904  31.036  0.00  0.00     0.125 A 
ATOM     18  H14 DKZ d          36.903  23.909  30.789  0.00  0.00     0.091 H 
ATOM     19  N2  DKZ d          33.696  25.000  30.642  0.00  0.00    -0.293 N 
ATOM     20  C10 DKZ d          33.189  24.192  29.689  0.00  0.00     0.330 A 
ATOM     21  H3  DKZ d          33.104  25.685  31.068  0.00  0.00     0.172 HD
ATOM     22  O10 DKZ d          32.005  24.284  29.333  0.00  0.00    -0.246 OA
BRANCH  17  23
ATOM     23  N3  DKZ d          35.417  25.719  31.996  0.00  0.00    -0.284 NA
ATOM     24  H6  DKZ d          35.352  26.718  31.875  0.00  0.00     0.188 HD
ENDBRANCH  17  23
ENDBRANCH   1  13
BRANCH   2  25
ATOM     25  O2  DKZ d          33.699  20.212  29.196  0.00  0.00    -0.388 OA
ATOM     26  H4  DKZ d          34.582  20.469  28.957  0.00  0.00     0.210 HD
ENDBRANCH   2  25
BRANCH   6  27
ATOM     27  C6  DKZ d          30.934  23.718  25.597  0.00  0.00     0.043 C 
ATOM     28  H10 DKZ d          29.901  23.368  25.738  0.00  0.00     0.078 H 
ATOM     29  H11 DKZ d          31.138  23.832  24.522  0.00  0.00     0.078 H 
BRANCH  27  30
ATOM     30  O6  DKZ d          31.108  24.981  26.256  0.00  0.00    -0.398 OA
ATOM     31  H12 DKZ d          31.906  25.392  25.945  0.00  0.00     0.209 HD
ENDBRANCH  27  30
ENDBRANCH   6  27
BRANCH   5  32
ATOM     32  O4  DKZ d          30.951  20.704  25.221  0.00  0.00    -0.390 OA
ATOM     33  H8  DKZ d          31.483  19.921  25.134  0.00  0.00     0.210 HD
ENDBRANCH   5  32
TORSDOF 6
ENDMDL
