MODEL 1
REMARK VINA RESULT:      -7.0      0.000      0.000
REMARK  2 active torsions:
REMARK  status: ('A' for Active; 'I' for Inactive)
REMARK    1  A    between atoms: N_9  and  C11_13 
REMARK    2  A    between atoms: C9_11  and  S_10 
ROOT
ATOM      1  C1  MOL d         121.508 134.591  65.086  0.00  0.00     0.045 A 
ATOM      2  C2  MOL d         120.734 135.699  65.566  0.00  0.00    -0.056 A 
ATOM      3  C3  MOL d         119.341 135.747  65.393  0.00  0.00    -0.080 A 
ATOM      4  C4  MOL d         118.668 134.701  64.748  0.00  0.00    -0.072 A 
ATOM      5  C5  MOL d         119.361 133.569  64.251  0.00  0.00    -0.022 A 
ATOM      6  C6  MOL d         118.645 132.522  63.605  0.00  0.00    -0.072 A 
ATOM      7  C7  MOL d         119.300 131.390  63.103  0.00  0.00    -0.081 A 
ATOM      8  C8  MOL d         120.691 131.271  63.229  0.00  0.00    -0.058 A 
ATOM      9  N   MOL d         122.808 134.586  65.271  0.00  0.00    -0.355 N 
ATOM     10  C9  MOL d         121.462 132.277  63.859  0.00  0.00     0.094 A 
ATOM     11  C10 MOL d         120.823 133.475  64.404  0.00  0.00     0.025 A 
ATOM     12  H1  MOL d         121.234 136.516  66.073  0.00  0.00     0.086 H 
ATOM     13  H2  MOL d         118.783 136.600  65.760  0.00  0.00     0.083 H 
ATOM     14  H3  MOL d         117.592 134.759  64.626  0.00  0.00     0.084 H 
ATOM     15  H4  MOL d         117.569 132.601  63.500  0.00  0.00     0.084 H 
ATOM     16  H5  MOL d         118.732 130.607  62.617  0.00  0.00     0.083 H 
ATOM     17  H6  MOL d         121.186 130.391  62.835  0.00  0.00     0.086 H 
ATOM     18  H7  MOL d         123.198 133.758  65.744  0.00  0.00     0.166 HD
ENDROOT
BRANCH   9  19
ATOM     19  C11 MOL d         123.675 135.523  64.919  0.00  0.00     0.032 A 
ATOM     20  C12 MOL d         123.457 136.447  63.830  0.00  0.00    -0.057 A 
ATOM     21  C13 MOL d         124.443 137.427  63.501  0.00  0.00    -0.081 A 
ATOM     22  H8  MOL d         122.539 136.396  63.257  0.00  0.00     0.086 H 
ATOM     23  C14 MOL d         125.653 137.492  64.253  0.00  0.00    -0.083 A 
ATOM     24  H9  MOL d         124.273 138.117  62.683  0.00  0.00     0.083 H 
ATOM     25  C15 MOL d         125.871 136.586  65.327  0.00  0.00    -0.081 A 
ATOM     26  H10 MOL d         126.405 138.231  64.007  0.00  0.00     0.083 H 
ATOM     27  C16 MOL d         124.890 135.608  65.656  0.00  0.00    -0.057 A 
ATOM     28  H11 MOL d         126.790 136.640  65.899  0.00  0.00     0.083 H 
ATOM     29  H12 MOL d         125.070 134.922  66.475  0.00  0.00     0.086 H 
ENDBRANCH   9  19
BRANCH  10  30
ATOM     30  S   MOL d         123.219 131.981  63.927  0.00  0.00     0.138 S 
ATOM     31  O1  MOL d         123.910 133.023  63.200  0.00  0.00    -0.591 OA
ATOM     32  O2  MOL d         123.460 130.669  63.353  0.00  0.00    -0.591 OA
ATOM     33  O3  MOL d         123.701 131.969  65.497  0.00  0.00    -0.591 OA
ENDBRANCH  10  30
TORSDOF 2
ENDMDL
MODEL 2
REMARK VINA RESULT:      -6.9      2.751      4.207
REMARK  2 active torsions:
REMARK  status: ('A' for Active; 'I' for Inactive)
REMARK    1  A    between atoms: N_9  and  C11_13 
REMARK    2  A    between atoms: C9_11  and  S_10 
ROOT
ATOM      1  C1  MOL d         122.306 133.266  64.162  0.00  0.00     0.045 A 
ATOM      2  C2  MOL d         122.111 131.968  63.583  0.00  0.00    -0.056 A 
ATOM      3  C3  MOL d         120.826 131.417  63.440  0.00  0.00    -0.080 A 
ATOM      4  C4  MOL d         119.695 132.131  63.857  0.00  0.00    -0.072 A 
ATOM      5  C5  MOL d         119.804 133.421  64.433  0.00  0.00    -0.022 A 
ATOM      6  C6  MOL d         118.634 134.121  64.841  0.00  0.00    -0.072 A 
ATOM      7  C7  MOL d         118.708 135.397  65.413  0.00  0.00    -0.081 A 
ATOM      8  C8  MOL d         119.954 136.013  65.598  0.00  0.00    -0.058 A 
ATOM      9  N   MOL d         123.523 133.744  64.275  0.00  0.00    -0.355 N 
ATOM     10  C9  MOL d         121.156 135.371  65.215  0.00  0.00     0.094 A 
ATOM     11  C10 MOL d         121.130 134.040  64.608  0.00  0.00     0.025 A 
ATOM     12  H1  MOL d         122.972 131.401  63.248  0.00  0.00     0.086 H 
ATOM     13  H2  MOL d         120.710 130.431  63.005  0.00  0.00     0.083 H 
ATOM     14  H3  MOL d         118.714 131.687  63.736  0.00  0.00     0.084 H 
ATOM     15  H4  MOL d         117.664 133.657  64.705  0.00  0.00     0.084 H 
ATOM     16  H5  MOL d         117.802 135.909  65.714  0.00  0.00     0.083 H 
ATOM     17  H6  MOL d         119.997 137.001  66.043  0.00  0.00     0.086 H 
ATOM     18  H7  MOL d         123.690 134.670  63.856  0.00  0.00     0.166 HD
ENDROOT
BRANCH   9  19
ATOM     19  C11 MOL d         124.561 133.171  64.865  0.00  0.00     0.032 A 
ATOM     20  C12 MOL d         124.444 132.107  65.835  0.00  0.00    -0.057 A 
ATOM     21  C13 MOL d         125.609 131.544  66.439  0.00  0.00    -0.081 A 
ATOM     22  H8  MOL d         123.464 131.733  66.107  0.00  0.00     0.086 H 
ATOM     23  C14 MOL d         126.899 132.037  66.082  0.00  0.00    -0.083 A 
ATOM     24  H9  MOL d         125.514 130.745  67.166  0.00  0.00     0.083 H 
ATOM     25  C15 MOL d         127.019 133.084  65.128  0.00  0.00    -0.081 A 
ATOM     26  H10 MOL d         127.786 131.615  66.539  0.00  0.00     0.083 H 
ATOM     27  C16 MOL d         125.859 133.647  64.525  0.00  0.00    -0.057 A 
ATOM     28  H11 MOL d         128.001 133.455  64.856  0.00  0.00     0.083 H 
ATOM     29  H12 MOL d         125.965 134.446  63.800  0.00  0.00     0.086 H 
ENDBRANCH   9  19
BRANCH  10  30
ATOM     30  S   MOL d         122.656 136.281  65.529  0.00  0.00     0.138 S 
ATOM     31  O1  MOL d         123.482 135.541  66.457  0.00  0.00    -0.591 OA
ATOM     32  O2  MOL d         122.274 137.577  66.058  0.00  0.00    -0.591 OA
ATOM     33  O3  MOL d         123.456 136.503  64.111  0.00  0.00    -0.591 OA
ENDBRANCH  10  30
TORSDOF 2
ENDMDL
MODEL 3
REMARK VINA RESULT:      -6.0      0.899      1.860
REMARK  2 active torsions:
REMARK  status: ('A' for Active; 'I' for Inactive)
REMARK    1  A    between atoms: N_9  and  C11_13 
REMARK    2  A    between atoms: C9_11  and  S_10 
ROOT
ATOM      1  C1  MOL d         122.170 135.195  65.771  0.00  0.00     0.045 A 
ATOM      2  C2  MOL d         121.773 136.363  66.504  0.00  0.00    -0.056 A 
ATOM      3  C3  MOL d         120.429 136.771  66.555  0.00  0.00    -0.080 A 
ATOM      4  C4  MOL d         119.436 136.036  65.893  0.00  0.00    -0.072 A 
ATOM      5  C5  MOL d         119.748 134.867  65.154  0.00  0.00    -0.022 A 
ATOM      6  C6  MOL d         118.715 134.142  64.497  0.00  0.00    -0.072 A 
ATOM      7  C7  MOL d         118.990 132.984  63.759  0.00  0.00    -0.081 A 
ATOM      8  C8  MOL d         120.307 132.516  63.652  0.00  0.00    -0.058 A 
ATOM      9  N   MOL d         123.436 134.848  65.752  0.00  0.00    -0.355 N 
ATOM     10  C9  MOL d         121.381 133.191  64.280  0.00  0.00     0.094 A 
ATOM     11  C10 MOL d         121.143 134.402  65.066  0.00  0.00     0.025 A 
ATOM     12  H1  MOL d         122.524 136.942  67.028  0.00  0.00     0.086 H 
ATOM     13  H2  MOL d         120.159 137.661  67.111  0.00  0.00     0.083 H 
ATOM     14  H3  MOL d         118.406 136.368  65.948  0.00  0.00     0.084 H 
ATOM     15  H4  MOL d         117.692 134.493  64.571  0.00  0.00     0.084 H 
ATOM     16  H5  MOL d         118.184 132.449  63.270  0.00  0.00     0.083 H 
ATOM     17  H6  MOL d         120.506 131.619  63.077  0.00  0.00     0.086 H 
ATOM     18  H7  MOL d         123.651 133.885  66.048  0.00  0.00     0.166 HD
ENDROOT
BRANCH   9  19
ATOM     19  C11 MOL d         124.470 135.595  65.393  0.00  0.00     0.032 A 
ATOM     20  C12 MOL d         125.830 135.330  65.803  0.00  0.00    -0.057 A 
ATOM     21  C13 MOL d         126.894 136.187  65.385  0.00  0.00    -0.081 A 
ATOM     22  H8  MOL d         126.044 134.475  66.433  0.00  0.00     0.086 H 
ATOM     23  C14 MOL d         126.610 137.313  64.558  0.00  0.00    -0.083 A 
ATOM     24  H9  MOL d         127.911 135.982  65.696  0.00  0.00     0.083 H 
ATOM     25  C15 MOL d         125.274 137.577  64.151  0.00  0.00    -0.081 A 
ATOM     26  H10 MOL d         127.413 137.967  64.239  0.00  0.00     0.083 H 
ATOM     27  C16 MOL d         124.212 136.725  64.567  0.00  0.00    -0.057 A 
ATOM     28  H11 MOL d         125.062 138.433  63.519  0.00  0.00     0.083 H 
ATOM     29  H12 MOL d         123.197 136.939  64.252  0.00  0.00     0.086 H 
ENDBRANCH   9  19
BRANCH  10  30
ATOM     30  S   MOL d         122.996 132.477  64.037  0.00  0.00     0.138 S 
ATOM     31  O1  MOL d         122.878 131.288  63.222  0.00  0.00    -0.591 OA
ATOM     32  O2  MOL d         123.541 132.182  65.350  0.00  0.00    -0.591 OA
ATOM     33  O3  MOL d         123.964 133.578  63.296  0.00  0.00    -0.591 OA
ENDBRANCH  10  30
TORSDOF 2
ENDMDL
MODEL 4
REMARK VINA RESULT:      -5.6      1.608      5.374
REMARK  2 active torsions:
REMARK  status: ('A' for Active; 'I' for Inactive)
REMARK    1  A    between atoms: N_9  and  C11_13 
REMARK    2  A    between atoms: C9_11  and  S_10 
ROOT
ATOM      1  C1  MOL d         123.747 134.995  64.210  0.00  0.00     0.045 A 
ATOM      2  C2  MOL d         123.639 136.412  64.015  0.00  0.00    -0.056 A 
ATOM      3  C3  MOL d         124.727 137.268  64.258  0.00  0.00    -0.080 A 
ATOM      4  C4  MOL d         125.955 136.753  64.691  0.00  0.00    -0.072 A 
ATOM      5  C5  MOL d         126.143 135.363  64.901  0.00  0.00    -0.022 A 
ATOM      6  C6  MOL d         127.406 134.873  65.337  0.00  0.00    -0.072 A 
ATOM      7  C7  MOL d         127.624 133.506  65.553  0.00  0.00    -0.081 A 
ATOM      8  C8  MOL d         126.587 132.587  65.342  0.00  0.00    -0.058 A 
ATOM      9  N   MOL d         122.707 134.231  63.969  0.00  0.00    -0.355 N 
ATOM     10  C9  MOL d         125.307 133.010  64.909  0.00  0.00     0.094 A 
ATOM     11  C10 MOL d         125.032 134.426  64.665  0.00  0.00     0.025 A 
ATOM     12  H1  MOL d         122.700 136.831  63.674  0.00  0.00     0.086 H 
ATOM     13  H2  MOL d         124.614 138.335  64.108  0.00  0.00     0.083 H 
ATOM     14  H3  MOL d         126.781 137.431  64.871  0.00  0.00     0.084 H 
ATOM     15  H4  MOL d         128.217 135.572  65.505  0.00  0.00     0.084 H 
ATOM     16  H5  MOL d         128.596 133.159  65.884  0.00  0.00     0.083 H 
ATOM     17  H6  MOL d         126.769 131.533  65.514  0.00  0.00     0.086 H 
ATOM     18  H7  MOL d         122.855 133.452  63.312  0.00  0.00     0.166 HD
ENDROOT
BRANCH   9  19
ATOM     19  C11 MOL d         121.489 134.348  64.476  0.00  0.00     0.032 A 
ATOM     20  C12 MOL d         121.143 135.281  65.524  0.00  0.00    -0.057 A 
ATOM     21  C13 MOL d         119.808 135.344  66.029  0.00  0.00    -0.081 A 
ATOM     22  H8  MOL d         121.903 135.938  65.931  0.00  0.00     0.086 H 
ATOM     23  C14 MOL d         118.810 134.477  65.494  0.00  0.00    -0.083 A 
ATOM     24  H9  MOL d         119.556 136.046  66.814  0.00  0.00     0.083 H 
ATOM     25  C15 MOL d         119.144 133.559  64.462  0.00  0.00    -0.081 A 
ATOM     26  H10 MOL d         117.796 134.519  65.874  0.00  0.00     0.083 H 
ATOM     27  C16 MOL d         120.475 133.494  63.958  0.00  0.00    -0.057 A 
ATOM     28  H11 MOL d         118.382 132.903  64.056  0.00  0.00     0.083 H 
ATOM     29  H12 MOL d         120.717 132.787  63.173  0.00  0.00     0.086 H 
ENDBRANCH   9  19
BRANCH  10  30
ATOM     30  S   MOL d         124.094 131.721  64.701  0.00  0.00     0.138 S 
ATOM     31  O1  MOL d         123.011 131.923  65.637  0.00  0.00    -0.591 OA
ATOM     32  O2  MOL d         124.767 130.453  64.917  0.00  0.00    -0.591 OA
ATOM     33  O3  MOL d         123.525 131.762  63.159  0.00  0.00    -0.591 OA
ENDBRANCH  10  30
TORSDOF 2
ENDMDL
MODEL 5
REMARK VINA RESULT:      -5.2      2.064      5.799
REMARK  2 active torsions:
REMARK  status: ('A' for Active; 'I' for Inactive)
REMARK    1  A    between atoms: N_9  and  C11_13 
REMARK    2  A    between atoms: C9_11  and  S_10 
ROOT
ATOM      1  C1  MOL d         124.169 134.747  64.448  0.00  0.00     0.045 A 
ATOM      2  C2  MOL d         123.517 135.674  63.569  0.00  0.00    -0.056 A 
ATOM      3  C3  MOL d         123.619 137.062  63.763  0.00  0.00    -0.080 A 
ATOM      4  C4  MOL d         124.374 137.577  64.825  0.00  0.00    -0.072 A 
ATOM      5  C5  MOL d         125.053 136.727  65.733  0.00  0.00    -0.022 A 
ATOM      6  C6  MOL d         125.816 137.284  66.798  0.00  0.00    -0.072 A 
ATOM      7  C7  MOL d         126.498 136.471  67.712  0.00  0.00    -0.081 A 
ATOM      8  C8  MOL d         126.439 135.076  67.591  0.00  0.00    -0.058 A 
ATOM      9  N   MOL d         124.048 133.458  64.228  0.00  0.00    -0.355 N 
ATOM     10  C9  MOL d         125.698 134.458  66.556  0.00  0.00     0.094 A 
ATOM     11  C10 MOL d         124.972 135.264  65.574  0.00  0.00     0.025 A 
ATOM     12  H1  MOL d         122.933 135.296  62.738  0.00  0.00     0.086 H 
ATOM     13  H2  MOL d         123.110 137.738  63.087  0.00  0.00     0.083 H 
ATOM     14  H3  MOL d         124.441 138.651  64.955  0.00  0.00     0.084 H 
ATOM     15  H4  MOL d         125.870 138.362  66.904  0.00  0.00     0.084 H 
ATOM     16  H5  MOL d         127.073 136.921  68.513  0.00  0.00     0.083 H 
ATOM     17  H6  MOL d         126.970 134.458  68.306  0.00  0.00     0.086 H 
ATOM     18  H7  MOL d         124.926 132.926  64.143  0.00  0.00     0.166 HD
ENDROOT
BRANCH   9  19
ATOM     19  C11 MOL d         122.927 132.765  64.103  0.00  0.00     0.032 A 
ATOM     20  C12 MOL d         121.612 133.323  64.319  0.00  0.00    -0.057 A 
ATOM     21  C13 MOL d         120.446 132.510  64.175  0.00  0.00    -0.081 A 
ATOM     22  H8  MOL d         121.509 134.366  64.592  0.00  0.00     0.086 H 
ATOM     23  C14 MOL d         120.582 131.137  63.817  0.00  0.00    -0.083 A 
ATOM     24  H9  MOL d         119.463 132.936  64.337  0.00  0.00     0.083 H 
ATOM     25  C15 MOL d         121.874 130.583  63.603  0.00  0.00    -0.081 A 
ATOM     26  H10 MOL d         119.702 130.515  63.709  0.00  0.00     0.083 H 
ATOM     27  C16 MOL d         123.038 131.391  63.746  0.00  0.00    -0.057 A 
ATOM     28  H11 MOL d         121.974 129.539  63.328  0.00  0.00     0.083 H 
ATOM     29  H12 MOL d         124.017 130.956  63.583  0.00  0.00     0.086 H 
ENDBRANCH   9  19
BRANCH  10  30
ATOM     30  S   MOL d         125.711 132.675  66.548  0.00  0.00     0.138 S 
ATOM     31  O1  MOL d         124.363 132.184  66.726  0.00  0.00    -0.591 OA
ATOM     32  O2  MOL d         126.591 132.244  67.620  0.00  0.00    -0.591 OA
ATOM     33  O3  MOL d         126.323 132.149  65.117  0.00  0.00    -0.591 OA
ENDBRANCH  10  30
TORSDOF 2
ENDMDL
MODEL 6
REMARK VINA RESULT:      -5.1      1.707      5.260
REMARK  2 active torsions:
REMARK  status: ('A' for Active; 'I' for Inactive)
REMARK    1  A    between atoms: N_9  and  C11_13 
REMARK    2  A    between atoms: C9_11  and  S_10 
ROOT
ATOM      1  C1  MOL d         122.677 134.624  64.937  0.00  0.00     0.045 A 
ATOM      2  C2  MOL d         122.182 135.965  65.056  0.00  0.00    -0.056 A 
ATOM      3  C3  MOL d         122.764 136.883  65.946  0.00  0.00    -0.080 A 
ATOM      4  C4  MOL d         123.857 136.509  66.739  0.00  0.00    -0.072 A 
ATOM      5  C5  MOL d         124.407 135.204  66.675  0.00  0.00    -0.022 A 
ATOM      6  C6  MOL d         125.521 134.859  67.492  0.00  0.00    -0.072 A 
ATOM      7  C7  MOL d         126.087 133.579  67.452  0.00  0.00    -0.081 A 
ATOM      8  C8  MOL d         125.558 132.603  66.596  0.00  0.00    -0.058 A 
ATOM      9  N   MOL d         122.104 133.799  64.091  0.00  0.00    -0.355 N 
ATOM     10  C9  MOL d         124.452 132.881  65.759  0.00  0.00     0.094 A 
ATOM     11  C10 MOL d         123.828 134.205  65.761  0.00  0.00     0.025 A 
ATOM     12  H1  MOL d         121.341 136.277  64.446  0.00  0.00     0.086 H 
ATOM     13  H2  MOL d         122.365 137.888  66.019  0.00  0.00     0.083 H 
ATOM     14  H3  MOL d         124.291 137.234  67.418  0.00  0.00     0.084 H 
ATOM     15  H4  MOL d         125.940 135.603  68.159  0.00  0.00     0.084 H 
ATOM     16  H5  MOL d         126.936 133.342  68.084  0.00  0.00     0.083 H 
ATOM     17  H6  MOL d         126.005 131.616  66.576  0.00  0.00     0.086 H 
ATOM     18  H7  MOL d         122.723 133.349  63.402  0.00  0.00     0.166 HD
ENDROOT
BRANCH   9  19
ATOM     19  C11 MOL d         120.820 133.480  64.022  0.00  0.00     0.032 A 
ATOM     20  C12 MOL d         119.806 134.050  64.879  0.00  0.00    -0.057 A 
ATOM     21  C13 MOL d         118.441 133.649  64.755  0.00  0.00    -0.081 A 
ATOM     22  H8  MOL d         120.084 134.788  65.623  0.00  0.00     0.086 H 
ATOM     23  C14 MOL d         118.077 132.677  63.777  0.00  0.00    -0.083 A 
ATOM     24  H9  MOL d         117.686 134.082  65.400  0.00  0.00     0.083 H 
ATOM     25  C15 MOL d         119.071 132.114  62.930  0.00  0.00    -0.081 A 
ATOM     26  H10 MOL d         117.043 132.368  63.679  0.00  0.00     0.083 H 
ATOM     27  C16 MOL d         120.432 132.512  63.054  0.00  0.00    -0.057 A 
ATOM     28  H11 MOL d         118.790 131.377  62.186  0.00  0.00     0.083 H 
ATOM     29  H12 MOL d         121.181 132.073  62.404  0.00  0.00     0.086 H 
ENDBRANCH   9  19
BRANCH  10  30
ATOM     30  S   MOL d         123.890 131.530  64.740  0.00  0.00     0.138 S 
ATOM     31  O1  MOL d         122.566 131.128  65.162  0.00  0.00    -0.591 OA
ATOM     32  O2  MOL d         124.853 130.453  64.879  0.00  0.00    -0.591 OA
ATOM     33  O3  MOL d         123.862 132.016  63.171  0.00  0.00    -0.591 OA
ENDBRANCH  10  30
TORSDOF 2
ENDMDL
MODEL 7
REMARK VINA RESULT:      -4.8      1.234      1.849
REMARK  2 active torsions:
REMARK  status: ('A' for Active; 'I' for Inactive)
REMARK    1  A    between atoms: N_9  and  C11_13 
REMARK    2  A    between atoms: C9_11  and  S_10 
ROOT
ATOM      1  C1  MOL d         122.564 135.124  65.913  0.00  0.00     0.045 A 
ATOM      2  C2  MOL d         121.884 136.284  66.415  0.00  0.00    -0.056 A 
ATOM      3  C3  MOL d         120.537 136.534  66.101  0.00  0.00    -0.080 A 
ATOM      4  C4  MOL d         119.818 135.645  65.291  0.00  0.00    -0.072 A 
ATOM      5  C5  MOL d         120.418 134.475  64.762  0.00  0.00    -0.022 A 
ATOM      6  C6  MOL d         119.657 133.591  63.946  0.00  0.00    -0.072 A 
ATOM      7  C7  MOL d         120.219 132.426  63.409  0.00  0.00    -0.081 A 
ATOM      8  C8  MOL d         121.560 132.110  63.668  0.00  0.00    -0.058 A 
ATOM      9  N   MOL d         123.822 134.929  66.233  0.00  0.00    -0.355 N 
ATOM     10  C9  MOL d         122.372 132.947  64.470  0.00  0.00     0.094 A 
ATOM     11  C10 MOL d         121.829 134.171  65.059  0.00  0.00     0.025 A 
ATOM     12  H1  MOL d         122.420 136.981  67.048  0.00  0.00     0.086 H 
ATOM     13  H2  MOL d         120.051 137.422  66.489  0.00  0.00     0.083 H 
ATOM     14  H3  MOL d         118.780 135.858  65.064  0.00  0.00     0.084 H 
ATOM     15  H4  MOL d         118.619 133.823  63.737  0.00  0.00     0.084 H 
ATOM     16  H5  MOL d         119.618 131.769  62.792  0.00  0.00     0.083 H 
ATOM     17  H6  MOL d         121.984 131.206  63.244  0.00  0.00     0.086 H 
ATOM     18  H7  MOL d         124.048 134.019  66.661  0.00  0.00     0.166 HD
ENDROOT
BRANCH   9  19
ATOM     19  C11 MOL d         124.835 135.766  66.066  0.00  0.00     0.032 A 
ATOM     20  C12 MOL d         125.318 136.190  64.772  0.00  0.00    -0.057 A 
ATOM     21  C13 MOL d         126.424 137.089  64.669  0.00  0.00    -0.081 A 
ATOM     22  H8  MOL d         124.839 135.823  63.872  0.00  0.00     0.086 H 
ATOM     23  C14 MOL d         127.055 137.570  65.854  0.00  0.00    -0.083 A 
ATOM     24  H9  MOL d         126.781 137.404  63.696  0.00  0.00     0.083 H 
ATOM     25  C15 MOL d         126.583 137.156  67.129  0.00  0.00    -0.081 A 
ATOM     26  H10 MOL d         127.895 138.250  65.782  0.00  0.00     0.083 H 
ATOM     27  C16 MOL d         125.481 136.259  67.234  0.00  0.00    -0.057 A 
ATOM     28  H11 MOL d         127.063 137.526  68.028  0.00  0.00     0.083 H 
ATOM     29  H12 MOL d         125.132 135.950  68.212  0.00  0.00     0.086 H 
ENDBRANCH   9  19
BRANCH  10  30
ATOM     30  S   MOL d         124.058 132.412  64.692  0.00  0.00     0.138 S 
ATOM     31  O1  MOL d         124.228 131.100  64.108  0.00  0.00    -0.591 OA
ATOM     32  O2  MOL d         124.326 132.409  66.119  0.00  0.00    -0.591 OA
ATOM     33  O3  MOL d         125.063 133.491  63.967  0.00  0.00    -0.591 OA
ENDBRANCH  10  30
TORSDOF 2
ENDMDL
MODEL 8
REMARK VINA RESULT:      -4.4      1.829      5.472
REMARK  2 active torsions:
REMARK  status: ('A' for Active; 'I' for Inactive)
REMARK    1  A    between atoms: N_9  and  C11_13 
REMARK    2  A    between atoms: C9_11  and  S_10 
ROOT
ATOM      1  C1  MOL d         123.234 134.829  64.864  0.00  0.00     0.045 A 
ATOM      2  C2  MOL d         122.335 135.890  64.513  0.00  0.00    -0.056 A 
ATOM      3  C3  MOL d         122.385 137.135  65.163  0.00  0.00    -0.080 A 
ATOM      4  C4  MOL d         123.327 137.374  66.172  0.00  0.00    -0.072 A 
ATOM      5  C5  MOL d         124.252 136.378  66.572  0.00  0.00    -0.022 A 
ATOM      6  C6  MOL d         125.199 136.655  67.599  0.00  0.00    -0.072 A 
ATOM      7  C7  MOL d         126.127 135.693  68.017  0.00  0.00    -0.081 A 
ATOM      8  C8  MOL d         126.137 134.423  67.424  0.00  0.00    -0.058 A 
ATOM      9  N   MOL d         123.154 133.682  64.230  0.00  0.00    -0.355 N 
ATOM     10  C9  MOL d         125.222 134.082  66.399  0.00  0.00     0.094 A 
ATOM     11  C10 MOL d         124.237 135.055  65.924  0.00  0.00     0.025 A 
ATOM     12  H1  MOL d         121.603 135.729  63.730  0.00  0.00     0.086 H 
ATOM     13  H2  MOL d         121.689 137.917  64.880  0.00  0.00     0.083 H 
ATOM     14  H3  MOL d         123.347 138.342  66.659  0.00  0.00     0.084 H 
ATOM     15  H4  MOL d         125.202 137.633  68.067  0.00  0.00     0.084 H 
ATOM     16  H5  MOL d         126.838 135.930  68.799  0.00  0.00     0.083 H 
ATOM     17  H6  MOL d         126.859 133.686  67.757  0.00  0.00     0.086 H 
ATOM     18  H7  MOL d         124.023 133.339  63.796  0.00  0.00     0.166 HD
ENDROOT
BRANCH   9  19
ATOM     19  C11 MOL d         122.084 132.915  64.085  0.00  0.00     0.032 A 
ATOM     20  C12 MOL d         122.122 131.586  63.518  0.00  0.00    -0.057 A 
ATOM     21  C13 MOL d         120.924 130.820  63.383  0.00  0.00    -0.081 A 
ATOM     22  H8  MOL d         123.067 131.168  63.193  0.00  0.00     0.086 H 
ATOM     23  C14 MOL d         119.681 131.373  63.810  0.00  0.00    -0.083 A 
ATOM     24  H9  MOL d         120.960 129.824  62.958  0.00  0.00     0.083 H 
ATOM     25  C15 MOL d         119.638 132.680  64.368  0.00  0.00    -0.081 A 
ATOM     26  H10 MOL d         118.768 130.798  63.708  0.00  0.00     0.083 H 
ATOM     27  C16 MOL d         120.831 133.445  64.503  0.00  0.00    -0.057 A 
ATOM     28  H11 MOL d         118.692 133.096  64.694  0.00  0.00     0.083 H 
ATOM     29  H12 MOL d         120.785 134.441  64.929  0.00  0.00     0.086 H 
ENDBRANCH   9  19
BRANCH  10  30
ATOM     30  S   MOL d         125.354 132.424  65.758  0.00  0.00     0.138 S 
ATOM     31  O1  MOL d         126.484 131.761  66.371  0.00  0.00    -0.591 OA
ATOM     32  O2  MOL d         125.502 132.526  64.318  0.00  0.00    -0.591 OA
ATOM     33  O3  MOL d         123.968 131.607  66.091  0.00  0.00    -0.591 OA
ENDBRANCH  10  30
TORSDOF 2
ENDMDL
