MODEL 1
REMARK VINA RESULT:      -7.2      0.000      0.000
REMARK  5 active torsions:
REMARK  status: ('A' for Active; 'I' for Inactive)
REMARK    1  A    between atoms: C2_2  and  O2_12 
REMARK    2  A    between atoms: C3_4  and  O3_11 
REMARK    3  A    between atoms: C4_5  and  O4_13 
REMARK    4  A    between atoms: C5_6  and  C6_7 
REMARK    5  A    between atoms: C6_7  and  O6_14 
ROOT
ATOM      1  C1  GIM d          30.171  65.835   9.830  0.00  0.00     0.138 A 
ATOM      2  C2  GIM d          31.471  65.280   9.244  0.00  0.00     0.119 C 
ATOM      3  N10 GIM d          29.307  66.510   8.988  0.00  0.00    -0.332 N 
ATOM      4  C3  GIM d          32.034  66.337   8.291  0.00  0.00     0.093 C 
ATOM      5  C4  GIM d          31.053  66.505   7.147  0.00  0.00     0.085 C 
ATOM      6  C5  GIM d          29.620  66.851   7.592  0.00  0.00     0.065 C 
ATOM      7  C7  GIM d          28.478  66.435  11.007  0.00  0.00     0.019 A 
ATOM      8  C8  GIM d          28.235  66.839   9.758  0.00  0.00    -0.001 A 
ATOM      9  N1  GIM d          29.667  65.804  11.043  0.00  0.00    -0.243 NA
ATOM     10  H1  GIM d          31.214  64.389   8.653  0.00  0.00     0.099 H 
ATOM     11  H2  GIM d          32.205  67.295   8.804  0.00  0.00     0.091 H 
ATOM     12  H3  GIM d          31.030  65.567   6.572  0.00  0.00     0.090 H 
ATOM     13  H4  GIM d          29.479  67.936   7.481  0.00  0.00     0.080 H 
ATOM     14  H7  GIM d          27.820  66.591  11.860  0.00  0.00     0.117 H 
ATOM     15  H8  GIM d          27.333  67.344   9.415  0.00  0.00     0.113 H 
ENDROOT
BRANCH   6  16
ATOM     16  C6  GIM d          28.667  66.113   6.612  0.00  0.00     0.038 C 
ATOM     17  H5  GIM d          28.496  66.737   5.723  0.00  0.00     0.077 H 
ATOM     18  H6  GIM d          27.706  65.915   7.111  0.00  0.00     0.077 H 
BRANCH  16  19
ATOM     19  O6  GIM d          29.270  64.870   6.219  0.00  0.00    -0.399 OA
ATOM     20  H12 GIM d          29.398  64.324   6.986  0.00  0.00     0.209 HD
ENDBRANCH  16  19
ENDBRANCH   6  16
BRANCH   5  21
ATOM     21  O4  GIM d          31.479  67.583   6.301  0.00  0.00    -0.391 OA
ATOM     22  H11 GIM d          31.468  68.394   6.795  0.00  0.00     0.210 HD
ENDBRANCH   5  21
BRANCH   4  23
ATOM     23  O3  GIM d          33.281  65.777   7.783  0.00  0.00    -0.390 OA
ATOM     24  H9  GIM d          33.799  66.468   7.387  0.00  0.00     0.210 HD
ENDBRANCH   4  23
BRANCH   2  25
ATOM     25  O2  GIM d          32.420  64.873  10.196  0.00  0.00    -0.385 OA
ATOM     26  H10 GIM d          33.293  65.056   9.869  0.00  0.00     0.210 HD
ENDBRANCH   2  25
TORSDOF 5
ENDMDL
MODEL 2
REMARK VINA RESULT:      -6.1      1.643      3.467
REMARK  5 active torsions:
REMARK  status: ('A' for Active; 'I' for Inactive)
REMARK    1  A    between atoms: C2_2  and  O2_12 
REMARK    2  A    between atoms: C3_4  and  O3_11 
REMARK    3  A    between atoms: C4_5  and  O4_13 
REMARK    4  A    between atoms: C5_6  and  C6_7 
REMARK    5  A    between atoms: C6_7  and  O6_14 
ROOT
ATOM      1  C1  GIM d          29.380  66.361   7.365  0.00  0.00     0.138 A 
ATOM      2  C2  GIM d          30.850  66.771   7.266  0.00  0.00     0.119 C 
ATOM      3  N10 GIM d          28.911  65.882   8.575  0.00  0.00    -0.332 N 
ATOM      4  C3  GIM d          31.672  65.724   8.021  0.00  0.00     0.093 C 
ATOM      5  C4  GIM d          31.278  65.787   9.484  0.00  0.00     0.085 C 
ATOM      6  C5  GIM d          29.769  65.612   9.738  0.00  0.00     0.065 C 
ATOM      7  C7  GIM d          27.295  65.913   7.107  0.00  0.00     0.019 A 
ATOM      8  C8  GIM d          27.586  65.648   8.382  0.00  0.00    -0.001 A 
ATOM      9  N1  GIM d          28.401  66.366   6.488  0.00  0.00    -0.243 NA
ATOM     10  H1  GIM d          30.961  67.734   7.786  0.00  0.00     0.099 H 
ATOM     11  H2  GIM d          31.512  64.714   7.615  0.00  0.00     0.091 H 
ATOM     12  H3  GIM d          31.596  66.761   9.885  0.00  0.00     0.090 H 
ATOM     13  H4  GIM d          29.591  64.569  10.041  0.00  0.00     0.080 H 
ATOM     14  H7  GIM d          26.319  65.784   6.642  0.00  0.00     0.117 H 
ATOM     15  H8  GIM d          26.882  65.303   9.139  0.00  0.00     0.113 H 
ENDROOT
BRANCH   6  16
ATOM     16  C6  GIM d          29.413  66.551  10.923  0.00  0.00     0.038 C 
ATOM     17  H5  GIM d          29.183  67.557  10.540  0.00  0.00     0.077 H 
ATOM     18  H6  GIM d          30.265  66.609  11.617  0.00  0.00     0.077 H 
BRANCH  16  19
ATOM     19  O6  GIM d          28.267  66.024  11.610  0.00  0.00    -0.399 OA
ATOM     20  H12 GIM d          28.042  65.177  11.245  0.00  0.00     0.209 HD
ENDBRANCH  16  19
ENDBRANCH   6  16
BRANCH   5  21
ATOM     21  O4  GIM d          31.929  64.730  10.203  0.00  0.00    -0.391 OA
ATOM     22  H11 GIM d          32.340  64.135   9.587  0.00  0.00     0.210 HD
ENDBRANCH   5  21
BRANCH   4  23
ATOM     23  O3  GIM d          33.062  66.141   7.874  0.00  0.00    -0.390 OA
ATOM     24  H9  GIM d          33.513  65.537   7.296  0.00  0.00     0.210 HD
ENDBRANCH   4  23
BRANCH   2  25
ATOM     25  O2  GIM d          31.321  66.964   5.957  0.00  0.00    -0.385 OA
ATOM     26  H10 GIM d          31.036  66.243   5.410  0.00  0.00     0.210 HD
ENDBRANCH   2  25
TORSDOF 5
ENDMDL
MODEL 3
REMARK VINA RESULT:      -5.8      1.800      3.645
REMARK  5 active torsions:
REMARK  status: ('A' for Active; 'I' for Inactive)
REMARK    1  A    between atoms: C2_2  and  O2_12 
REMARK    2  A    between atoms: C3_4  and  O3_11 
REMARK    3  A    between atoms: C4_5  and  O4_13 
REMARK    4  A    between atoms: C5_6  and  C6_7 
REMARK    5  A    between atoms: C6_7  and  O6_14 
ROOT
ATOM      1  C1  GIM d          30.541  66.255   7.603  0.00  0.00     0.138 A 
ATOM      2  C2  GIM d          31.708  66.272   8.592  0.00  0.00     0.119 C 
ATOM      3  N10 GIM d          29.262  66.079   8.098  0.00  0.00    -0.332 N 
ATOM      4  C3  GIM d          31.453  65.169   9.622  0.00  0.00     0.093 C 
ATOM      5  C4  GIM d          30.197  65.528  10.392  0.00  0.00     0.085 C 
ATOM      6  C5  GIM d          28.962  65.769   9.504  0.00  0.00     0.065 C 
ATOM      7  C7  GIM d          29.199  66.306   5.927  0.00  0.00     0.019 A 
ATOM      8  C8  GIM d          28.442  66.156   7.016  0.00  0.00    -0.001 A 
ATOM      9  N1  GIM d          30.491  66.381   6.295  0.00  0.00    -0.243 NA
ATOM     10  H1  GIM d          31.685  67.239   9.114  0.00  0.00     0.099 H 
ATOM     11  H2  GIM d          31.350  64.183   9.143  0.00  0.00     0.091 H 
ATOM     12  H3  GIM d          30.399  66.439  10.974  0.00  0.00     0.090 H 
ATOM     13  H4  GIM d          28.349  64.855   9.514  0.00  0.00     0.080 H 
ATOM     14  H7  GIM d          28.829  66.359   4.905  0.00  0.00     0.117 H 
ATOM     15  H8  GIM d          27.354  66.104   7.035  0.00  0.00     0.113 H 
ENDROOT
BRANCH   6  16
ATOM     16  C6  GIM d          28.162  66.922  10.170  0.00  0.00     0.038 C 
ATOM     17  H5  GIM d          27.113  66.881   9.841  0.00  0.00     0.077 H 
ATOM     18  H6  GIM d          28.600  67.889   9.880  0.00  0.00     0.077 H 
BRANCH  16  19
ATOM     19  O6  GIM d          28.225  66.772  11.597  0.00  0.00    -0.399 OA
ATOM     20  H12 GIM d          27.386  67.005  11.976  0.00  0.00     0.209 HD
ENDBRANCH  16  19
ENDBRANCH   6  16
BRANCH   5  21
ATOM     21  O4  GIM d          29.850  64.453  11.276  0.00  0.00    -0.391 OA
ATOM     22  H11 GIM d          29.781  63.646  10.780  0.00  0.00     0.210 HD
ENDBRANCH   5  21
BRANCH   4  23
ATOM     23  O3  GIM d          32.601  65.205  10.522  0.00  0.00    -0.390 OA
ATOM     24  H9  GIM d          32.880  64.317  10.712  0.00  0.00     0.210 HD
ENDBRANCH   4  23
BRANCH   2  25
ATOM     25  O2  GIM d          32.979  66.159   8.006  0.00  0.00    -0.385 OA
ATOM     26  H10 GIM d          32.885  65.917   7.093  0.00  0.00     0.210 HD
ENDBRANCH   2  25
TORSDOF 5
ENDMDL
MODEL 4
REMARK VINA RESULT:      -4.8      2.084      4.604
REMARK  5 active torsions:
REMARK  status: ('A' for Active; 'I' for Inactive)
REMARK    1  A    between atoms: C2_2  and  O2_12 
REMARK    2  A    between atoms: C3_4  and  O3_11 
REMARK    3  A    between atoms: C4_5  and  O4_13 
REMARK    4  A    between atoms: C5_6  and  C6_7 
REMARK    5  A    between atoms: C6_7  and  O6_14 
ROOT
ATOM      1  C1  GIM d          29.692  66.256   7.476  0.00  0.00     0.138 A 
ATOM      2  C2  GIM d          28.363  65.897   8.145  0.00  0.00     0.119 C 
ATOM      3  N10 GIM d          30.842  66.225   8.243  0.00  0.00    -0.332 N 
ATOM      4  C3  GIM d          28.354  66.550   9.529  0.00  0.00     0.093 C 
ATOM      5  C4  GIM d          29.462  65.920  10.350  0.00  0.00     0.085 C 
ATOM      6  C5  GIM d          30.854  66.002   9.696  0.00  0.00     0.065 C 
ATOM      7  C7  GIM d          31.325  66.797   6.192  0.00  0.00     0.019 A 
ATOM      8  C8  GIM d          31.854  66.534   7.389  0.00  0.00    -0.001 A 
ATOM      9  N1  GIM d          29.993  66.611   6.247  0.00  0.00    -0.243 NA
ATOM     10  H1  GIM d          28.345  64.806   8.281  0.00  0.00     0.099 H 
ATOM     11  H2  GIM d          28.486  67.640   9.464  0.00  0.00     0.091 H 
ATOM     12  H3  GIM d          29.209  64.863  10.518  0.00  0.00     0.090 H 
ATOM     13  H4  GIM d          31.399  66.843  10.152  0.00  0.00     0.080 H 
ATOM     14  H7  GIM d          31.883  67.113   5.311  0.00  0.00     0.117 H 
ATOM     15  H8  GIM d          32.914  66.562   7.638  0.00  0.00     0.113 H 
ENDROOT
BRANCH   6  16
ATOM     16  C6  GIM d          31.582  64.676  10.050  0.00  0.00     0.038 C 
ATOM     17  H5  GIM d          31.627  64.031   9.160  0.00  0.00     0.077 H 
ATOM     18  H6  GIM d          31.035  64.158  10.852  0.00  0.00     0.077 H 
BRANCH  16  19
ATOM     19  O6  GIM d          32.915  64.978  10.493  0.00  0.00    -0.399 OA
ATOM     20  H12 GIM d          33.207  64.305  11.096  0.00  0.00     0.209 HD
ENDBRANCH  16  19
ENDBRANCH   6  16
BRANCH   5  21
ATOM     21  O4  GIM d          29.573  66.599  11.610  0.00  0.00    -0.391 OA
ATOM     22  H11 GIM d          28.707  66.843  11.914  0.00  0.00     0.210 HD
ENDBRANCH   5  21
BRANCH   4  23
ATOM     23  O3  GIM d          27.062  66.206  10.112  0.00  0.00    -0.390 OA
ATOM     24  H9  GIM d          26.371  66.643   9.630  0.00  0.00     0.210 HD
ENDBRANCH   4  23
BRANCH   2  25
ATOM     25  O2  GIM d          27.220  66.230   7.400  0.00  0.00    -0.385 OA
ATOM     26  H10 GIM d          27.353  67.069   6.977  0.00  0.00     0.210 HD
ENDBRANCH   2  25
TORSDOF 5
ENDMDL
MODEL 5
REMARK VINA RESULT:      -4.5      1.389      3.408
REMARK  5 active torsions:
REMARK  status: ('A' for Active; 'I' for Inactive)
REMARK    1  A    between atoms: C2_2  and  O2_12 
REMARK    2  A    between atoms: C3_4  and  O3_11 
REMARK    3  A    between atoms: C4_5  and  O4_13 
REMARK    4  A    between atoms: C5_6  and  C6_7 
REMARK    5  A    between atoms: C6_7  and  O6_14 
ROOT
ATOM      1  C1  GIM d          28.927  65.956   8.533  0.00  0.00     0.138 A 
ATOM      2  C2  GIM d          29.491  66.937   7.504  0.00  0.00     0.119 C 
ATOM      3  N10 GIM d          29.803  65.364   9.425  0.00  0.00    -0.332 N 
ATOM      4  C3  GIM d          30.803  66.350   6.979  0.00  0.00     0.093 C 
ATOM      5  C4  GIM d          31.783  66.288   8.135  0.00  0.00     0.085 C 
ATOM      6  C5  GIM d          31.265  65.510   9.358  0.00  0.00     0.065 C 
ATOM      7  C7  GIM d          27.767  64.676   9.809  0.00  0.00     0.019 A 
ATOM      8  C8  GIM d          29.028  64.595  10.235  0.00  0.00    -0.001 A 
ATOM      9  N1  GIM d          27.707  65.528   8.768  0.00  0.00    -0.243 NA
ATOM     10  H1  GIM d          29.722  67.874   8.030  0.00  0.00     0.099 H 
ATOM     11  H2  GIM d          30.653  65.352   6.539  0.00  0.00     0.091 H 
ATOM     12  H3  GIM d          32.019  67.317   8.441  0.00  0.00     0.090 H 
ATOM     13  H4  GIM d          31.694  64.497   9.329  0.00  0.00     0.080 H 
ATOM     14  H7  GIM d          26.920  64.139  10.234  0.00  0.00     0.117 H 
ATOM     15  H8  GIM d          29.377  64.012  11.087  0.00  0.00     0.113 H 
ENDROOT
BRANCH   6  16
ATOM     16  C6  GIM d          31.806  66.253  10.611  0.00  0.00     0.038 C 
ATOM     17  H5  GIM d          31.116  66.107  11.454  0.00  0.00     0.077 H 
ATOM     18  H6  GIM d          31.895  67.328  10.392  0.00  0.00     0.077 H 
BRANCH  16  19
ATOM     19  O6  GIM d          33.098  65.722  10.948  0.00  0.00    -0.399 OA
ATOM     20  H12 GIM d          33.765  66.163  10.436  0.00  0.00     0.209 HD
ENDBRANCH  16  19
ENDBRANCH   6  16
BRANCH   5  21
ATOM     21  O4  GIM d          32.981  65.619   7.715  0.00  0.00    -0.391 OA
ATOM     22  H11 GIM d          33.483  65.362   8.479  0.00  0.00     0.210 HD
ENDBRANCH   5  21
BRANCH   4  23
ATOM     23  O3  GIM d          31.285  67.301   5.984  0.00  0.00    -0.390 OA
ATOM     24  H9  GIM d          31.603  66.829   5.224  0.00  0.00     0.210 HD
ENDBRANCH   4  23
BRANCH   2  25
ATOM     25  O2  GIM d          28.610  67.268   6.461  0.00  0.00    -0.385 OA
ATOM     26  H10 GIM d          28.059  66.520   6.265  0.00  0.00     0.210 HD
ENDBRANCH   2  25
TORSDOF 5
ENDMDL
MODEL 6
REMARK VINA RESULT:      -4.2      1.993      3.638
REMARK  5 active torsions:
REMARK  status: ('A' for Active; 'I' for Inactive)
REMARK    1  A    between atoms: C2_2  and  O2_12 
REMARK    2  A    between atoms: C3_4  and  O3_11 
REMARK    3  A    between atoms: C4_5  and  O4_13 
REMARK    4  A    between atoms: C5_6  and  C6_7 
REMARK    5  A    between atoms: C6_7  and  O6_14 
ROOT
ATOM      1  C1  GIM d          28.435  65.545   8.257  0.00  0.00     0.138 A 
ATOM      2  C2  GIM d          28.683  64.729   9.528  0.00  0.00     0.119 C 
ATOM      3  N10 GIM d          29.511  66.180   7.665  0.00  0.00    -0.332 N 
ATOM      4  C3  GIM d          29.652  65.525  10.404  0.00  0.00     0.093 C 
ATOM      5  C4  GIM d          30.972  65.630   9.665  0.00  0.00     0.085 C 
ATOM      6  C5  GIM d          30.857  66.237   8.254  0.00  0.00     0.065 C 
ATOM      7  C7  GIM d          27.694  66.557   6.515  0.00  0.00     0.019 A 
ATOM      8  C8  GIM d          29.010  66.775   6.549  0.00  0.00    -0.001 A 
ATOM      9  N1  GIM d          27.347  65.787   7.562  0.00  0.00    -0.243 NA
ATOM     10  H1  GIM d          29.180  63.795   9.230  0.00  0.00     0.099 H 
ATOM     11  H2  GIM d          29.256  66.524  10.642  0.00  0.00     0.091 H 
ATOM     12  H3  GIM d          31.403  64.622   9.585  0.00  0.00     0.090 H 
ATOM     13  H4  GIM d          31.145  67.297   8.312  0.00  0.00     0.080 H 
ATOM     14  H7  GIM d          27.010  66.942   5.759  0.00  0.00     0.117 H 
ATOM     15  H8  GIM d          29.584  67.333   5.811  0.00  0.00     0.113 H 
ENDROOT
BRANCH   6  16
ATOM     16  C6  GIM d          31.885  65.481   7.368  0.00  0.00     0.038 C 
ATOM     17  H5  GIM d          31.692  65.703   6.308  0.00  0.00     0.077 H 
ATOM     18  H6  GIM d          31.792  64.398   7.538  0.00  0.00     0.077 H 
BRANCH  16  19
ATOM     19  O6  GIM d          33.210  65.912   7.717  0.00  0.00    -0.399 OA
ATOM     20  H12 GIM d          33.843  65.284   7.387  0.00  0.00     0.209 HD
ENDBRANCH  16  19
ENDBRANCH   6  16
BRANCH   5  21
ATOM     21  O4  GIM d          31.866  66.484  10.395  0.00  0.00    -0.391 OA
ATOM     22  H11 GIM d          32.010  66.122  11.261  0.00  0.00     0.210 HD
ENDBRANCH   5  21
BRANCH   4  23
ATOM     23  O3  GIM d          29.833  64.725  11.610  0.00  0.00    -0.390 OA
ATOM     24  H9  GIM d          29.589  63.825  11.431  0.00  0.00     0.210 HD
ENDBRANCH   4  23
BRANCH   2  25
ATOM     25  O2  GIM d          27.522  64.363  10.229  0.00  0.00    -0.385 OA
ATOM     26  H10 GIM d          27.306  63.460  10.030  0.00  0.00     0.210 HD
ENDBRANCH   2  25
TORSDOF 5
ENDMDL
