REMARK  11 active torsions:
REMARK  status: ('A' for Active; 'I' for Inactive)
REMARK    1  A    between atoms: C1_3  and  C2_4 
REMARK    2  A    between atoms: C2_4  and  C3_5 
REMARK    3  A    between atoms: C3_5  and  C4_6 
REMARK    4  A    between atoms: C4_6  and  C5_7 
REMARK    5  A    between atoms: C5_7  and  C6_8 
REMARK    6  A    between atoms: C6_8  and  C7_9 
REMARK    7  A    between atoms: C7_9  and  C8_10 
REMARK    8  A    between atoms: C8_10  and  C9_11 
REMARK    9  A    between atoms: C9_11  and  C10_12 
REMARK   10  A    between atoms: C10_12  and  C11_13 
REMARK   11  A    between atoms: C11_13  and  C12_14 
ROOT
ATOM      1  C7  DAO d          -2.648  12.107  18.676  0.00  0.00    -0.065 C 
ATOM      2  H11 DAO d          -1.597  12.102  18.352  0.00  0.00     0.033 H 
ATOM      3  H12 DAO d          -2.694  12.197  19.771  0.00  0.00     0.033 H 
ENDROOT
BRANCH   1   4
ATOM      4  C6  DAO d          -3.294  10.780  18.265  0.00  0.00    -0.065 C 
ATOM      5  H9  DAO d          -4.349  10.773  18.576  0.00  0.00     0.033 H 
ATOM      6  H10 DAO d          -3.233  10.665  17.173  0.00  0.00     0.033 H 
BRANCH   4   7
ATOM      7  C5  DAO d          -2.558   9.632  18.939  0.00  0.00    -0.065 C 
ATOM      8  H7  DAO d          -1.568   9.531  18.471  0.00  0.00     0.033 H 
ATOM      9  H8  DAO d          -2.437   9.874  20.005  0.00  0.00     0.033 H 
BRANCH   7  10
ATOM     10  C4  DAO d          -3.285   8.295  18.826  0.00  0.00    -0.065 C 
ATOM     11  H5  DAO d          -4.331   8.432  19.139  0.00  0.00     0.033 H 
ATOM     12  H6  DAO d          -3.257   7.963  17.778  0.00  0.00     0.033 H 
BRANCH  10  13
ATOM     13  C3  DAO d          -2.642   7.213  19.706  0.00  0.00    -0.056 C 
ATOM     14  H3  DAO d          -1.623   7.532  19.972  0.00  0.00     0.033 H 
ATOM     15  H4  DAO d          -3.241   7.099  20.622  0.00  0.00     0.033 H 
BRANCH  13  16
ATOM     16  C2  DAO d          -2.565   5.858  18.995  0.00  0.00     0.016 C 
ATOM     17  H1  DAO d          -3.417   5.244  19.322  0.00  0.00     0.049 H 
ATOM     18  H2  DAO d          -2.632   6.029  17.910  0.00  0.00     0.049 H 
BRANCH  16  19
ATOM     19  C1  DAO d          -1.278   5.093  19.285  0.00  0.00     0.172 C 
ATOM     20  O1  DAO d          -1.272   3.838  19.209  0.00  0.00    -0.648 OA
ATOM     21  O2  DAO d          -0.233   5.714  19.584  0.00  0.00    -0.648 OA
ENDBRANCH  16  19
ENDBRANCH  13  16
ENDBRANCH  10  13
ENDBRANCH   7  10
ENDBRANCH   4   7
ENDBRANCH   1   4
BRANCH   1  22
ATOM     22  C8  DAO d          -3.344  13.315  18.057  0.00  0.00    -0.065 C 
ATOM     23  H13 DAO d          -4.094  13.694  18.766  0.00  0.00     0.033 H 
ATOM     24  H14 DAO d          -3.843  13.000  17.129  0.00  0.00     0.033 H 
BRANCH  22  25
ATOM     25  C9  DAO d          -2.369  14.429  17.734  0.00  0.00    -0.065 C 
ATOM     26  H15 DAO d          -1.999  14.283  16.708  0.00  0.00     0.033 H 
ATOM     27  H16 DAO d          -1.527  14.371  18.439  0.00  0.00     0.033 H 
BRANCH  25  28
ATOM     28  C10 DAO d          -2.989  15.824  17.832  0.00  0.00    -0.065 C 
ATOM     29  H17 DAO d          -2.216  16.539  18.149  0.00  0.00     0.033 H 
ATOM     30  H18 DAO d          -3.799  15.806  18.576  0.00  0.00     0.033 H 
BRANCH  28  31
ATOM     31  C11 DAO d          -3.554  16.265  16.498  0.00  0.00    -0.069 C 
ATOM     32  H19 DAO d          -4.525  15.774  16.334  0.00  0.00     0.032 H 
ATOM     33  H20 DAO d          -2.858  15.979  15.696  0.00  0.00     0.032 H 
BRANCH  31  34
ATOM     34  C12 DAO d          -3.743  17.762  16.484  0.00  0.00    -0.077 C 
ATOM     35  H21 DAO d          -4.153  18.071  15.511  0.00  0.00     0.027 H 
ATOM     36  H22 DAO d          -2.773  18.256  16.646  0.00  0.00     0.027 H 
ATOM     37  H23 DAO d          -4.440  18.051  17.284  0.00  0.00     0.027 H 
ENDBRANCH  31  34
ENDBRANCH  28  31
ENDBRANCH  25  28
ENDBRANCH  22  25
ENDBRANCH   1  22
TORSDOF 11
