MODEL 1
REMARK VINA RESULT:      -6.0      0.000      0.000
REMARK  11 active torsions:
REMARK  status: ('A' for Active; 'I' for Inactive)
REMARK    1  A    between atoms: C1_3  and  C2_4 
REMARK    2  A    between atoms: C2_4  and  C3_5 
REMARK    3  A    between atoms: C3_5  and  C4_6 
REMARK    4  A    between atoms: C4_6  and  C5_7 
REMARK    5  A    between atoms: C5_7  and  C6_8 
REMARK    6  A    between atoms: C6_8  and  C7_9 
REMARK    7  A    between atoms: C7_9  and  C8_10 
REMARK    8  A    between atoms: C8_10  and  C9_11 
REMARK    9  A    between atoms: C9_11  and  C10_12 
REMARK   10  A    between atoms: C10_12  and  C11_13 
REMARK   11  A    between atoms: C11_13  and  C12_14 
ROOT
ATOM      1  C7  DAO d          -3.195  12.854  18.005  0.00  0.00    -0.065 C 
ATOM      2  H11 DAO d          -3.977  12.672  18.756  0.00  0.00     0.033 H 
ATOM      3  H12 DAO d          -3.311  12.143  17.174  0.00  0.00     0.033 H 
ENDROOT
BRANCH   1   4
ATOM      4  C6  DAO d          -1.827  12.628  18.657  0.00  0.00    -0.065 C 
ATOM      5  H9  DAO d          -1.037  13.020  17.999  0.00  0.00     0.033 H 
ATOM      6  H10 DAO d          -1.791  13.151  19.624  0.00  0.00     0.033 H 
BRANCH   4   7
ATOM      7  C5  DAO d          -1.613  11.138  18.876  0.00  0.00    -0.065 C 
ATOM      8  H7  DAO d          -0.576  10.980  19.205  0.00  0.00     0.033 H 
ATOM      9  H8  DAO d          -2.304  10.799  19.662  0.00  0.00     0.033 H 
BRANCH   7  10
ATOM     10  C4  DAO d          -1.857  10.300  17.624  0.00  0.00    -0.065 C 
ATOM     11  H5  DAO d          -2.764  10.667  17.122  0.00  0.00     0.033 H 
ATOM     12  H6  DAO d          -0.995  10.410  16.950  0.00  0.00     0.033 H 
BRANCH  10  13
ATOM     13  C3  DAO d          -2.040   8.811  17.954  0.00  0.00    -0.056 C 
ATOM     14  H3  DAO d          -2.911   8.430  17.400  0.00  0.00     0.033 H 
ATOM     15  H4  DAO d          -1.138   8.265  17.640  0.00  0.00     0.033 H 
BRANCH  13  16
ATOM     16  C2  DAO d          -2.266   8.573  19.451  0.00  0.00     0.016 C 
ATOM     17  H1  DAO d          -1.649   9.288  20.014  0.00  0.00     0.049 H 
ATOM     18  H2  DAO d          -3.328   8.749  19.676  0.00  0.00     0.049 H 
BRANCH  16  19
ATOM     19  C1  DAO d          -1.904   7.162  19.902  0.00  0.00     0.172 C 
ATOM     20  O1  DAO d          -2.717   6.507  20.603  0.00  0.00    -0.648 OA
ATOM     21  O2  DAO d          -0.810   6.656  19.563  0.00  0.00    -0.648 OA
ENDBRANCH  16  19
ENDBRANCH  13  16
ENDBRANCH  10  13
ENDBRANCH   7  10
ENDBRANCH   4   7
ENDBRANCH   1   4
BRANCH   1  22
ATOM     22  C8  DAO d          -3.359  14.270  17.462  0.00  0.00    -0.065 C 
ATOM     23  H13 DAO d          -4.283  14.702  17.873  0.00  0.00     0.033 H 
ATOM     24  H14 DAO d          -3.433  14.223  16.366  0.00  0.00     0.033 H 
BRANCH  22  25
ATOM     25  C9  DAO d          -2.193  15.161  17.836  0.00  0.00    -0.065 C 
ATOM     26  H15 DAO d          -1.390  15.016  17.097  0.00  0.00     0.033 H 
ATOM     27  H16 DAO d          -1.832  14.865  18.832  0.00  0.00     0.033 H 
BRANCH  25  28
ATOM     28  C10 DAO d          -2.553  16.648  17.874  0.00  0.00    -0.065 C 
ATOM     29  H17 DAO d          -1.776  17.219  17.347  0.00  0.00     0.033 H 
ATOM     30  H18 DAO d          -2.606  16.979  18.921  0.00  0.00     0.033 H 
BRANCH  28  31
ATOM     31  C11 DAO d          -3.890  16.902  17.208  0.00  0.00    -0.069 C 
ATOM     32  H19 DAO d          -4.635  17.159  17.976  0.00  0.00     0.032 H 
ATOM     33  H20 DAO d          -4.210  15.994  16.677  0.00  0.00     0.032 H 
BRANCH  31  34
ATOM     34  C12 DAO d          -3.772  18.040  16.225  0.00  0.00    -0.077 C 
ATOM     35  H21 DAO d          -4.267  17.763  15.282  0.00  0.00     0.027 H 
ATOM     36  H22 DAO d          -2.709  18.251  16.033  0.00  0.00     0.027 H 
ATOM     37  H23 DAO d          -4.254  18.936  16.643  0.00  0.00     0.027 H 
ENDBRANCH  31  34
ENDBRANCH  28  31
ENDBRANCH  25  28
ENDBRANCH  22  25
ENDBRANCH   1  22
TORSDOF 11
ENDMDL
MODEL 2
REMARK VINA RESULT:      -5.9      1.538      1.994
REMARK  11 active torsions:
REMARK  status: ('A' for Active; 'I' for Inactive)
REMARK    1  A    between atoms: C1_3  and  C2_4 
REMARK    2  A    between atoms: C2_4  and  C3_5 
REMARK    3  A    between atoms: C3_5  and  C4_6 
REMARK    4  A    between atoms: C4_6  and  C5_7 
REMARK    5  A    between atoms: C5_7  and  C6_8 
REMARK    6  A    between atoms: C6_8  and  C7_9 
REMARK    7  A    between atoms: C7_9  and  C8_10 
REMARK    8  A    between atoms: C8_10  and  C9_11 
REMARK    9  A    between atoms: C9_11  and  C10_12 
REMARK   10  A    between atoms: C10_12  and  C11_13 
REMARK   11  A    between atoms: C11_13  and  C12_14 
ROOT
ATOM      1  C7  DAO d          -3.045  12.637  18.093  0.00  0.00    -0.065 C 
ATOM      2  H11 DAO d          -3.899  12.352  18.724  0.00  0.00     0.033 H 
ATOM      3  H12 DAO d          -2.976  11.949  17.237  0.00  0.00     0.033 H 
ENDROOT
BRANCH   1   4
ATOM      4  C6  DAO d          -1.762  12.522  18.921  0.00  0.00    -0.065 C 
ATOM      5  H9  DAO d          -0.925  12.239  18.266  0.00  0.00     0.033 H 
ATOM      6  H10 DAO d          -1.545  13.489  19.397  0.00  0.00     0.033 H 
BRANCH   4   7
ATOM      7  C5  DAO d          -1.949  11.459  19.993  0.00  0.00    -0.065 C 
ATOM      8  H7  DAO d          -1.196  10.673  19.839  0.00  0.00     0.033 H 
ATOM      9  H8  DAO d          -1.797  11.925  20.977  0.00  0.00     0.033 H 
BRANCH   7  10
ATOM     10  C4  DAO d          -3.332  10.813  19.973  0.00  0.00    -0.065 C 
ATOM     11  H5  DAO d          -3.858  11.071  20.905  0.00  0.00     0.033 H 
ATOM     12  H6  DAO d          -3.895  11.206  19.114  0.00  0.00     0.033 H 
BRANCH  10  13
ATOM     13  C3  DAO d          -3.252   9.284  19.857  0.00  0.00    -0.056 C 
ATOM     14  H3  DAO d          -3.383   8.845  20.857  0.00  0.00     0.033 H 
ATOM     15  H4  DAO d          -4.061   8.936  19.196  0.00  0.00     0.033 H 
BRANCH  13  16
ATOM     16  C2  DAO d          -1.911   8.815  19.283  0.00  0.00     0.016 C 
ATOM     17  H1  DAO d          -1.149   9.574  19.514  0.00  0.00     0.049 H 
ATOM     18  H2  DAO d          -1.639   7.864  19.766  0.00  0.00     0.049 H 
BRANCH  16  19
ATOM     19  C1  DAO d          -1.938   8.601  17.774  0.00  0.00     0.172 C 
ATOM     20  O1  DAO d          -1.567   9.528  17.009  0.00  0.00    -0.648 OA
ATOM     21  O2  DAO d          -2.315   7.504  17.302  0.00  0.00    -0.648 OA
ENDBRANCH  16  19
ENDBRANCH  13  16
ENDBRANCH  10  13
ENDBRANCH   7  10
ENDBRANCH   4   7
ENDBRANCH   1   4
BRANCH   1  22
ATOM     22  C8  DAO d          -3.279  14.049  17.565  0.00  0.00    -0.065 C 
ATOM     23  H13 DAO d          -4.189  14.455  18.029  0.00  0.00     0.033 H 
ATOM     24  H14 DAO d          -3.412  14.004  16.475  0.00  0.00     0.033 H 
BRANCH  22  25
ATOM     25  C9  DAO d          -2.117  14.971  17.878  0.00  0.00    -0.065 C 
ATOM     26  H15 DAO d          -1.341  14.828  17.111  0.00  0.00     0.033 H 
ATOM     27  H16 DAO d          -1.713  14.701  18.864  0.00  0.00     0.033 H 
BRANCH  25  28
ATOM     28  C10 DAO d          -2.508  16.450  17.902  0.00  0.00    -0.065 C 
ATOM     29  H17 DAO d          -1.605  17.057  18.065  0.00  0.00     0.033 H 
ATOM     30  H18 DAO d          -3.218  16.621  18.724  0.00  0.00     0.033 H 
BRANCH  28  31
ATOM     31  C11 DAO d          -3.153  16.866  16.596  0.00  0.00    -0.069 C 
ATOM     32  H19 DAO d          -3.196  15.999  15.920  0.00  0.00     0.032 H 
ATOM     33  H20 DAO d          -2.555  17.664  16.133  0.00  0.00     0.032 H 
BRANCH  31  34
ATOM     34  C12 DAO d          -4.552  17.373  16.848  0.00  0.00    -0.077 C 
ATOM     35  H21 DAO d          -4.648  18.395  16.454  0.00  0.00     0.027 H 
ATOM     36  H22 DAO d          -4.752  17.377  17.930  0.00  0.00     0.027 H 
ATOM     37  H23 DAO d          -5.276  16.716  16.344  0.00  0.00     0.027 H 
ENDBRANCH  31  34
ENDBRANCH  28  31
ENDBRANCH  25  28
ENDBRANCH  22  25
ENDBRANCH   1  22
TORSDOF 11
ENDMDL
MODEL 3
REMARK VINA RESULT:      -5.8      1.717      2.058
REMARK  11 active torsions:
REMARK  status: ('A' for Active; 'I' for Inactive)
REMARK    1  A    between atoms: C1_3  and  C2_4 
REMARK    2  A    between atoms: C2_4  and  C3_5 
REMARK    3  A    between atoms: C3_5  and  C4_6 
REMARK    4  A    between atoms: C4_6  and  C5_7 
REMARK    5  A    between atoms: C5_7  and  C6_8 
REMARK    6  A    between atoms: C6_8  and  C7_9 
REMARK    7  A    between atoms: C7_9  and  C8_10 
REMARK    8  A    between atoms: C8_10  and  C9_11 
REMARK    9  A    between atoms: C9_11  and  C10_12 
REMARK   10  A    between atoms: C10_12  and  C11_13 
REMARK   11  A    between atoms: C11_13  and  C12_14 
ROOT
ATOM      1  C7  DAO d          -1.927  13.261  18.545  0.00  0.00    -0.065 C 
ATOM      2  H11 DAO d          -1.104  13.711  17.971  0.00  0.00     0.033 H 
ATOM      3  H12 DAO d          -2.040  13.791  19.502  0.00  0.00     0.033 H 
ENDROOT
BRANCH   1   4
ATOM      4  C6  DAO d          -1.581  11.796  18.832  0.00  0.00    -0.065 C 
ATOM      5  H9  DAO d          -0.528  11.610  18.573  0.00  0.00     0.033 H 
ATOM      6  H10 DAO d          -1.738  11.585  19.900  0.00  0.00     0.033 H 
BRANCH   4   7
ATOM      7  C5  DAO d          -2.477  10.894  17.999  0.00  0.00    -0.065 C 
ATOM      8  H7  DAO d          -3.361  10.631  18.598  0.00  0.00     0.033 H 
ATOM      9  H8  DAO d          -2.794  11.448  17.103  0.00  0.00     0.033 H 
BRANCH   7  10
ATOM     10  C4  DAO d          -1.795   9.604  17.553  0.00  0.00    -0.065 C 
ATOM     11  H5  DAO d          -2.027   9.427  16.492  0.00  0.00     0.033 H 
ATOM     12  H6  DAO d          -0.708   9.717  17.675  0.00  0.00     0.033 H 
BRANCH  10  13
ATOM     13  C3  DAO d          -2.262   8.391  18.372  0.00  0.00    -0.056 C 
ATOM     14  H3  DAO d          -1.992   8.550  19.426  0.00  0.00     0.033 H 
ATOM     15  H4  DAO d          -3.356   8.304  18.283  0.00  0.00     0.033 H 
BRANCH  13  16
ATOM     16  C2  DAO d          -1.623   7.085  17.890  0.00  0.00     0.016 C 
ATOM     17  H1  DAO d          -0.800   7.333  17.203  0.00  0.00     0.049 H 
ATOM     18  H2  DAO d          -1.222   6.550  18.764  0.00  0.00     0.049 H 
BRANCH  16  19
ATOM     19  C1  DAO d          -2.597   6.164  17.164  0.00  0.00     0.172 C 
ATOM     20  O1  DAO d          -2.157   5.314  16.349  0.00  0.00    -0.648 OA
ATOM     21  O2  DAO d          -3.826   6.246  17.391  0.00  0.00    -0.648 OA
ENDBRANCH  16  19
ENDBRANCH  13  16
ENDBRANCH  10  13
ENDBRANCH   7  10
ENDBRANCH   4   7
ENDBRANCH   1   4
BRANCH   1  22
ATOM     22  C8  DAO d          -3.219  13.412  17.748  0.00  0.00    -0.065 C 
ATOM     23  H13 DAO d          -4.073  13.301  18.431  0.00  0.00     0.033 H 
ATOM     24  H14 DAO d          -3.258  12.624  16.982  0.00  0.00     0.033 H 
BRANCH  22  25
ATOM     25  C9  DAO d          -3.311  14.762  17.066  0.00  0.00    -0.065 C 
ATOM     26  H15 DAO d          -4.330  15.155  17.204  0.00  0.00     0.033 H 
ATOM     27  H16 DAO d          -3.114  14.625  15.993  0.00  0.00     0.033 H 
BRANCH  25  28
ATOM     28  C10 DAO d          -2.317  15.787  17.615  0.00  0.00    -0.065 C 
ATOM     29  H17 DAO d          -1.461  15.860  16.929  0.00  0.00     0.033 H 
ATOM     30  H18 DAO d          -1.968  15.456  18.604  0.00  0.00     0.033 H 
BRANCH  28  31
ATOM     31  C11 DAO d          -2.960  17.152  17.751  0.00  0.00    -0.069 C 
ATOM     32  H19 DAO d          -2.238  17.925  17.448  0.00  0.00     0.032 H 
ATOM     33  H20 DAO d          -3.253  17.313  18.798  0.00  0.00     0.032 H 
BRANCH  31  34
ATOM     34  C12 DAO d          -4.183  17.239  16.871  0.00  0.00    -0.077 C 
ATOM     35  H21 DAO d          -4.399  16.248  16.444  0.00  0.00     0.027 H 
ATOM     36  H22 DAO d          -3.999  17.956  16.057  0.00  0.00     0.027 H 
ATOM     37  H23 DAO d          -5.042  17.576  17.469  0.00  0.00     0.027 H 
ENDBRANCH  31  34
ENDBRANCH  28  31
ENDBRANCH  25  28
ENDBRANCH  22  25
ENDBRANCH   1  22
TORSDOF 11
ENDMDL
MODEL 4
REMARK VINA RESULT:      -5.8      4.642      7.941
REMARK  11 active torsions:
REMARK  status: ('A' for Active; 'I' for Inactive)
REMARK    1  A    between atoms: C1_3  and  C2_4 
REMARK    2  A    between atoms: C2_4  and  C3_5 
REMARK    3  A    between atoms: C3_5  and  C4_6 
REMARK    4  A    between atoms: C4_6  and  C5_7 
REMARK    5  A    between atoms: C5_7  and  C6_8 
REMARK    6  A    between atoms: C6_8  and  C7_9 
REMARK    7  A    between atoms: C7_9  and  C8_10 
REMARK    8  A    between atoms: C8_10  and  C9_11 
REMARK    9  A    between atoms: C9_11  and  C10_12 
REMARK   10  A    between atoms: C10_12  and  C11_13 
REMARK   11  A    between atoms: C11_13  and  C12_14 
ROOT
ATOM      1  C7  DAO d          -2.508  11.983  19.007  0.00  0.00    -0.065 C 
ATOM      2  H11 DAO d          -3.110  11.633  19.858  0.00  0.00     0.033 H 
ATOM      3  H12 DAO d          -1.969  12.898  19.291  0.00  0.00     0.033 H 
ENDROOT
BRANCH   1   4
ATOM      4  C6  DAO d          -3.448  12.309  17.842  0.00  0.00    -0.065 C 
ATOM      5  H9  DAO d          -3.115  11.774  16.940  0.00  0.00     0.033 H 
ATOM      6  H10 DAO d          -4.471  11.996  18.097  0.00  0.00     0.033 H 
BRANCH   4   7
ATOM      7  C5  DAO d          -3.425  13.807  17.581  0.00  0.00    -0.065 C 
ATOM      8  H7  DAO d          -3.416  13.971  16.493  0.00  0.00     0.033 H 
ATOM      9  H8  DAO d          -4.336  14.249  18.010  0.00  0.00     0.033 H 
BRANCH   7  10
ATOM     10  C4  DAO d          -2.214  14.511  18.186  0.00  0.00    -0.065 C 
ATOM     11  H5  DAO d          -2.225  14.361  19.276  0.00  0.00     0.033 H 
ATOM     12  H6  DAO d          -1.299  14.069  17.765  0.00  0.00     0.033 H 
BRANCH  10  13
ATOM     13  C3  DAO d          -2.217  16.018  17.893  0.00  0.00    -0.056 C 
ATOM     14  H3  DAO d          -2.838  16.525  18.646  0.00  0.00     0.033 H 
ATOM     15  H4  DAO d          -1.184  16.394  17.957  0.00  0.00     0.033 H 
BRANCH  13  16
ATOM     16  C2  DAO d          -2.771  16.336  16.500  0.00  0.00     0.016 C 
ATOM     17  H1  DAO d          -1.937  16.656  15.858  0.00  0.00     0.049 H 
ATOM     18  H2  DAO d          -3.222  15.422  16.087  0.00  0.00     0.049 H 
BRANCH  16  19
ATOM     19  C1  DAO d          -3.827  17.437  16.505  0.00  0.00     0.172 C 
ATOM     20  O1  DAO d          -4.980  17.188  16.940  0.00  0.00    -0.648 OA
ATOM     21  O2  DAO d          -3.541  18.582  16.089  0.00  0.00    -0.648 OA
ENDBRANCH  16  19
ENDBRANCH  13  16
ENDBRANCH  10  13
ENDBRANCH   7  10
ENDBRANCH   4   7
ENDBRANCH   1   4
BRANCH   1  22
ATOM     22  C8  DAO d          -1.488  10.905  18.654  0.00  0.00    -0.065 C 
ATOM     23  H13 DAO d          -1.308  10.283  19.542  0.00  0.00     0.033 H 
ATOM     24  H14 DAO d          -0.549  11.391  18.351  0.00  0.00     0.033 H 
BRANCH  22  25
ATOM     25  C9  DAO d          -1.966  10.018  17.523  0.00  0.00    -0.065 C 
ATOM     26  H15 DAO d          -1.267  10.120  16.679  0.00  0.00     0.033 H 
ATOM     27  H16 DAO d          -2.966  10.356  17.213  0.00  0.00     0.033 H 
BRANCH  25  28
ATOM     28  C10 DAO d          -2.051   8.540  17.906  0.00  0.00    -0.065 C 
ATOM     29  H17 DAO d          -1.290   7.979  17.344  0.00  0.00     0.033 H 
ATOM     30  H18 DAO d          -3.051   8.159  17.651  0.00  0.00     0.033 H 
BRANCH  28  31
ATOM     31  C11 DAO d          -1.813   8.346  19.389  0.00  0.00    -0.069 C 
ATOM     32  H19 DAO d          -1.533   9.310  19.841  0.00  0.00     0.032 H 
ATOM     33  H20 DAO d          -0.999   7.622  19.535  0.00  0.00     0.032 H 
BRANCH  31  34
ATOM     34  C12 DAO d          -3.066   7.829  20.053  0.00  0.00    -0.077 C 
ATOM     35  H21 DAO d          -3.946   8.149  19.475  0.00  0.00     0.027 H 
ATOM     36  H22 DAO d          -3.133   8.232  21.075  0.00  0.00     0.027 H 
ATOM     37  H23 DAO d          -3.033   6.731  20.092  0.00  0.00     0.027 H 
ENDBRANCH  31  34
ENDBRANCH  28  31
ENDBRANCH  25  28
ENDBRANCH  22  25
ENDBRANCH   1  22
TORSDOF 11
ENDMDL
MODEL 5
REMARK VINA RESULT:      -5.5      4.758      8.292
REMARK  11 active torsions:
REMARK  status: ('A' for Active; 'I' for Inactive)
REMARK    1  A    between atoms: C1_3  and  C2_4 
REMARK    2  A    between atoms: C2_4  and  C3_5 
REMARK    3  A    between atoms: C3_5  and  C4_6 
REMARK    4  A    between atoms: C4_6  and  C5_7 
REMARK    5  A    between atoms: C5_7  and  C6_8 
REMARK    6  A    between atoms: C6_8  and  C7_9 
REMARK    7  A    between atoms: C7_9  and  C8_10 
REMARK    8  A    between atoms: C8_10  and  C9_11 
REMARK    9  A    between atoms: C9_11  and  C10_12 
REMARK   10  A    between atoms: C10_12  and  C11_13 
REMARK   11  A    between atoms: C11_13  and  C12_14 
ROOT
ATOM      1  C7  DAO d          -1.804  10.890  18.149  0.00  0.00    -0.065 C 
ATOM      2  H11 DAO d          -0.842  10.362  18.226  0.00  0.00     0.033 H 
ATOM      3  H12 DAO d          -2.011  11.124  17.095  0.00  0.00     0.033 H 
ENDROOT
BRANCH   1   4
ATOM      4  C6  DAO d          -1.707  12.202  18.934  0.00  0.00    -0.065 C 
ATOM      5  H9  DAO d          -2.103  12.054  19.949  0.00  0.00     0.033 H 
ATOM      6  H10 DAO d          -0.655  12.517  18.994  0.00  0.00     0.033 H 
BRANCH   4   7
ATOM      7  C5  DAO d          -2.518  13.275  18.223  0.00  0.00    -0.065 C 
ATOM      8  H7  DAO d          -2.721  12.935  17.197  0.00  0.00     0.033 H 
ATOM      9  H8  DAO d          -3.469  13.406  18.761  0.00  0.00     0.033 H 
BRANCH   7  10
ATOM     10  C4  DAO d          -1.811  14.626  18.155  0.00  0.00    -0.065 C 
ATOM     11  H5  DAO d          -1.924  15.134  19.124  0.00  0.00     0.033 H 
ATOM     12  H6  DAO d          -0.744  14.458  17.951  0.00  0.00     0.033 H 
BRANCH  10  13
ATOM     13  C3  DAO d          -2.391  15.525  17.053  0.00  0.00    -0.056 C 
ATOM     14  H3  DAO d          -1.617  15.692  16.289  0.00  0.00     0.033 H 
ATOM     15  H4  DAO d          -3.252  15.014  16.596  0.00  0.00     0.033 H 
BRANCH  13  16
ATOM     16  C2  DAO d          -2.852  16.881  17.595  0.00  0.00     0.016 C 
ATOM     17  H1  DAO d          -3.271  16.731  18.601  0.00  0.00     0.049 H 
ATOM     18  H2  DAO d          -1.978  17.547  17.658  0.00  0.00     0.049 H 
BRANCH  16  19
ATOM     19  C1  DAO d          -3.910  17.554  16.726  0.00  0.00     0.172 C 
ATOM     20  O1  DAO d          -5.092  17.126  16.746  0.00  0.00    -0.648 OA
ATOM     21  O2  DAO d          -3.603  18.533  16.009  0.00  0.00    -0.648 OA
ENDBRANCH  16  19
ENDBRANCH  13  16
ENDBRANCH  10  13
ENDBRANCH   7  10
ENDBRANCH   4   7
ENDBRANCH   1   4
BRANCH   1  22
ATOM     22  C8  DAO d          -2.907   9.975  18.671  0.00  0.00    -0.065 C 
ATOM     23  H13 DAO d          -3.541   9.666  17.827  0.00  0.00     0.033 H 
ATOM     24  H14 DAO d          -3.513  10.530  19.401  0.00  0.00     0.033 H 
BRANCH  22  25
ATOM     25  C9  DAO d          -2.348   8.736  19.342  0.00  0.00    -0.065 C 
ATOM     26  H15 DAO d          -3.146   8.273  19.941  0.00  0.00     0.033 H 
ATOM     27  H16 DAO d          -1.523   9.039  20.002  0.00  0.00     0.033 H 
BRANCH  25  28
ATOM     28  C10 DAO d          -1.820   7.697  18.351  0.00  0.00    -0.065 C 
ATOM     29  H17 DAO d          -1.122   7.026  18.872  0.00  0.00     0.033 H 
ATOM     30  H18 DAO d          -1.292   8.213  17.535  0.00  0.00     0.033 H 
BRANCH  28  31
ATOM     31  C11 DAO d          -2.951   6.877  17.766  0.00  0.00    -0.069 C 
ATOM     32  H19 DAO d          -3.665   7.547  17.266  0.00  0.00     0.032 H 
ATOM     33  H20 DAO d          -3.461   6.333  18.574  0.00  0.00     0.032 H 
BRANCH  31  34
ATOM     34  C12 DAO d          -2.409   5.887  16.764  0.00  0.00    -0.077 C 
ATOM     35  H21 DAO d          -1.339   5.718  16.956  0.00  0.00     0.027 H 
ATOM     36  H22 DAO d          -2.540   6.286  15.747  0.00  0.00     0.027 H 
ATOM     37  H23 DAO d          -2.953   4.936  16.858  0.00  0.00     0.027 H 
ENDBRANCH  31  34
ENDBRANCH  28  31
ENDBRANCH  25  28
ENDBRANCH  22  25
ENDBRANCH   1  22
TORSDOF 11
ENDMDL
MODEL 6
REMARK VINA RESULT:      -5.4      1.354      1.840
REMARK  11 active torsions:
REMARK  status: ('A' for Active; 'I' for Inactive)
REMARK    1  A    between atoms: C1_3  and  C2_4 
REMARK    2  A    between atoms: C2_4  and  C3_5 
REMARK    3  A    between atoms: C3_5  and  C4_6 
REMARK    4  A    between atoms: C4_6  and  C5_7 
REMARK    5  A    between atoms: C5_7  and  C6_8 
REMARK    6  A    between atoms: C6_8  and  C7_9 
REMARK    7  A    between atoms: C7_9  and  C8_10 
REMARK    8  A    between atoms: C8_10  and  C9_11 
REMARK    9  A    between atoms: C9_11  and  C10_12 
REMARK   10  A    between atoms: C10_12  and  C11_13 
REMARK   11  A    between atoms: C11_13  and  C12_14 
ROOT
ATOM      1  C7  DAO d          -1.807  12.026  18.574  0.00  0.00    -0.065 C 
ATOM      2  H11 DAO d          -2.015  11.312  17.765  0.00  0.00     0.033 H 
ATOM      3  H12 DAO d          -0.720  12.166  18.669  0.00  0.00     0.033 H 
ENDROOT
BRANCH   1   4
ATOM      4  C6  DAO d          -2.344  11.449  19.888  0.00  0.00    -0.065 C 
ATOM      5  H9  DAO d          -1.546  10.887  20.396  0.00  0.00     0.033 H 
ATOM      6  H10 DAO d          -2.684  12.269  20.537  0.00  0.00     0.033 H 
BRANCH   4   7
ATOM      7  C5  DAO d          -3.510  10.519  19.590  0.00  0.00    -0.065 C 
ATOM      8  H7  DAO d          -4.379  10.852  20.176  0.00  0.00     0.033 H 
ATOM      9  H8  DAO d          -3.743  10.587  18.517  0.00  0.00     0.033 H 
BRANCH   7  10
ATOM     10  C4  DAO d          -3.225   9.060  19.932  0.00  0.00    -0.065 C 
ATOM     11  H5  DAO d          -2.736   9.015  20.917  0.00  0.00     0.033 H 
ATOM     12  H6  DAO d          -4.178   8.512  19.972  0.00  0.00     0.033 H 
BRANCH  10  13
ATOM     13  C3  DAO d          -2.313   8.391  18.894  0.00  0.00    -0.056 C 
ATOM     14  H3  DAO d          -2.934   8.009  18.070  0.00  0.00     0.033 H 
ATOM     15  H4  DAO d          -1.609   9.142  18.505  0.00  0.00     0.033 H 
BRANCH  13  16
ATOM     16  C2  DAO d          -1.513   7.227  19.489  0.00  0.00     0.016 C 
ATOM     17  H1  DAO d          -0.481   7.565  19.660  0.00  0.00     0.049 H 
ATOM     18  H2  DAO d          -1.970   6.945  20.449  0.00  0.00     0.049 H 
BRANCH  16  19
ATOM     19  C1  DAO d          -1.476   5.995  18.591  0.00  0.00     0.172 C 
ATOM     20  O1  DAO d          -1.086   4.896  19.062  0.00  0.00    -0.648 OA
ATOM     21  O2  DAO d          -1.844   6.078  17.397  0.00  0.00    -0.648 OA
ENDBRANCH  16  19
ENDBRANCH  13  16
ENDBRANCH  10  13
ENDBRANCH   7  10
ENDBRANCH   4   7
ENDBRANCH   1   4
BRANCH   1  22
ATOM     22  C8  DAO d          -2.442  13.367  18.219  0.00  0.00    -0.065 C 
ATOM     23  H13 DAO d          -3.259  13.571  18.926  0.00  0.00     0.033 H 
ATOM     24  H14 DAO d          -2.848  13.307  17.198  0.00  0.00     0.033 H 
BRANCH  22  25
ATOM     25  C9  DAO d          -1.444  14.504  18.283  0.00  0.00    -0.065 C 
ATOM     26  H15 DAO d          -0.675  14.338  17.513  0.00  0.00     0.033 H 
ATOM     27  H16 DAO d          -0.974  14.501  19.277  0.00  0.00     0.033 H 
BRANCH  25  28
ATOM     28  C10 DAO d          -2.075  15.878  18.048  0.00  0.00    -0.065 C 
ATOM     29  H17 DAO d          -1.341  16.531  17.553  0.00  0.00     0.033 H 
ATOM     30  H18 DAO d          -2.358  16.314  19.018  0.00  0.00     0.033 H 
BRANCH  28  31
ATOM     31  C11 DAO d          -3.309  15.770  17.177  0.00  0.00    -0.069 C 
ATOM     32  H19 DAO d          -3.998  15.032  17.613  0.00  0.00     0.032 H 
ATOM     33  H20 DAO d          -3.014  15.447  16.168  0.00  0.00     0.032 H 
BRANCH  31  34
ATOM     34  C12 DAO d          -4.001  17.108  17.090  0.00  0.00    -0.077 C 
ATOM     35  H21 DAO d          -4.241  17.330  16.040  0.00  0.00     0.027 H 
ATOM     36  H22 DAO d          -3.337  17.891  17.488  0.00  0.00     0.027 H 
ATOM     37  H23 DAO d          -4.929  17.080  17.680  0.00  0.00     0.027 H 
ENDBRANCH  31  34
ENDBRANCH  28  31
ENDBRANCH  25  28
ENDBRANCH  22  25
ENDBRANCH   1  22
TORSDOF 11
ENDMDL
MODEL 7
REMARK VINA RESULT:      -3.8      3.801      7.703
REMARK  11 active torsions:
REMARK  status: ('A' for Active; 'I' for Inactive)
REMARK    1  A    between atoms: C1_3  and  C2_4 
REMARK    2  A    between atoms: C2_4  and  C3_5 
REMARK    3  A    between atoms: C3_5  and  C4_6 
REMARK    4  A    between atoms: C4_6  and  C5_7 
REMARK    5  A    between atoms: C5_7  and  C6_8 
REMARK    6  A    between atoms: C6_8  and  C7_9 
REMARK    7  A    between atoms: C7_9  and  C8_10 
REMARK    8  A    between atoms: C8_10  and  C9_11 
REMARK    9  A    between atoms: C9_11  and  C10_12 
REMARK   10  A    between atoms: C10_12  and  C11_13 
REMARK   11  A    between atoms: C11_13  and  C12_14 
ROOT
ATOM      1  C7  DAO d          -3.377   9.068  19.711  0.00  0.00    -0.065 C 
ATOM      2  H11 DAO d          -2.621   9.416  18.993  0.00  0.00     0.033 H 
ATOM      3  H12 DAO d          -4.264   8.713  19.167  0.00  0.00     0.033 H 
ENDROOT
BRANCH   1   4
ATOM      4  C6  DAO d          -3.787  10.247  20.600  0.00  0.00    -0.065 C 
ATOM      5  H9  DAO d          -4.813  10.556  20.351  0.00  0.00     0.033 H 
ATOM      6  H10 DAO d          -3.741   9.943  21.656  0.00  0.00     0.033 H 
BRANCH   4   7
ATOM      7  C5  DAO d          -2.835  11.410  20.364  0.00  0.00    -0.065 C 
ATOM      8  H7  DAO d          -3.089  12.216  21.068  0.00  0.00     0.033 H 
ATOM      9  H8  DAO d          -1.809  11.065  20.557  0.00  0.00     0.033 H 
BRANCH   7  10
ATOM     10  C4  DAO d          -2.899  11.969  18.945  0.00  0.00    -0.065 C 
ATOM     11  H5  DAO d          -3.087  11.140  18.246  0.00  0.00     0.033 H 
ATOM     12  H6  DAO d          -3.725  12.692  18.886  0.00  0.00     0.033 H 
BRANCH  10  13
ATOM     13  C3  DAO d          -1.594  12.671  18.543  0.00  0.00    -0.056 C 
ATOM     14  H3  DAO d          -0.858  12.542  19.351  0.00  0.00     0.033 H 
ATOM     15  H4  DAO d          -1.212  12.208  17.621  0.00  0.00     0.033 H 
BRANCH  13  16
ATOM     16  C2  DAO d          -1.796  14.170  18.296  0.00  0.00     0.016 C 
ATOM     17  H1  DAO d          -1.868  14.677  19.269  0.00  0.00     0.049 H 
ATOM     18  H2  DAO d          -0.923  14.553  17.747  0.00  0.00     0.049 H 
BRANCH  16  19
ATOM     19  C1  DAO d          -3.051  14.488  17.490  0.00  0.00     0.172 C 
ATOM     20  O1  DAO d          -3.384  13.738  16.538  0.00  0.00    -0.648 OA
ATOM     21  O2  DAO d          -3.750  15.484  17.785  0.00  0.00    -0.648 OA
ENDBRANCH  16  19
ENDBRANCH  13  16
ENDBRANCH  10  13
ENDBRANCH   7  10
ENDBRANCH   4   7
ENDBRANCH   1   4
BRANCH   1  22
ATOM     22  C8  DAO d          -2.796   7.906  20.509  0.00  0.00    -0.065 C 
ATOM     23  H13 DAO d          -3.393   7.769  21.422  0.00  0.00     0.033 H 
ATOM     24  H14 DAO d          -1.758   8.147  20.782  0.00  0.00     0.033 H 
BRANCH  22  25
ATOM     25  C9  DAO d          -2.806   6.613  19.719  0.00  0.00    -0.065 C 
ATOM     26  H15 DAO d          -3.805   6.160  19.804  0.00  0.00     0.033 H 
ATOM     27  H16 DAO d          -2.057   5.933  20.153  0.00  0.00     0.033 H 
BRANCH  25  28
ATOM     28  C10 DAO d          -2.484   6.806  18.236  0.00  0.00    -0.065 C 
ATOM     29  H17 DAO d          -1.404   6.674  18.083  0.00  0.00     0.033 H 
ATOM     30  H18 DAO d          -2.775   7.824  17.935  0.00  0.00     0.033 H 
BRANCH  28  31
ATOM     31  C11 DAO d          -3.232   5.806  17.381  0.00  0.00    -0.069 C 
ATOM     32  H19 DAO d          -3.846   6.344  16.644  0.00  0.00     0.032 H 
ATOM     33  H20 DAO d          -3.882   5.193  18.022  0.00  0.00     0.032 H 
BRANCH  31  34
ATOM     34  C12 DAO d          -2.257   4.909  16.658  0.00  0.00    -0.077 C 
ATOM     35  H21 DAO d          -2.721   4.531  15.735  0.00  0.00     0.027 H 
ATOM     36  H22 DAO d          -1.987   4.062  17.306  0.00  0.00     0.027 H 
ATOM     37  H23 DAO d          -1.352   5.481  16.406  0.00  0.00     0.027 H 
ENDBRANCH  31  34
ENDBRANCH  28  31
ENDBRANCH  25  28
ENDBRANCH  22  25
ENDBRANCH   1  22
TORSDOF 11
ENDMDL
MODEL 8
REMARK VINA RESULT:      -3.6      4.779      8.038
REMARK  11 active torsions:
REMARK  status: ('A' for Active; 'I' for Inactive)
REMARK    1  A    between atoms: C1_3  and  C2_4 
REMARK    2  A    between atoms: C2_4  and  C3_5 
REMARK    3  A    between atoms: C3_5  and  C4_6 
REMARK    4  A    between atoms: C4_6  and  C5_7 
REMARK    5  A    between atoms: C5_7  and  C6_8 
REMARK    6  A    between atoms: C6_8  and  C7_9 
REMARK    7  A    between atoms: C7_9  and  C8_10 
REMARK    8  A    between atoms: C8_10  and  C9_11 
REMARK    9  A    between atoms: C9_11  and  C10_12 
REMARK   10  A    between atoms: C10_12  and  C11_13 
REMARK   11  A    between atoms: C11_13  and  C12_14 
ROOT
ATOM      1  C7  DAO d          -1.892  12.446  18.342  0.00  0.00    -0.065 C 
ATOM      2  H11 DAO d          -0.831  12.160  18.382  0.00  0.00     0.033 H 
ATOM      3  H12 DAO d          -2.323  12.125  17.383  0.00  0.00     0.033 H 
ENDROOT
BRANCH   1   4
ATOM      4  C6  DAO d          -1.992  13.972  18.439  0.00  0.00    -0.065 C 
ATOM      5  H9  DAO d          -2.676  14.244  19.257  0.00  0.00     0.033 H 
ATOM      6  H10 DAO d          -0.996  14.393  18.639  0.00  0.00     0.033 H 
BRANCH   4   7
ATOM      7  C5  DAO d          -2.525  14.526  17.127  0.00  0.00    -0.065 C 
ATOM      8  H7  DAO d          -1.842  15.315  16.780  0.00  0.00     0.033 H 
ATOM      9  H8  DAO d          -2.549  13.711  16.389  0.00  0.00     0.033 H 
BRANCH   7  10
ATOM     10  C4  DAO d          -3.928  15.116  17.241  0.00  0.00    -0.065 C 
ATOM     11  H5  DAO d          -4.627  14.316  17.526  0.00  0.00     0.033 H 
ATOM     12  H6  DAO d          -3.924  15.893  18.019  0.00  0.00     0.033 H 
BRANCH  10  13
ATOM     13  C3  DAO d          -4.400  15.740  15.920  0.00  0.00    -0.056 C 
ATOM     14  H3  DAO d          -3.635  15.561  15.150  0.00  0.00     0.033 H 
ATOM     15  H4  DAO d          -5.343  15.259  15.618  0.00  0.00     0.033 H 
BRANCH  13  16
ATOM     16  C2  DAO d          -4.633  17.249  16.042  0.00  0.00     0.016 C 
ATOM     17  H1  DAO d          -5.006  17.624  15.077  0.00  0.00     0.049 H 
ATOM     18  H2  DAO d          -5.392  17.423  16.820  0.00  0.00     0.049 H 
BRANCH  16  19
ATOM     19  C1  DAO d          -3.376  18.029  16.411  0.00  0.00     0.172 C 
ATOM     20  O1  DAO d          -2.826  17.829  17.524  0.00  0.00    -0.648 OA
ATOM     21  O2  DAO d          -2.889  18.853  15.604  0.00  0.00    -0.648 OA
ENDBRANCH  16  19
ENDBRANCH  13  16
ENDBRANCH  10  13
ENDBRANCH   7  10
ENDBRANCH   4   7
ENDBRANCH   1   4
BRANCH   1  22
ATOM     22  C8  DAO d          -2.632  11.736  19.471  0.00  0.00    -0.065 C 
ATOM     23  H13 DAO d          -3.167  12.486  20.071  0.00  0.00     0.033 H 
ATOM     24  H14 DAO d          -1.899  11.216  20.104  0.00  0.00     0.033 H 
BRANCH  22  25
ATOM     25  C9  DAO d          -3.632  10.725  18.948  0.00  0.00    -0.065 C 
ATOM     26  H15 DAO d          -3.366  10.476  17.910  0.00  0.00     0.033 H 
ATOM     27  H16 DAO d          -4.633  11.179  18.972  0.00  0.00     0.033 H 
BRANCH  25  28
ATOM     28  C10 DAO d          -3.667   9.431  19.763  0.00  0.00    -0.065 C 
ATOM     29  H17 DAO d          -4.534   8.832  19.449  0.00  0.00     0.033 H 
ATOM     30  H18 DAO d          -3.762   9.680  20.830  0.00  0.00     0.033 H 
BRANCH  28  31
ATOM     31  C11 DAO d          -2.404   8.621  19.556  0.00  0.00    -0.069 C 
ATOM     32  H19 DAO d          -2.464   7.696  20.149  0.00  0.00     0.032 H 
ATOM     33  H20 DAO d          -1.536   9.211  19.884  0.00  0.00     0.032 H 
BRANCH  31  34
ATOM     34  C12 DAO d          -2.246   8.270  18.097  0.00  0.00    -0.077 C 
ATOM     35  H21 DAO d          -1.724   7.306  18.006  0.00  0.00     0.027 H 
ATOM     36  H22 DAO d          -1.660   9.053  17.593  0.00  0.00     0.027 H 
ATOM     37  H23 DAO d          -3.238   8.196  17.629  0.00  0.00     0.027 H 
ENDBRANCH  31  34
ENDBRANCH  28  31
ENDBRANCH  25  28
ENDBRANCH  22  25
ENDBRANCH   1  22
TORSDOF 11
ENDMDL
