MODEL 1
REMARK VINA RESULT:      -7.4      0.000      0.000
REMARK  10 active torsions:
REMARK  status: ('A' for Active; 'I' for Inactive)
REMARK    1  A    between atoms: C2_2  and  C6_6 
REMARK    2  A    between atoms: C3_3  and  O20_16 
REMARK    3  A    between atoms: C5_5  and  C9_9 
REMARK    4  A    between atoms: C11_11  and  N29_21 
REMARK    5  A    between atoms: O20_16  and  C21_17 
REMARK    6  A    between atoms: C21_17  and  C22_18 
REMARK    7  A    between atoms: N29_21  and  C30_22 
REMARK    8  A    between atoms: N33_25  and  S46_28 
REMARK    9  A    between atoms: S46_28  and  C49_31 
REMARK   10  A    between atoms: C49_31  and  C50_32 
ROOT
ATOM      1  C30 MOL d          48.580   8.133   3.678  0.00  0.00     0.012 C 
ATOM      2  C31 MOL d          48.214   6.716   4.122  0.00  0.00    -0.031 C 
ATOM      3  C32 MOL d          49.291   6.049   4.946  0.00  0.00     0.007 C 
ATOM      4  N33 MOL d          50.552   6.205   4.219  0.00  0.00    -0.310 N 
ATOM      5  C34 MOL d          51.034   7.525   3.808  0.00  0.00     0.007 C 
ATOM      6  C35 MOL d          49.948   8.191   3.003  0.00  0.00    -0.031 C 
ATOM      7  H8  MOL d          48.599   8.788   4.561  0.00  0.00     0.072 H 
ATOM      8  H9  MOL d          48.031   6.106   3.225  0.00  0.00     0.038 H 
ATOM      9  H10 MOL d          47.294   6.766   4.724  0.00  0.00     0.038 H 
ATOM     10  H11 MOL d          49.060   4.982   5.074  0.00  0.00     0.065 H 
ATOM     11  H12 MOL d          49.363   6.531   5.932  0.00  0.00     0.065 H 
ATOM     12  H13 MOL d          51.940   7.417   3.193  0.00  0.00     0.065 H 
ATOM     13  H14 MOL d          51.265   8.131   4.696  0.00  0.00     0.065 H 
ATOM     14  H15 MOL d          50.220   9.246   2.854  0.00  0.00     0.038 H 
ATOM     15  H16 MOL d          49.878   7.688   2.028  0.00  0.00     0.038 H 
ENDROOT
BRANCH   1  16
ATOM     16  N29 MOL d          47.566   8.587   2.776  0.00  0.00    -0.385 N 
ATOM     17  H7  MOL d          46.640   8.137   2.805  0.00  0.00     0.160 HD
BRANCH  16  18
ATOM     18  C11 MOL d          47.776   9.589   1.881  0.00  0.00     0.029 A 
ATOM     19  C10 MOL d          47.039  10.783   2.168  0.00  0.00    -0.046 A 
ATOM     20  C9  MOL d          47.175  11.921   1.273  0.00  0.00    -0.015 A 
ATOM     21  H1  MOL d          46.393  10.838   3.035  0.00  0.00     0.088 H 
ATOM     22  C14 MOL d          48.082  11.860   0.132  0.00  0.00    -0.072 A 
ATOM     23  C13 MOL d          48.815  10.665  -0.175  0.00  0.00    -0.080 A 
ATOM     24  H4  MOL d          48.205  12.734  -0.496  0.00  0.00     0.084 H 
ATOM     25  C12 MOL d          48.660   9.530   0.719  0.00  0.00    -0.058 A 
ATOM     26  H3  MOL d          49.462  10.611  -1.043  0.00  0.00     0.083 H 
ATOM     27  H2  MOL d          49.212   8.619   0.519  0.00  0.00     0.086 H 
BRANCH  20  28
ATOM     28  C5  MOL d          46.394  13.161   1.458  0.00  0.00     0.036 A 
ATOM     29  S1  MOL d          45.245  13.699   0.174  0.00  0.00    -0.078 SA
ATOM     30  C2  MOL d          44.724  15.119   1.128  0.00  0.00     0.117 A 
ATOM     31  C3  MOL d          45.368  15.154   2.283  0.00  0.00     0.112 A 
ATOM     32  C4  MOL d          46.282  14.020   2.483  0.00  0.00     0.064 A 
ATOM     33 BR19 MOL d          47.065  13.830   4.162  0.00  0.00    -0.047 Br
BRANCH  30  34
ATOM     34  C6  MOL d          43.827  16.089   0.537  0.00  0.00     0.219 C 
ATOM     35  O7  MOL d          43.555  15.812  -0.650  0.00  0.00    -0.643 OA
ATOM     36  O8  MOL d          43.384  17.094   1.137  0.00  0.00    -0.643 OA
ENDBRANCH  30  34
BRANCH  31  37
ATOM     37  O20 MOL d          45.111  16.099   3.176  0.00  0.00    -0.338 OA
BRANCH  37  38
ATOM     38  C21 MOL d          46.088  17.112   3.302  0.00  0.00     0.106 C 
ATOM     39  H5  MOL d          45.855  17.953   2.632  0.00  0.00     0.091 H 
ATOM     40  H6  MOL d          47.084  16.714   3.057  0.00  0.00     0.091 H 
BRANCH  38  41
ATOM     41  C22 MOL d          46.043  17.545   4.699  0.00  0.00     0.198 C 
ATOM     42  O25 MOL d          44.910  17.791   5.150  0.00  0.00    -0.646 OA
ATOM     43  O26 MOL d          47.104  17.645   5.357  0.00  0.00    -0.646 OA
ENDBRANCH  38  41
ENDBRANCH  37  38
ENDBRANCH  31  37
ENDBRANCH  20  28
ENDBRANCH  16  18
ENDBRANCH   1  16
BRANCH   4  44
ATOM     44  S46 MOL d          51.758   5.006   4.384  0.00  0.00     0.232 S 
ATOM     45  O47 MOL d          51.726   4.611   5.774  0.00  0.00    -0.205 OA
ATOM     46  O48 MOL d          52.969   5.575   3.824  0.00  0.00    -0.205 OA
BRANCH  44  47
ATOM     47  C49 MOL d          51.049   3.647   3.428  0.00  0.00     0.070 C 
ATOM     48  H17 MOL d          50.242   3.170   4.004  0.00  0.00     0.066 H 
ATOM     49  H18 MOL d          51.829   2.904   3.206  0.00  0.00     0.066 H 
BRANCH  47  50
ATOM     50  C50 MOL d          50.496   4.196   2.147  0.00  0.00    -0.043 A 
ATOM     51  C53 MOL d          51.464   4.660   1.173  0.00  0.00    -0.076 A 
ATOM     52  C54 MOL d          50.959   5.089  -0.113  0.00  0.00    -0.082 A 
ATOM     53  H19 MOL d          52.524   4.685   1.399  0.00  0.00     0.084 H 
ATOM     54  C55 MOL d          49.520   5.081  -0.367  0.00  0.00    -0.083 A 
ATOM     55  H20 MOL d          51.646   5.416  -0.886  0.00  0.00     0.083 H 
ATOM     56  C56 MOL d          48.564   4.601   0.615  0.00  0.00    -0.082 A 
ATOM     57  H21 MOL d          49.154   5.446  -1.320  0.00  0.00     0.083 H 
ATOM     58  C57 MOL d          49.050   4.153   1.909  0.00  0.00    -0.076 A 
ATOM     59  H22 MOL d          47.505   4.576   0.385  0.00  0.00     0.083 H 
ATOM     60  H23 MOL d          48.367   3.800   2.672  0.00  0.00     0.084 H 
ENDBRANCH  47  50
ENDBRANCH  44  47
ENDBRANCH   4  44
TORSDOF 10
ENDMDL
MODEL 2
REMARK VINA RESULT:      -7.4      3.244     11.320
REMARK  10 active torsions:
REMARK  status: ('A' for Active; 'I' for Inactive)
REMARK    1  A    between atoms: C2_2  and  C6_6 
REMARK    2  A    between atoms: C3_3  and  O20_16 
REMARK    3  A    between atoms: C5_5  and  C9_9 
REMARK    4  A    between atoms: C11_11  and  N29_21 
REMARK    5  A    between atoms: O20_16  and  C21_17 
REMARK    6  A    between atoms: C21_17  and  C22_18 
REMARK    7  A    between atoms: N29_21  and  C30_22 
REMARK    8  A    between atoms: N33_25  and  S46_28 
REMARK    9  A    between atoms: S46_28  and  C49_31 
REMARK   10  A    between atoms: C49_31  and  C50_32 
ROOT
ATOM      1  C30 MOL d          46.790   8.803   0.735  0.00  0.00     0.012 C 
ATOM      2  C31 MOL d          47.789   9.889   1.139  0.00  0.00    -0.031 C 
ATOM      3  C32 MOL d          47.154  11.041   1.883  0.00  0.00     0.007 C 
ATOM      4  N33 MOL d          45.992  11.473   1.104  0.00  0.00    -0.310 N 
ATOM      5  C34 MOL d          44.938  10.530   0.724  0.00  0.00     0.007 C 
ATOM      6  C35 MOL d          45.581   9.376  -0.001  0.00  0.00    -0.031 C 
ATOM      7  H8  MOL d          46.435   8.292   1.643  0.00  0.00     0.072 H 
ATOM      8  H9  MOL d          48.264  10.281   0.227  0.00  0.00     0.038 H 
ATOM      9  H10 MOL d          48.555   9.435   1.785  0.00  0.00     0.038 H 
ATOM     10  H11 MOL d          47.872  11.868   1.978  0.00  0.00     0.065 H 
ATOM     11  H12 MOL d          46.836  10.713   2.883  0.00  0.00     0.065 H 
ATOM     12  H13 MOL d          44.213  11.027   0.063  0.00  0.00     0.065 H 
ATOM     13  H14 MOL d          44.423  10.164   1.624  0.00  0.00     0.065 H 
ATOM     14  H15 MOL d          44.834   8.578  -0.120  0.00  0.00     0.038 H 
ATOM     15  H16 MOL d          45.907   9.723  -0.991  0.00  0.00     0.038 H 
ENDROOT
BRANCH   1  16
ATOM     16  N29 MOL d          47.475   7.863  -0.099  0.00  0.00    -0.385 N 
ATOM     17  H7  MOL d          46.951   7.399  -0.854  0.00  0.00     0.160 HD
BRANCH  16  18
ATOM     18  C11 MOL d          48.790   7.557   0.066  0.00  0.00     0.029 A 
ATOM     19  C10 MOL d          49.046   6.690   1.175  0.00  0.00    -0.046 A 
ATOM     20  C9  MOL d          50.419   6.302   1.457  0.00  0.00    -0.015 A 
ATOM     21  H1  MOL d          48.233   6.329   1.793  0.00  0.00     0.088 H 
ATOM     22  C14 MOL d          51.506   6.752   0.595  0.00  0.00    -0.072 A 
ATOM     23  C13 MOL d          51.264   7.633  -0.511  0.00  0.00    -0.080 A 
ATOM     24  H4  MOL d          52.516   6.414   0.794  0.00  0.00     0.084 H 
ATOM     25  C12 MOL d          49.890   8.025  -0.774  0.00  0.00    -0.058 A 
ATOM     26  H3  MOL d          52.079   7.994  -1.129  0.00  0.00     0.083 H 
ATOM     27  H2  MOL d          49.677   8.680  -1.612  0.00  0.00     0.086 H 
BRANCH  20  28
ATOM     28  C5  MOL d          50.774   5.470   2.625  0.00  0.00     0.036 A 
ATOM     29  S1  MOL d          51.586   6.223   4.050  0.00  0.00    -0.078 SA
ATOM     30  C2  MOL d          51.610   4.678   4.950  0.00  0.00     0.117 A 
ATOM     31  C3  MOL d          51.060   3.719   4.225  0.00  0.00     0.112 A 
ATOM     32  C4  MOL d          50.550   4.181   2.925  0.00  0.00     0.064 A 
ATOM     33 BR19 MOL d          49.546   2.980   1.916  0.00  0.00    -0.047 Br
BRANCH  30  34
ATOM     34  C6  MOL d          52.297   4.600   6.221  0.00  0.00     0.219 C 
ATOM     35  O7  MOL d          51.566   4.954   7.170  0.00  0.00    -0.643 OA
ATOM     36  O8  MOL d          53.485   4.232   6.356  0.00  0.00    -0.643 OA
ENDBRANCH  30  34
BRANCH  31  37
ATOM     37  O20 MOL d          50.929   2.491   4.706  0.00  0.00    -0.338 OA
BRANCH  37  38
ATOM     38  C21 MOL d          49.657   2.166   5.227  0.00  0.00     0.106 C 
ATOM     39  H5  MOL d          49.111   1.518   4.525  0.00  0.00     0.091 H 
ATOM     40  H6  MOL d          49.074   3.080   5.411  0.00  0.00     0.091 H 
BRANCH  38  41
ATOM     41  C22 MOL d          49.904   1.459   6.484  0.00  0.00     0.198 C 
ATOM     42  O25 MOL d          48.894   1.196   7.162  0.00  0.00    -0.646 OA
ATOM     43  O26 MOL d          51.074   1.159   6.814  0.00  0.00    -0.646 OA
ENDBRANCH  38  41
ENDBRANCH  37  38
ENDBRANCH  31  37
ENDBRANCH  20  28
ENDBRANCH  16  18
ENDBRANCH   1  16
BRANCH   4  44
ATOM     44  S46 MOL d          45.518  13.113   1.163  0.00  0.00     0.232 S 
ATOM     45  O47 MOL d          44.086  13.097   1.356  0.00  0.00    -0.205 OA
ATOM     46  O48 MOL d          46.079  13.736  -0.021  0.00  0.00    -0.205 OA
BRANCH  44  47
ATOM     47  C49 MOL d          46.259  13.647   2.722  0.00  0.00     0.070 C 
ATOM     48  H17 MOL d          47.300  13.294   2.777  0.00  0.00     0.066 H 
ATOM     49  H18 MOL d          45.687  13.233   3.565  0.00  0.00     0.066 H 
BRANCH  47  50
ATOM     50  C50 MOL d          46.230  15.145   2.781  0.00  0.00    -0.043 A 
ATOM     51  C53 MOL d          44.940  15.774   2.577  0.00  0.00    -0.076 A 
ATOM     52  C54 MOL d          44.868  17.210   2.740  0.00  0.00    -0.082 A 
ATOM     53  H19 MOL d          44.065  15.192   2.312  0.00  0.00     0.084 H 
ATOM     54  C55 MOL d          46.079  17.966   3.056  0.00  0.00    -0.083 A 
ATOM     55  H20 MOL d          43.920  17.723   2.629  0.00  0.00     0.083 H 
ATOM     56  C56 MOL d          47.360  17.319   3.270  0.00  0.00    -0.082 A 
ATOM     57  H21 MOL d          46.016  19.045   3.134  0.00  0.00     0.083 H 
ATOM     58  C57 MOL d          47.454  15.876   3.123  0.00  0.00    -0.076 A 
ATOM     59  H22 MOL d          48.234  17.903   3.536  0.00  0.00     0.083 H 
ATOM     60  H23 MOL d          48.396  15.359   3.262  0.00  0.00     0.084 H 
ENDBRANCH  47  50
ENDBRANCH  44  47
ENDBRANCH   4  44
TORSDOF 10
ENDMDL
MODEL 3
REMARK VINA RESULT:      -6.9      3.248     11.600
REMARK  10 active torsions:
REMARK  status: ('A' for Active; 'I' for Inactive)
REMARK    1  A    between atoms: C2_2  and  C6_6 
REMARK    2  A    between atoms: C3_3  and  O20_16 
REMARK    3  A    between atoms: C5_5  and  C9_9 
REMARK    4  A    between atoms: C11_11  and  N29_21 
REMARK    5  A    between atoms: O20_16  and  C21_17 
REMARK    6  A    between atoms: C21_17  and  C22_18 
REMARK    7  A    between atoms: N29_21  and  C30_22 
REMARK    8  A    between atoms: N33_25  and  S46_28 
REMARK    9  A    between atoms: S46_28  and  C49_31 
REMARK   10  A    between atoms: C49_31  and  C50_32 
ROOT
ATOM      1  C30 MOL d          48.331   9.708  -0.163  0.00  0.00     0.012 C 
ATOM      2  C31 MOL d          47.311   9.453   0.948  0.00  0.00    -0.031 C 
ATOM      3  C32 MOL d          46.064  10.296   0.821  0.00  0.00     0.007 C 
ATOM      4  N33 MOL d          46.493  11.682   0.630  0.00  0.00    -0.310 N 
ATOM      5  C34 MOL d          47.413  12.050  -0.449  0.00  0.00     0.007 C 
ATOM      6  C35 MOL d          48.646  11.193  -0.327  0.00  0.00    -0.031 C 
ATOM      7  H8  MOL d          47.923   9.331  -1.112  0.00  0.00     0.072 H 
ATOM      8  H9  MOL d          47.786   9.675   1.915  0.00  0.00     0.038 H 
ATOM      9  H10 MOL d          47.021   8.392   0.918  0.00  0.00     0.038 H 
ATOM     10  H11 MOL d          45.458  10.212   1.735  0.00  0.00     0.065 H 
ATOM     11  H12 MOL d          45.471   9.962  -0.043  0.00  0.00     0.065 H 
ATOM     12  H13 MOL d          47.687  13.112  -0.360  0.00  0.00     0.065 H 
ATOM     13  H14 MOL d          46.933  11.877  -1.424  0.00  0.00     0.065 H 
ATOM     14  H15 MOL d          49.254  11.323  -1.234  0.00  0.00     0.038 H 
ATOM     15  H16 MOL d          49.219  11.528   0.550  0.00  0.00     0.038 H 
ENDROOT
BRANCH   1  16
ATOM     16  N29 MOL d          49.523   8.984   0.159  0.00  0.00    -0.385 N 
ATOM     17  H7  MOL d          50.381   9.513   0.369  0.00  0.00     0.160 HD
BRANCH  16  18
ATOM     18  C11 MOL d          49.568   7.626   0.200  0.00  0.00     0.029 A 
ATOM     19  C10 MOL d          50.152   7.103   1.397  0.00  0.00    -0.046 A 
ATOM     20  C9  MOL d          50.265   5.661   1.550  0.00  0.00    -0.015 A 
ATOM     21  H1  MOL d          50.504   7.769   2.176  0.00  0.00     0.088 H 
ATOM     22  C14 MOL d          49.748   4.767   0.520  0.00  0.00    -0.072 A 
ATOM     23  C13 MOL d          49.173   5.278  -0.691  0.00  0.00    -0.080 A 
ATOM     24  H4  MOL d          49.798   3.695   0.673  0.00  0.00     0.084 H 
ATOM     25  C12 MOL d          49.080   6.720  -0.838  0.00  0.00    -0.058 A 
ATOM     26  H3  MOL d          48.821   4.611  -1.470  0.00  0.00     0.083 H 
ATOM     27  H2  MOL d          48.637   7.134  -1.737  0.00  0.00     0.086 H 
BRANCH  20  28
ATOM     28  C5  MOL d          50.921   5.046   2.721  0.00  0.00     0.036 A 
ATOM     29  S1  MOL d          50.114   5.102   4.335  0.00  0.00    -0.078 SA
ATOM     30  C2  MOL d          51.430   4.172   5.111  0.00  0.00     0.117 A 
ATOM     31  C3  MOL d          52.361   3.870   4.222  0.00  0.00     0.112 A 
ATOM     32  C4  MOL d          52.048   4.331   2.860  0.00  0.00     0.064 A 
ATOM     33 BR19 MOL d          53.162   3.762   1.480  0.00  0.00    -0.047 Br
BRANCH  30  34
ATOM     34  C6  MOL d          51.420   3.977   6.544  0.00  0.00     0.219 C 
ATOM     35  O7  MOL d          51.990   4.911   7.148  0.00  0.00    -0.643 OA
ATOM     36  O8  MOL d          50.913   2.986   7.116  0.00  0.00    -0.643 OA
ENDBRANCH  30  34
BRANCH  31  37
ATOM     37  O20 MOL d          53.416   3.144   4.561  0.00  0.00    -0.338 OA
BRANCH  37  38
ATOM     38  C21 MOL d          53.482   1.850   3.998  0.00  0.00     0.106 C 
ATOM     39  H5  MOL d          54.529   1.527   3.902  0.00  0.00     0.091 H 
ATOM     40  H6  MOL d          53.004   1.840   3.007  0.00  0.00     0.091 H 
BRANCH  38  41
ATOM     41  C22 MOL d          52.761   0.971   4.919  0.00  0.00     0.198 C 
ATOM     42  O25 MOL d          53.336   0.732   5.997  0.00  0.00    -0.646 OA
ATOM     43  O26 MOL d          51.639   0.515   4.600  0.00  0.00    -0.646 OA
ENDBRANCH  38  41
ENDBRANCH  37  38
ENDBRANCH  31  37
ENDBRANCH  20  28
ENDBRANCH  16  18
ENDBRANCH   1  16
BRANCH   4  44
ATOM     44  S46 MOL d          45.498  12.946   1.204  0.00  0.00     0.232 S 
ATOM     45  O47 MOL d          44.225  12.332   1.506  0.00  0.00    -0.205 OA
ATOM     46  O48 MOL d          45.573  13.999   0.209  0.00  0.00    -0.205 OA
BRANCH  44  47
ATOM     47  C49 MOL d          46.288  13.339   2.781  0.00  0.00     0.070 C 
ATOM     48  H17 MOL d          47.337  13.006   2.762  0.00  0.00     0.066 H 
ATOM     49  H18 MOL d          45.757  12.829   3.598  0.00  0.00     0.066 H 
BRANCH  47  50
ATOM     50  C50 MOL d          46.233  14.822   2.990  0.00  0.00    -0.043 A 
ATOM     51  C53 MOL d          47.507  15.510   3.067  0.00  0.00    -0.076 A 
ATOM     52  C54 MOL d          47.477  16.954   3.156  0.00  0.00    -0.082 A 
ATOM     53  H19 MOL d          48.443  14.965   3.057  0.00  0.00     0.084 H 
ATOM     54  C55 MOL d          46.194  17.652   3.208  0.00  0.00    -0.083 A 
ATOM     55  H20 MOL d          48.403  17.517   3.184  0.00  0.00     0.083 H 
ATOM     56  C56 MOL d          44.927  16.948   3.117  0.00  0.00    -0.082 A 
ATOM     57  H21 MOL d          46.188  18.730   3.318  0.00  0.00     0.083 H 
ATOM     58  C57 MOL d          44.933  15.499   3.015  0.00  0.00    -0.076 A 
ATOM     59  H22 MOL d          43.992  17.496   3.126  0.00  0.00     0.083 H 
ATOM     60  H23 MOL d          44.008  14.937   2.958  0.00  0.00     0.084 H 
ENDBRANCH  47  50
ENDBRANCH  44  47
ENDBRANCH   4  44
TORSDOF 10
ENDMDL
MODEL 4
REMARK VINA RESULT:      -6.9      3.090     11.634
REMARK  10 active torsions:
REMARK  status: ('A' for Active; 'I' for Inactive)
REMARK    1  A    between atoms: C2_2  and  C6_6 
REMARK    2  A    between atoms: C3_3  and  O20_16 
REMARK    3  A    between atoms: C5_5  and  C9_9 
REMARK    4  A    between atoms: C11_11  and  N29_21 
REMARK    5  A    between atoms: O20_16  and  C21_17 
REMARK    6  A    between atoms: C21_17  and  C22_18 
REMARK    7  A    between atoms: N29_21  and  C30_22 
REMARK    8  A    between atoms: N33_25  and  S46_28 
REMARK    9  A    between atoms: S46_28  and  C49_31 
REMARK   10  A    between atoms: C49_31  and  C50_32 
ROOT
ATOM      1  C30 MOL d          47.764   9.092  -0.193  0.00  0.00     0.012 C 
ATOM      2  C31 MOL d          46.236   9.080  -0.226  0.00  0.00    -0.031 C 
ATOM      3  C32 MOL d          45.631  10.444  -0.469  0.00  0.00     0.007 C 
ATOM      4  N33 MOL d          46.261  11.372   0.472  0.00  0.00    -0.310 N 
ATOM      5  C34 MOL d          47.717  11.516   0.538  0.00  0.00     0.007 C 
ATOM      6  C35 MOL d          48.313  10.150   0.761  0.00  0.00    -0.031 C 
ATOM      7  H8  MOL d          48.140   9.307  -1.204  0.00  0.00     0.072 H 
ATOM      8  H9  MOL d          45.869   8.702   0.740  0.00  0.00     0.038 H 
ATOM      9  H10 MOL d          45.909   8.405  -1.031  0.00  0.00     0.038 H 
ATOM     10  H11 MOL d          44.546  10.411  -0.295  0.00  0.00     0.065 H 
ATOM     11  H12 MOL d          45.828  10.764  -1.502  0.00  0.00     0.065 H 
ATOM     12  H13 MOL d          47.989  12.181   1.370  0.00  0.00     0.065 H 
ATOM     13  H14 MOL d          48.093  11.937  -0.406  0.00  0.00     0.065 H 
ATOM     14  H15 MOL d          49.402  10.217   0.622  0.00  0.00     0.038 H 
ATOM     15  H16 MOL d          48.094   9.838   1.793  0.00  0.00     0.038 H 
ENDROOT
BRANCH   1  16
ATOM     16  N29 MOL d          48.206   7.791   0.208  0.00  0.00    -0.385 N 
ATOM     17  H7  MOL d          48.457   7.107  -0.521  0.00  0.00     0.160 HD
BRANCH  16  18
ATOM     18  C11 MOL d          48.308   7.420   1.512  0.00  0.00     0.029 A 
ATOM     19  C10 MOL d          49.183   6.309   1.730  0.00  0.00    -0.046 A 
ATOM     20  C9  MOL d          49.364   5.815   3.086  0.00  0.00    -0.015 A 
ATOM     21  H1  MOL d          49.702   5.843   0.900  0.00  0.00     0.088 H 
ATOM     22  C14 MOL d          48.701   6.473   4.206  0.00  0.00    -0.072 A 
ATOM     23  C13 MOL d          47.810   7.579   4.000  0.00  0.00    -0.080 A 
ATOM     24  H4  MOL d          48.884   6.120   5.214  0.00  0.00     0.084 H 
ATOM     25  C12 MOL d          47.627   8.053   2.639  0.00  0.00    -0.058 A 
ATOM     26  H3  MOL d          47.291   8.044   4.831  0.00  0.00     0.083 H 
ATOM     27  H2  MOL d          46.969   8.896   2.456  0.00  0.00     0.086 H 
BRANCH  20  28
ATOM     28  C5  MOL d          50.191   4.628   3.384  0.00  0.00     0.036 A 
ATOM     29  S1  MOL d          49.696   3.009   2.760  0.00  0.00    -0.078 SA
ATOM     30  C2  MOL d          51.135   2.213   3.462  0.00  0.00     0.117 A 
ATOM     31  C3  MOL d          51.885   3.100   4.093  0.00  0.00     0.112 A 
ATOM     32  C4  MOL d          51.368   4.475   4.010  0.00  0.00     0.064 A 
ATOM     33 BR19 MOL d          52.453   5.845   4.653  0.00  0.00    -0.047 Br
BRANCH  30  34
ATOM     34  C6  MOL d          51.260   0.772   3.399  0.00  0.00     0.219 C 
ATOM     35  O7  MOL d          52.085   0.412   2.533  0.00  0.00    -0.643 OA
ATOM     36  O8  MOL d          50.612  -0.021   4.117  0.00  0.00    -0.643 OA
ENDBRANCH  30  34
BRANCH  31  37
ATOM     37  O20 MOL d          53.030   2.745   4.658  0.00  0.00    -0.338 OA
BRANCH  37  38
ATOM     38  C21 MOL d          53.127   2.964   6.050  0.00  0.00     0.106 C 
ATOM     39  H5  MOL d          52.718   3.952   6.311  0.00  0.00     0.091 H 
ATOM     40  H6  MOL d          54.176   2.906   6.374  0.00  0.00     0.091 H 
BRANCH  38  41
ATOM     41  C22 MOL d          52.340   1.905   6.681  0.00  0.00     0.198 C 
ATOM     42  O25 MOL d          51.256   2.262   7.179  0.00  0.00    -0.646 OA
ATOM     43  O26 MOL d          52.769   0.728   6.692  0.00  0.00    -0.646 OA
ENDBRANCH  38  41
ENDBRANCH  37  38
ENDBRANCH  31  37
ENDBRANCH  20  28
ENDBRANCH  16  18
ENDBRANCH   1  16
BRANCH   4  44
ATOM     44  S46 MOL d          45.368  12.715   1.035  0.00  0.00     0.232 S 
ATOM     45  O47 MOL d          44.123  12.175   1.530  0.00  0.00    -0.205 OA
ATOM     46  O48 MOL d          45.356  13.674  -0.054  0.00  0.00    -0.205 OA
BRANCH  44  47
ATOM     47  C49 MOL d          46.341  13.217   2.473  0.00  0.00     0.070 C 
ATOM     48  H17 MOL d          47.405  13.008   2.291  0.00  0.00     0.066 H 
ATOM     49  H18 MOL d          46.004  12.660   3.359  0.00  0.00     0.066 H 
BRANCH  47  50
ATOM     50  C50 MOL d          46.146  14.686   2.696  0.00  0.00    -0.043 A 
ATOM     51  C53 MOL d          47.320  15.440   3.091  0.00  0.00    -0.076 A 
ATOM     52  C54 MOL d          47.181  16.876   3.203  0.00  0.00    -0.082 A 
ATOM     53  H19 MOL d          48.264  14.947   3.295  0.00  0.00     0.084 H 
ATOM     54  C55 MOL d          45.882  17.500   2.962  0.00  0.00    -0.083 A 
ATOM     55  H20 MOL d          48.038  17.487   3.465  0.00  0.00     0.083 H 
ATOM     56  C56 MOL d          44.719  16.733   2.554  0.00  0.00    -0.082 A 
ATOM     57  H21 MOL d          45.784  18.571   3.091  0.00  0.00     0.083 H 
ATOM     58  C57 MOL d          44.838  15.290   2.423  0.00  0.00    -0.076 A 
ATOM     59  H22 MOL d          43.777  17.228   2.351  0.00  0.00     0.083 H 
ATOM     60  H23 MOL d          43.990  14.682   2.134  0.00  0.00     0.084 H 
ENDBRANCH  47  50
ENDBRANCH  44  47
ENDBRANCH   4  44
TORSDOF 10
ENDMDL
MODEL 5
REMARK VINA RESULT:      -6.8      3.162     11.171
REMARK  10 active torsions:
REMARK  status: ('A' for Active; 'I' for Inactive)
REMARK    1  A    between atoms: C2_2  and  C6_6 
REMARK    2  A    between atoms: C3_3  and  O20_16 
REMARK    3  A    between atoms: C5_5  and  C9_9 
REMARK    4  A    between atoms: C11_11  and  N29_21 
REMARK    5  A    between atoms: O20_16  and  C21_17 
REMARK    6  A    between atoms: C21_17  and  C22_18 
REMARK    7  A    between atoms: N29_21  and  C30_22 
REMARK    8  A    between atoms: N33_25  and  S46_28 
REMARK    9  A    between atoms: S46_28  and  C49_31 
REMARK   10  A    between atoms: C49_31  and  C50_32 
ROOT
ATOM      1  C30 MOL d          47.832   8.378   0.168  0.00  0.00     0.012 C 
ATOM      2  C31 MOL d          48.620   9.601   0.639  0.00  0.00    -0.031 C 
ATOM      3  C32 MOL d          47.816  10.529   1.520  0.00  0.00     0.007 C 
ATOM      4  N33 MOL d          46.548  10.788   0.835  0.00  0.00    -0.310 N 
ATOM      5  C34 MOL d          45.679   9.690   0.404  0.00  0.00     0.007 C 
ATOM      6  C35 MOL d          46.493   8.760  -0.458  0.00  0.00    -0.031 C 
ATOM      7  H8  MOL d          47.639   7.726   1.033  0.00  0.00     0.072 H 
ATOM      8  H9  MOL d          48.954  10.162  -0.246  0.00  0.00     0.038 H 
ATOM      9  H10 MOL d          49.497   9.254   1.205  0.00  0.00     0.038 H 
ATOM     10  H11 MOL d          48.362  11.472   1.670  0.00  0.00     0.065 H 
ATOM     11  H12 MOL d          47.628  10.055   2.494  0.00  0.00     0.065 H 
ATOM     12  H13 MOL d          44.833  10.089  -0.174  0.00  0.00     0.065 H 
ATOM     13  H14 MOL d          45.300   9.148   1.283  0.00  0.00     0.065 H 
ATOM     14  H15 MOL d          45.911   7.842  -0.627  0.00  0.00     0.038 H 
ATOM     15  H16 MOL d          46.685   9.255  -1.420  0.00  0.00     0.038 H 
ENDROOT
BRANCH   1  16
ATOM     16  N29 MOL d          48.638   7.674  -0.783  0.00  0.00    -0.385 N 
ATOM     17  H7  MOL d          48.376   7.714  -1.778  0.00  0.00     0.160 HD
BRANCH  16  18
ATOM     18  C11 MOL d          49.735   6.955  -0.425  0.00  0.00     0.029 A 
ATOM     19  C10 MOL d          49.496   6.027   0.638  0.00  0.00    -0.046 A 
ATOM     20  C9  MOL d          50.600   5.208   1.114  0.00  0.00    -0.015 A 
ATOM     21  H1  MOL d          48.511   5.937   1.080  0.00  0.00     0.088 H 
ATOM     22  C14 MOL d          51.912   5.300   0.485  0.00  0.00    -0.072 A 
ATOM     23  C13 MOL d          52.169   6.236  -0.572  0.00  0.00    -0.080 A 
ATOM     24  H4  MOL d          52.709   4.649   0.822  0.00  0.00     0.084 H 
ATOM     25  C12 MOL d          51.062   7.058  -1.029  0.00  0.00    -0.058 A 
ATOM     26  H3  MOL d          53.155   6.326  -1.014  0.00  0.00     0.083 H 
ATOM     27  H2  MOL d          51.224   7.764  -1.836  0.00  0.00     0.086 H 
BRANCH  20  28
ATOM     28  C5  MOL d          50.453   4.282   2.255  0.00  0.00     0.036 A 
ATOM     29  S1  MOL d          50.726   2.514   2.016  0.00  0.00    -0.078 SA
ATOM     30  C2  MOL d          50.425   2.157   3.743  0.00  0.00     0.117 A 
ATOM     31  C3  MOL d          50.149   3.271   4.398  0.00  0.00     0.112 A 
ATOM     32  C4  MOL d          50.207   4.478   3.559  0.00  0.00     0.064 A 
ATOM     33 BR19 MOL d          50.072   6.128   4.412  0.00  0.00    -0.047 Br
BRANCH  30  34
ATOM     34  C6  MOL d          50.378   0.782   4.192  0.00  0.00     0.219 C 
ATOM     35  O7  MOL d          49.204   0.381   4.346  0.00  0.00    -0.643 OA
ATOM     36  O8  MOL d          51.388   0.079   4.412  0.00  0.00    -0.643 OA
ENDBRANCH  30  34
BRANCH  31  37
ATOM     37  O20 MOL d          49.933   3.256   5.705  0.00  0.00    -0.338 OA
BRANCH  37  38
ATOM     38  C21 MOL d          50.963   2.701   6.496  0.00  0.00     0.106 C 
ATOM     39  H5  MOL d          51.318   1.758   6.053  0.00  0.00     0.091 H 
ATOM     40  H6  MOL d          50.602   2.513   7.517  0.00  0.00     0.091 H 
BRANCH  38  41
ATOM     41  C22 MOL d          52.039   3.693   6.511  0.00  0.00     0.198 C 
ATOM     42  O25 MOL d          51.818   4.717   7.184  0.00  0.00    -0.646 OA
ATOM     43  O26 MOL d          53.096   3.480   5.874  0.00  0.00    -0.646 OA
ENDBRANCH  38  41
ENDBRANCH  37  38
ENDBRANCH  31  37
ENDBRANCH  20  28
ENDBRANCH  16  18
ENDBRANCH   1  16
BRANCH   4  44
ATOM     44  S46 MOL d          45.765  12.286   1.078  0.00  0.00     0.232 S 
ATOM     45  O47 MOL d          44.446  11.961   1.569  0.00  0.00    -0.205 OA
ATOM     46  O48 MOL d          45.911  13.021  -0.164  0.00  0.00    -0.205 OA
BRANCH  44  47
ATOM     47  C49 MOL d          46.700  12.961   2.469  0.00  0.00     0.070 C 
ATOM     48  H17 MOL d          47.778  12.892   2.259  0.00  0.00     0.066 H 
ATOM     49  H18 MOL d          46.468  12.393   3.382  0.00  0.00     0.066 H 
BRANCH  47  50
ATOM     50  C50 MOL d          46.314  14.397   2.658  0.00  0.00    -0.043 A 
ATOM     51  C53 MOL d          47.284  15.243   3.325  0.00  0.00    -0.076 A 
ATOM     52  C54 MOL d          46.981  16.655   3.418  0.00  0.00    -0.082 A 
ATOM     53  H19 MOL d          48.198  14.835   3.739  0.00  0.00     0.084 H 
ATOM     54  C55 MOL d          45.718  17.163   2.885  0.00  0.00    -0.083 A 
ATOM     55  H20 MOL d          47.688  17.335   3.880  0.00  0.00     0.083 H 
ATOM     56  C56 MOL d          44.764  16.305   2.208  0.00  0.00    -0.082 A 
ATOM     57  H21 MOL d          45.487  18.216   3.000  0.00  0.00     0.083 H 
ATOM     58  C57 MOL d          45.053  14.885   2.092  0.00  0.00    -0.076 A 
ATOM     59  H22 MOL d          43.851  16.716   1.795  0.00  0.00     0.083 H 
ATOM     60  H23 MOL d          44.359  14.210   1.605  0.00  0.00     0.084 H 
ENDBRANCH  47  50
ENDBRANCH  44  47
ENDBRANCH   4  44
TORSDOF 10
ENDMDL
MODEL 6
REMARK VINA RESULT:      -6.7      3.549     11.275
REMARK  10 active torsions:
REMARK  status: ('A' for Active; 'I' for Inactive)
REMARK    1  A    between atoms: C2_2  and  C6_6 
REMARK    2  A    between atoms: C3_3  and  O20_16 
REMARK    3  A    between atoms: C5_5  and  C9_9 
REMARK    4  A    between atoms: C11_11  and  N29_21 
REMARK    5  A    between atoms: O20_16  and  C21_17 
REMARK    6  A    between atoms: C21_17  and  C22_18 
REMARK    7  A    between atoms: N29_21  and  C30_22 
REMARK    8  A    between atoms: N33_25  and  S46_28 
REMARK    9  A    between atoms: S46_28  and  C49_31 
REMARK   10  A    between atoms: C49_31  and  C50_32 
ROOT
ATOM      1  C30 MOL d          48.670   9.150   0.317  0.00  0.00     0.012 C 
ATOM      2  C31 MOL d          48.311  10.056   1.495  0.00  0.00    -0.031 C 
ATOM      3  C32 MOL d          46.823  10.273   1.652  0.00  0.00     0.007 C 
ATOM      4  N33 MOL d          46.301  10.662   0.341  0.00  0.00    -0.310 N 
ATOM      5  C34 MOL d          46.526   9.830  -0.844  0.00  0.00     0.007 C 
ATOM      6  C35 MOL d          48.008   9.602  -0.982  0.00  0.00    -0.031 C 
ATOM      7  H8  MOL d          48.334   8.127   0.541  0.00  0.00     0.072 H 
ATOM      8  H9  MOL d          48.793  11.033   1.344  0.00  0.00     0.038 H 
ATOM      9  H10 MOL d          48.695   9.597   2.419  0.00  0.00     0.038 H 
ATOM     10  H11 MOL d          46.635  11.072   2.384  0.00  0.00     0.065 H 
ATOM     11  H12 MOL d          46.341   9.345   1.989  0.00  0.00     0.065 H 
ATOM     12  H13 MOL d          46.143  10.344  -1.738  0.00  0.00     0.065 H 
ATOM     13  H14 MOL d          46.010   8.866  -0.726  0.00  0.00     0.065 H 
ATOM     14  H15 MOL d          48.173   8.830  -1.747  0.00  0.00     0.038 H 
ATOM     15  H16 MOL d          48.478  10.543  -1.304  0.00  0.00     0.038 H 
ENDROOT
BRANCH   1  16
ATOM     16  N29 MOL d          50.094   9.158   0.174  0.00  0.00    -0.385 N 
ATOM     17  H7  MOL d          50.579  10.065   0.110  0.00  0.00     0.160 HD
BRANCH  16  18
ATOM     18  C11 MOL d          50.833   8.018   0.118  0.00  0.00     0.029 A 
ATOM     19  C10 MOL d          50.729   7.205   1.292  0.00  0.00    -0.046 A 
ATOM     20  C9  MOL d          51.484   5.963   1.352  0.00  0.00    -0.015 A 
ATOM     21  H1  MOL d          50.099   7.509   2.120  0.00  0.00     0.088 H 
ATOM     22  C14 MOL d          52.293   5.535   0.217  0.00  0.00    -0.072 A 
ATOM     23  C13 MOL d          52.418   6.347  -0.959  0.00  0.00    -0.080 A 
ATOM     24  H4  MOL d          52.811   4.585   0.263  0.00  0.00     0.084 H 
ATOM     25  C12 MOL d          51.670   7.592  -1.001  0.00  0.00    -0.058 A 
ATOM     26  H3  MOL d          53.048   6.043  -1.787  0.00  0.00     0.083 H 
ATOM     27  H2  MOL d          51.735   8.219  -1.884  0.00  0.00     0.086 H 
BRANCH  20  28
ATOM     28  C5  MOL d          51.488   5.107   2.555  0.00  0.00     0.036 A 
ATOM     29  S1  MOL d          52.300   5.678   4.062  0.00  0.00    -0.078 SA
ATOM     30  C2  MOL d          51.836   4.204   4.963  0.00  0.00     0.117 A 
ATOM     31  C3  MOL d          51.147   3.390   4.182  0.00  0.00     0.112 A 
ATOM     32  C4  MOL d          50.916   3.924   2.831  0.00  0.00     0.064 A 
ATOM     33 BR19 MOL d          49.760   2.980   1.717  0.00  0.00    -0.047 Br
BRANCH  30  34
ATOM     34  C6  MOL d          52.337   3.997   6.305  0.00  0.00     0.219 C 
ATOM     35  O7  MOL d          51.896   4.849   7.105  0.00  0.00    -0.643 OA
ATOM     36  O8  MOL d          53.127   3.083   6.627  0.00  0.00    -0.643 OA
ENDBRANCH  30  34
BRANCH  31  37
ATOM     37  O20 MOL d          50.659   2.250   4.649  0.00  0.00    -0.338 OA
BRANCH  37  38
ATOM     38  C21 MOL d          49.441   2.344   5.358  0.00  0.00     0.106 C 
ATOM     39  H5  MOL d          48.824   3.159   4.952  0.00  0.00     0.091 H 
ATOM     40  H6  MOL d          49.634   2.527   6.425  0.00  0.00     0.091 H 
BRANCH  38  41
ATOM     41  C22 MOL d          48.768   1.057   5.176  0.00  0.00     0.198 C 
ATOM     42  O25 MOL d          49.136   0.391   4.191  0.00  0.00    -0.646 OA
ATOM     43  O26 MOL d          47.887   0.692   5.987  0.00  0.00    -0.646 OA
ENDBRANCH  38  41
ENDBRANCH  37  38
ENDBRANCH  31  37
ENDBRANCH  20  28
ENDBRANCH  16  18
ENDBRANCH   1  16
BRANCH   4  44
ATOM     44  S46 MOL d          44.942  11.693   0.262  0.00  0.00     0.232 S 
ATOM     45  O47 MOL d          44.390  11.714   1.597  0.00  0.00    -0.205 OA
ATOM     46  O48 MOL d          44.135  11.210  -0.844  0.00  0.00    -0.205 OA
BRANCH  44  47
ATOM     47  C49 MOL d          45.722  13.299  -0.017  0.00  0.00     0.070 C 
ATOM     48  H17 MOL d          45.204  13.825  -0.833  0.00  0.00     0.066 H 
ATOM     49  H18 MOL d          46.778  13.155  -0.287  0.00  0.00     0.066 H 
BRANCH  47  50
ATOM     50  C50 MOL d          45.628  14.105   1.243  0.00  0.00    -0.043 A 
ATOM     51  C53 MOL d          44.508  15.019   1.342  0.00  0.00    -0.076 A 
ATOM     52  C54 MOL d          44.335  15.725   2.594  0.00  0.00    -0.082 A 
ATOM     53  H19 MOL d          43.827  15.169   0.512  0.00  0.00     0.084 H 
ATOM     54  C55 MOL d          45.297  15.528   3.676  0.00  0.00    -0.083 A 
ATOM     55  H20 MOL d          43.494  16.396   2.729  0.00  0.00     0.083 H 
ATOM     56  C56 MOL d          46.407  14.599   3.565  0.00  0.00    -0.082 A 
ATOM     57  H21 MOL d          45.178  16.096   4.592  0.00  0.00     0.083 H 
ATOM     58  C57 MOL d          46.593  13.871   2.322  0.00  0.00    -0.076 A 
ATOM     59  H22 MOL d          47.086  14.451   4.397  0.00  0.00     0.083 H 
ATOM     60  H23 MOL d          47.417  13.178   2.196  0.00  0.00     0.084 H 
ENDBRANCH  47  50
ENDBRANCH  44  47
ENDBRANCH   4  44
TORSDOF 10
ENDMDL
MODEL 7
REMARK VINA RESULT:      -6.6      3.335     11.621
REMARK  10 active torsions:
REMARK  status: ('A' for Active; 'I' for Inactive)
REMARK    1  A    between atoms: C2_2  and  C6_6 
REMARK    2  A    between atoms: C3_3  and  O20_16 
REMARK    3  A    between atoms: C5_5  and  C9_9 
REMARK    4  A    between atoms: C11_11  and  N29_21 
REMARK    5  A    between atoms: O20_16  and  C21_17 
REMARK    6  A    between atoms: C21_17  and  C22_18 
REMARK    7  A    between atoms: N29_21  and  C30_22 
REMARK    8  A    between atoms: N33_25  and  S46_28 
REMARK    9  A    between atoms: S46_28  and  C49_31 
REMARK   10  A    between atoms: C49_31  and  C50_32 
ROOT
ATOM      1  C30 MOL d          48.960   9.368   0.743  0.00  0.00     0.012 C 
ATOM      2  C31 MOL d          48.222   9.578   2.066  0.00  0.00    -0.031 C 
ATOM      3  C32 MOL d          46.828  10.137   1.892  0.00  0.00     0.007 C 
ATOM      4  N33 MOL d          46.932  11.298   1.007  0.00  0.00    -0.310 N 
ATOM      5  C34 MOL d          47.557  11.192  -0.314  0.00  0.00     0.007 C 
ATOM      6  C35 MOL d          48.938  10.618  -0.135  0.00  0.00    -0.031 C 
ATOM      7  H8  MOL d          48.476   8.549   0.192  0.00  0.00     0.072 H 
ATOM      8  H9  MOL d          48.804  10.278   2.682  0.00  0.00     0.038 H 
ATOM      9  H10 MOL d          48.148   8.609   2.582  0.00  0.00     0.038 H 
ATOM     10  H11 MOL d          46.422  10.442   2.867  0.00  0.00     0.065 H 
ATOM     11  H12 MOL d          46.172   9.378   1.442  0.00  0.00     0.065 H 
ATOM     12  H13 MOL d          47.625  12.189  -0.775  0.00  0.00     0.065 H 
ATOM     13  H14 MOL d          46.958  10.531  -0.958  0.00  0.00     0.065 H 
ATOM     14  H15 MOL d          49.339  10.358  -1.125  0.00  0.00     0.038 H 
ATOM     15  H16 MOL d          49.577  11.383   0.330  0.00  0.00     0.038 H 
ENDROOT
BRANCH   1  16
ATOM     16  N29 MOL d          50.310   9.002   1.045  0.00  0.00    -0.385 N 
ATOM     17  H7  MOL d          50.911   9.685   1.529  0.00  0.00     0.160 HD
BRANCH  16  18
ATOM     18  C11 MOL d          50.831   7.789   0.719  0.00  0.00     0.029 A 
ATOM     19  C10 MOL d          50.537   6.760   1.669  0.00  0.00    -0.046 A 
ATOM     20  C9  MOL d          51.052   5.421   1.432  0.00  0.00    -0.015 A 
ATOM     21  H1  MOL d          49.941   6.975   2.549  0.00  0.00     0.088 H 
ATOM     22  C14 MOL d          51.813   5.125   0.224  0.00  0.00    -0.072 A 
ATOM     23  C13 MOL d          52.128   6.151  -0.729  0.00  0.00    -0.080 A 
ATOM     24  H4  MOL d          52.149   4.111   0.043  0.00  0.00     0.084 H 
ATOM     25  C12 MOL d          51.620   7.487  -0.474  0.00  0.00    -0.058 A 
ATOM     26  H3  MOL d          52.724   5.935  -1.608  0.00  0.00     0.083 H 
ATOM     27  H2  MOL d          51.831   8.279  -1.184  0.00  0.00     0.086 H 
BRANCH  20  28
ATOM     28  C5  MOL d          50.854   4.323   2.400  0.00  0.00     0.036 A 
ATOM     29  S1  MOL d          51.708   4.363   3.990  0.00  0.00    -0.078 SA
ATOM     30  C2  MOL d          50.946   2.836   4.525  0.00  0.00     0.117 A 
ATOM     31  C3  MOL d          50.143   2.372   3.582  0.00  0.00     0.112 A 
ATOM     32  C4  MOL d          50.062   3.240   2.397  0.00  0.00     0.064 A 
ATOM     33 BR19 MOL d          48.788   2.819   1.106  0.00  0.00    -0.047 Br
BRANCH  30  34
ATOM     34  C6  MOL d          51.354   2.231   5.774  0.00  0.00     0.219 C 
ATOM     35  O7  MOL d          52.330   1.465   5.626  0.00  0.00    -0.643 OA
ATOM     36  O8  MOL d          50.792   2.439   6.873  0.00  0.00    -0.643 OA
ENDBRANCH  30  34
BRANCH  31  37
ATOM     37  O20 MOL d          49.435   1.269   3.774  0.00  0.00    -0.338 OA
BRANCH  37  38
ATOM     38  C21 MOL d          48.245   1.421   4.520  0.00  0.00     0.106 C 
ATOM     39  H5  MOL d          47.952   2.480   4.561  0.00  0.00     0.091 H 
ATOM     40  H6  MOL d          48.383   1.039   5.542  0.00  0.00     0.091 H 
BRANCH  38  41
ATOM     41  C22 MOL d          47.226   0.638   3.818  0.00  0.00     0.198 C 
ATOM     42  O25 MOL d          46.079   0.693   4.299  0.00  0.00    -0.646 OA
ATOM     43  O26 MOL d          47.537  -0.026   2.803  0.00  0.00    -0.646 OA
ENDBRANCH  38  41
ENDBRANCH  37  38
ENDBRANCH  31  37
ENDBRANCH  20  28
ENDBRANCH  16  18
ENDBRANCH   1  16
BRANCH   4  44
ATOM     44  S46 MOL d          45.821  12.582   1.189  0.00  0.00     0.232 S 
ATOM     45  O47 MOL d          44.551  11.959   1.484  0.00  0.00    -0.205 OA
ATOM     46  O48 MOL d          45.962  13.406   0.003  0.00  0.00    -0.205 OA
BRANCH  44  47
ATOM     47  C49 MOL d          46.405  13.350   2.717  0.00  0.00     0.070 C 
ATOM     48  H17 MOL d          47.489  13.195   2.818  0.00  0.00     0.066 H 
ATOM     49  H18 MOL d          45.888  12.901   3.578  0.00  0.00     0.066 H 
BRANCH  47  50
ATOM     50  C50 MOL d          46.108  14.819   2.661  0.00  0.00    -0.043 A 
ATOM     51  C53 MOL d          44.761  15.190   2.272  0.00  0.00    -0.076 A 
ATOM     52  C54 MOL d          44.420  16.596   2.321  0.00  0.00    -0.082 A 
ATOM     53  H19 MOL d          44.040  14.446   1.957  0.00  0.00     0.084 H 
ATOM     54  C55 MOL d          45.433  17.575   2.710  0.00  0.00    -0.083 A 
ATOM     55  H20 MOL d          43.417  16.921   2.069  0.00  0.00     0.083 H 
ATOM     56  C56 MOL d          46.773  17.185   3.110  0.00  0.00    -0.082 A 
ATOM     57  H21 MOL d          45.174  18.628   2.700  0.00  0.00     0.083 H 
ATOM     58  C57 MOL d          47.134  15.778   3.080  0.00  0.00    -0.076 A 
ATOM     59  H22 MOL d          47.492  17.932   3.425  0.00  0.00     0.083 H 
ATOM     60  H23 MOL d          48.128  15.449   3.359  0.00  0.00     0.084 H 
ENDBRANCH  47  50
ENDBRANCH  44  47
ENDBRANCH   4  44
TORSDOF 10
ENDMDL
MODEL 8
REMARK VINA RESULT:      -6.3      3.100     11.470
REMARK  10 active torsions:
REMARK  status: ('A' for Active; 'I' for Inactive)
REMARK    1  A    between atoms: C2_2  and  C6_6 
REMARK    2  A    between atoms: C3_3  and  O20_16 
REMARK    3  A    between atoms: C5_5  and  C9_9 
REMARK    4  A    between atoms: C11_11  and  N29_21 
REMARK    5  A    between atoms: O20_16  and  C21_17 
REMARK    6  A    between atoms: C21_17  and  C22_18 
REMARK    7  A    between atoms: N29_21  and  C30_22 
REMARK    8  A    between atoms: N33_25  and  S46_28 
REMARK    9  A    between atoms: S46_28  and  C49_31 
REMARK   10  A    between atoms: C49_31  and  C50_32 
ROOT
ATOM      1  C30 MOL d          46.781   8.440   0.958  0.00  0.00     0.012 C 
ATOM      2  C31 MOL d          47.786   9.422   1.562  0.00  0.00    -0.031 C 
ATOM      3  C32 MOL d          47.135  10.617   2.219  0.00  0.00     0.007 C 
ATOM      4  N33 MOL d          46.171  11.167   1.265  0.00  0.00    -0.310 N 
ATOM      5  C34 MOL d          45.120  10.331   0.679  0.00  0.00     0.007 C 
ATOM      6  C35 MOL d          45.775   9.133   0.042  0.00  0.00    -0.031 C 
ATOM      7  H8  MOL d          46.228   7.951   1.774  0.00  0.00     0.072 H 
ATOM      8  H9  MOL d          48.446   9.782   0.759  0.00  0.00     0.038 H 
ATOM      9  H10 MOL d          48.383   8.890   2.317  0.00  0.00     0.038 H 
ATOM     10  H11 MOL d          47.895  11.372   2.464  0.00  0.00     0.065 H 
ATOM     11  H12 MOL d          46.618  10.305   3.139  0.00  0.00     0.065 H 
ATOM     12  H13 MOL d          44.570  10.903  -0.082  0.00  0.00     0.065 H 
ATOM     13  H14 MOL d          44.424  10.001   1.464  0.00  0.00     0.065 H 
ATOM     14  H15 MOL d          44.993   8.410  -0.230  0.00  0.00     0.038 H 
ATOM     15  H16 MOL d          46.300   9.463  -0.866  0.00  0.00     0.038 H 
ENDROOT
BRANCH   1  16
ATOM     16  N29 MOL d          47.515   7.453   0.227  0.00  0.00    -0.385 N 
ATOM     17  H7  MOL d          46.997   6.798  -0.377  0.00  0.00     0.160 HD
BRANCH  16  18
ATOM     18  C11 MOL d          48.869   7.344   0.297  0.00  0.00     0.029 A 
ATOM     19  C10 MOL d          49.319   6.255   1.109  0.00  0.00    -0.046 A 
ATOM     20  C9  MOL d          50.750   6.045   1.268  0.00  0.00    -0.015 A 
ATOM     21  H1  MOL d          48.608   5.599   1.597  0.00  0.00     0.088 H 
ATOM     22  C14 MOL d          51.703   6.901   0.572  0.00  0.00    -0.072 A 
ATOM     23  C13 MOL d          51.266   8.004  -0.234  0.00  0.00    -0.080 A 
ATOM     24  H4  MOL d          52.764   6.700   0.665  0.00  0.00     0.084 H 
ATOM     25  C12 MOL d          49.835   8.212  -0.373  0.00  0.00    -0.058 A 
ATOM     26  H3  MOL d          51.978   8.660  -0.722  0.00  0.00     0.083 H 
ATOM     27  H2  MOL d          49.475   9.031  -0.987  0.00  0.00     0.086 H 
BRANCH  20  28
ATOM     28  C5  MOL d          51.294   4.991   2.147  0.00  0.00     0.036 A 
ATOM     29  S1  MOL d          51.504   3.313   1.515  0.00  0.00    -0.078 SA
ATOM     30  C2  MOL d          52.198   2.735   3.059  0.00  0.00     0.117 A 
ATOM     31  C3  MOL d          52.249   3.725   3.934  0.00  0.00     0.112 A 
ATOM     32  C4  MOL d          51.775   5.011   3.400  0.00  0.00     0.064 A 
ATOM     33 BR19 MOL d          52.019   6.525   4.456  0.00  0.00    -0.047 Br
BRANCH  30  34
ATOM     34  C6  MOL d          52.482   1.327   3.234  0.00  0.00     0.219 C 
ATOM     35  O7  MOL d          53.499   0.973   2.599  0.00  0.00    -0.643 OA
ATOM     36  O8  MOL d          51.789   0.551   3.928  0.00  0.00    -0.643 OA
ENDBRANCH  30  34
BRANCH  31  37
ATOM     37  O20 MOL d          52.769   3.540   5.139  0.00  0.00    -0.338 OA
BRANCH  37  38
ATOM     38  C21 MOL d          51.864   3.622   6.221  0.00  0.00     0.106 C 
ATOM     39  H5  MOL d          50.851   3.849   5.856  0.00  0.00     0.091 H 
ATOM     40  H6  MOL d          52.182   4.404   6.927  0.00  0.00     0.091 H 
BRANCH  38  41
ATOM     41  C22 MOL d          51.890   2.311   6.870  0.00  0.00     0.198 C 
ATOM     42  O25 MOL d          50.778   1.811   7.118  0.00  0.00    -0.646 OA
ATOM     43  O26 MOL d          52.986   1.767   7.136  0.00  0.00    -0.646 OA
ENDBRANCH  38  41
ENDBRANCH  37  38
ENDBRANCH  31  37
ENDBRANCH  20  28
ENDBRANCH  16  18
ENDBRANCH   1  16
BRANCH   4  44
ATOM     44  S46 MOL d          45.841  12.842   1.291  0.00  0.00     0.232 S 
ATOM     45  O47 MOL d          44.401  12.955   1.332  0.00  0.00    -0.205 OA
ATOM     46  O48 MOL d          46.578  13.414   0.179  0.00  0.00    -0.205 OA
BRANCH  44  47
ATOM     47  C49 MOL d          46.458  13.306   2.925  0.00  0.00     0.070 C 
ATOM     48  H17 MOL d          47.485  12.932   3.053  0.00  0.00     0.066 H 
ATOM     49  H18 MOL d          45.811  12.872   3.701  0.00  0.00     0.066 H 
BRANCH  47  50
ATOM     50  C50 MOL d          46.448  14.801   3.037  0.00  0.00    -0.043 A 
ATOM     51  C53 MOL d          45.188  15.461   2.755  0.00  0.00    -0.076 A 
ATOM     52  C54 MOL d          45.126  16.891   2.966  0.00  0.00    -0.082 A 
ATOM     53  H19 MOL d          44.328  14.905   2.401  0.00  0.00     0.084 H 
ATOM     54  C55 MOL d          46.319  17.612   3.405  0.00  0.00    -0.083 A 
ATOM     55  H20 MOL d          44.198  17.426   2.799  0.00  0.00     0.083 H 
ATOM     56  C56 MOL d          47.570  16.934   3.696  0.00  0.00    -0.082 A 
ATOM     57  H21 MOL d          46.268  18.689   3.517  0.00  0.00     0.083 H 
ATOM     58  C57 MOL d          47.652  15.496   3.503  0.00  0.00    -0.076 A 
ATOM     59  H22 MOL d          48.428  17.492   4.051  0.00  0.00     0.083 H 
ATOM     60  H23 MOL d          48.571  14.957   3.696  0.00  0.00     0.084 H 
ENDBRANCH  47  50
ENDBRANCH  44  47
ENDBRANCH   4  44
TORSDOF 10
ENDMDL
MODEL 9
REMARK VINA RESULT:      -5.5      4.081     11.320
REMARK  10 active torsions:
REMARK  status: ('A' for Active; 'I' for Inactive)
REMARK    1  A    between atoms: C2_2  and  C6_6 
REMARK    2  A    between atoms: C3_3  and  O20_16 
REMARK    3  A    between atoms: C5_5  and  C9_9 
REMARK    4  A    between atoms: C11_11  and  N29_21 
REMARK    5  A    between atoms: O20_16  and  C21_17 
REMARK    6  A    between atoms: C21_17  and  C22_18 
REMARK    7  A    between atoms: N29_21  and  C30_22 
REMARK    8  A    between atoms: N33_25  and  S46_28 
REMARK    9  A    between atoms: S46_28  and  C49_31 
REMARK   10  A    between atoms: C49_31  and  C50_32 
ROOT
ATOM      1  C30 MOL d          49.358   8.447   1.304  0.00  0.00     0.012 C 
ATOM      2  C31 MOL d          48.100   8.661   2.147  0.00  0.00    -0.031 C 
ATOM      3  C32 MOL d          46.837   8.766   1.323  0.00  0.00     0.007 C 
ATOM      4  N33 MOL d          47.091   9.743   0.263  0.00  0.00    -0.310 N 
ATOM      5  C34 MOL d          48.229   9.597  -0.649  0.00  0.00     0.007 C 
ATOM      6  C35 MOL d          49.481   9.473   0.180  0.00  0.00    -0.031 C 
ATOM      7  H8  MOL d          49.319   7.443   0.856  0.00  0.00     0.072 H 
ATOM      8  H9  MOL d          48.219   9.590   2.723  0.00  0.00     0.038 H 
ATOM      9  H10 MOL d          47.995   7.811   2.839  0.00  0.00     0.038 H 
ATOM     10  H11 MOL d          46.003   9.105   1.954  0.00  0.00     0.065 H 
ATOM     11  H12 MOL d          46.592   7.789   0.883  0.00  0.00     0.065 H 
ATOM     12  H13 MOL d          48.300  10.480  -1.301  0.00  0.00     0.065 H 
ATOM     13  H14 MOL d          48.099   8.695  -1.265  0.00  0.00     0.065 H 
ATOM     14  H15 MOL d          50.308   9.173  -0.479  0.00  0.00     0.038 H 
ATOM     15  H16 MOL d          49.703  10.454   0.625  0.00  0.00     0.038 H 
ENDROOT
BRANCH   1  16
ATOM     16  N29 MOL d          50.490   8.532   2.175  0.00  0.00    -0.385 N 
ATOM     17  H7  MOL d          50.976   9.435   2.268  0.00  0.00     0.160 HD
BRANCH  16  18
ATOM     18  C11 MOL d          50.951   7.468   2.885  0.00  0.00     0.029 A 
ATOM     19  C10 MOL d          50.393   6.215   2.476  0.00  0.00    -0.046 A 
ATOM     20  C9  MOL d          50.804   5.005   3.171  0.00  0.00    -0.015 A 
ATOM     21  H1  MOL d          49.678   6.169   1.663  0.00  0.00     0.088 H 
ATOM     22  C14 MOL d          51.801   5.066   4.232  0.00  0.00    -0.072 A 
ATOM     23  C13 MOL d          52.358   6.316   4.662  0.00  0.00    -0.080 A 
ATOM     24  H4  MOL d          52.129   4.148   4.707  0.00  0.00     0.084 H 
ATOM     25  C12 MOL d          51.929   7.519   3.970  0.00  0.00    -0.058 A 
ATOM     26  H3  MOL d          53.074   6.362   5.476  0.00  0.00     0.083 H 
ATOM     27  H2  MOL d          52.344   8.477   4.265  0.00  0.00     0.086 H 
BRANCH  20  28
ATOM     28  C5  MOL d          50.219   3.685   2.857  0.00  0.00     0.036 A 
ATOM     29  S1  MOL d          49.001   2.955   3.971  0.00  0.00    -0.078 SA
ATOM     30  C2  MOL d          48.790   1.520   2.924  0.00  0.00     0.117 A 
ATOM     31  C3  MOL d          49.570   1.613   1.860  0.00  0.00     0.112 A 
ATOM     32  C4  MOL d          50.347   2.861   1.805  0.00  0.00     0.064 A 
ATOM     33 BR19 MOL d          51.299   3.216   0.245  0.00  0.00    -0.047 Br
BRANCH  30  34
ATOM     34  C6  MOL d          47.962   0.422   3.372  0.00  0.00     0.219 C 
ATOM     35  O7  MOL d          47.241  -0.025   2.454  0.00  0.00    -0.643 OA
ATOM     36  O8  MOL d          47.956  -0.023   4.541  0.00  0.00    -0.643 OA
ENDBRANCH  30  34
BRANCH  31  37
ATOM     37  O20 MOL d          49.551   0.681   0.919  0.00  0.00    -0.338 OA
BRANCH  37  38
ATOM     38  C21 MOL d          49.451   1.148  -0.411  0.00  0.00     0.106 C 
ATOM     39  H5  MOL d          49.878   0.412  -1.108  0.00  0.00     0.091 H 
ATOM     40  H6  MOL d          49.981   2.106  -0.520  0.00  0.00     0.091 H 
BRANCH  38  41
ATOM     41  C22 MOL d          48.022   1.325  -0.670  0.00  0.00     0.198 C 
ATOM     42  O25 MOL d          47.645   2.501  -0.834  0.00  0.00    -0.646 OA
ATOM     43  O26 MOL d          47.266   0.328  -0.716  0.00  0.00    -0.646 OA
ENDBRANCH  38  41
ENDBRANCH  37  38
ENDBRANCH  31  37
ENDBRANCH  20  28
ENDBRANCH  16  18
ENDBRANCH   1  16
BRANCH   4  44
ATOM     44  S46 MOL d          45.791  10.674  -0.337  0.00  0.00     0.232 S 
ATOM     45  O47 MOL d          44.939   9.745  -1.043  0.00  0.00    -0.205 OA
ATOM     46  O48 MOL d          46.389  11.788  -1.049  0.00  0.00    -0.205 OA
BRANCH  44  47
ATOM     47  C49 MOL d          44.936  11.125   1.190  0.00  0.00     0.070 C 
ATOM     48  H17 MOL d          45.214  10.424   1.991  0.00  0.00     0.066 H 
ATOM     49  H18 MOL d          43.849  11.086   1.031  0.00  0.00     0.066 H 
BRANCH  47  50
ATOM     50  C50 MOL d          45.340  12.517   1.575  0.00  0.00    -0.043 A 
ATOM     51  C53 MOL d          44.520  13.593   1.055  0.00  0.00    -0.076 A 
ATOM     52  C54 MOL d          44.823  14.935   1.504  0.00  0.00    -0.082 A 
ATOM     53  H19 MOL d          43.714  13.401   0.357  0.00  0.00     0.084 H 
ATOM     54  C55 MOL d          45.946  15.160   2.413  0.00  0.00    -0.083 A 
ATOM     55  H20 MOL d          44.220  15.771   1.167  0.00  0.00     0.083 H 
ATOM     56  C56 MOL d          46.748  14.069   2.935  0.00  0.00    -0.082 A 
ATOM     57  H21 MOL d          46.186  16.175   2.706  0.00  0.00     0.083 H 
ATOM     58  C57 MOL d          46.454  12.712   2.507  0.00  0.00    -0.076 A 
ATOM     59  H22 MOL d          47.554  14.265   3.633  0.00  0.00     0.083 H 
ATOM     60  H23 MOL d          47.039  11.873   2.865  0.00  0.00     0.084 H 
ENDBRANCH  47  50
ENDBRANCH  44  47
ENDBRANCH   4  44
TORSDOF 10
ENDMDL
MODEL 10
REMARK VINA RESULT:      -5.3      2.984     10.706
REMARK  10 active torsions:
REMARK  status: ('A' for Active; 'I' for Inactive)
REMARK    1  A    between atoms: C2_2  and  C6_6 
REMARK    2  A    between atoms: C3_3  and  O20_16 
REMARK    3  A    between atoms: C5_5  and  C9_9 
REMARK    4  A    between atoms: C11_11  and  N29_21 
REMARK    5  A    between atoms: O20_16  and  C21_17 
REMARK    6  A    between atoms: C21_17  and  C22_18 
REMARK    7  A    between atoms: N29_21  and  C30_22 
REMARK    8  A    between atoms: N33_25  and  S46_28 
REMARK    9  A    between atoms: S46_28  and  C49_31 
REMARK   10  A    between atoms: C49_31  and  C50_32 
ROOT
ATOM      1  C30 MOL d          46.941  11.343   1.786  0.00  0.00     0.012 C 
ATOM      2  C31 MOL d          47.264  12.625   1.017  0.00  0.00    -0.031 C 
ATOM      3  C32 MOL d          47.700  13.765   1.909  0.00  0.00     0.007 C 
ATOM      4  N33 MOL d          46.713  13.876   2.985  0.00  0.00    -0.310 N 
ATOM      5  C34 MOL d          46.379  12.727   3.831  0.00  0.00     0.007 C 
ATOM      6  C35 MOL d          45.964  11.590   2.934  0.00  0.00    -0.031 C 
ATOM      7  H8  MOL d          47.872  10.935   2.204  0.00  0.00     0.072 H 
ATOM      8  H9  MOL d          46.366  12.937   0.465  0.00  0.00     0.038 H 
ATOM      9  H10 MOL d          48.075  12.409   0.305  0.00  0.00     0.038 H 
ATOM     10  H11 MOL d          47.735  14.701   1.333  0.00  0.00     0.065 H 
ATOM     11  H12 MOL d          48.694  13.555   2.329  0.00  0.00     0.065 H 
ATOM     12  H13 MOL d          45.552  12.990   4.506  0.00  0.00     0.065 H 
ATOM     13  H14 MOL d          47.257  12.433   4.424  0.00  0.00     0.065 H 
ATOM     14  H15 MOL d          45.897  10.674   3.540  0.00  0.00     0.038 H 
ATOM     15  H16 MOL d          44.977  11.822   2.510  0.00  0.00     0.038 H 
ENDROOT
BRANCH   1  16
ATOM     16  N29 MOL d          46.385  10.403   0.861  0.00  0.00    -0.385 N 
ATOM     17  H7  MOL d          45.466  10.605   0.444  0.00  0.00     0.160 HD
BRANCH  16  18
ATOM     18  C11 MOL d          47.023   9.254   0.510  0.00  0.00     0.029 A 
ATOM     19  C10 MOL d          47.798   8.679   1.567  0.00  0.00    -0.046 A 
ATOM     20  C9  MOL d          48.535   7.452   1.307  0.00  0.00    -0.015 A 
ATOM     21  H1  MOL d          47.834   9.148   2.543  0.00  0.00     0.088 H 
ATOM     22  C14 MOL d          48.445   6.799   0.007  0.00  0.00    -0.072 A 
ATOM     23  C13 MOL d          47.684   7.373  -1.066  0.00  0.00    -0.080 A 
ATOM     24  H4  MOL d          48.964   5.861  -0.153  0.00  0.00     0.084 H 
ATOM     25  C12 MOL d          46.964   8.605  -0.798  0.00  0.00    -0.058 A 
ATOM     26  H3  MOL d          47.648   6.903  -2.042  0.00  0.00     0.083 H 
ATOM     27  H2  MOL d          46.370   9.054  -1.586  0.00  0.00     0.086 H 
BRANCH  20  28
ATOM     28  C5  MOL d          49.414   6.836   2.322  0.00  0.00     0.036 A 
ATOM     29  S1  MOL d          50.594   7.859   3.227  0.00  0.00    -0.078 SA
ATOM     30  C2  MOL d          51.166   6.472   4.201  0.00  0.00     0.117 A 
ATOM     31  C3  MOL d          50.519   5.373   3.853  0.00  0.00     0.112 A 
ATOM     32  C4  MOL d          49.497   5.592   2.818  0.00  0.00     0.064 A 
ATOM     33 BR19 MOL d          48.359   4.174   2.415  0.00  0.00    -0.047 Br
BRANCH  30  34
ATOM     34  C6  MOL d          52.287   6.642   5.100  0.00  0.00     0.219 C 
ATOM     35  O7  MOL d          52.598   7.844   5.236  0.00  0.00    -0.643 OA
ATOM     36  O8  MOL d          52.882   5.699   5.667  0.00  0.00    -0.643 OA
ENDBRANCH  30  34
BRANCH  31  37
ATOM     37  O20 MOL d          50.747   4.224   4.473  0.00  0.00    -0.338 OA
BRANCH  37  38
ATOM     38  C21 MOL d          49.909   3.939   5.574  0.00  0.00     0.106 C 
ATOM     39  H5  MOL d          48.871   4.225   5.348  0.00  0.00     0.091 H 
ATOM     40  H6  MOL d          50.253   4.482   6.466  0.00  0.00     0.091 H 
BRANCH  38  41
ATOM     41  C22 MOL d          50.003   2.495   5.790  0.00  0.00     0.198 C 
ATOM     42  O25 MOL d          48.930   1.917   6.045  0.00  0.00    -0.646 OA
ATOM     43  O26 MOL d          51.114   1.921   5.711  0.00  0.00    -0.646 OA
ENDBRANCH  38  41
ENDBRANCH  37  38
ENDBRANCH  31  37
ENDBRANCH  20  28
ENDBRANCH  16  18
ENDBRANCH   1  16
BRANCH   4  44
ATOM     44  S46 MOL d          46.413  15.407   3.680  0.00  0.00     0.232 S 
ATOM     45  O47 MOL d          47.073  16.361   2.820  0.00  0.00    -0.205 OA
ATOM     46  O48 MOL d          46.805  15.299   5.073  0.00  0.00    -0.205 OA
BRANCH  44  47
ATOM     47  C49 MOL d          44.636  15.584   3.408  0.00  0.00     0.070 C 
ATOM     48  H17 MOL d          44.280  16.513   3.878  0.00  0.00     0.066 H 
ATOM     49  H18 MOL d          44.107  14.725   3.847  0.00  0.00     0.066 H 
BRANCH  47  50
ATOM     50  C50 MOL d          44.377  15.634   1.932  0.00  0.00    -0.043 A 
ATOM     51  C53 MOL d          44.543  14.391   1.205  0.00  0.00    -0.076 A 
ATOM     52  C54 MOL d          44.191  14.390  -0.198  0.00  0.00    -0.082 A 
ATOM     53  H19 MOL d          44.917  13.499   1.693  0.00  0.00     0.084 H 
ATOM     54  C55 MOL d          43.730  15.624  -0.831  0.00  0.00    -0.083 A 
ATOM     55  H20 MOL d          44.268  13.478  -0.778  0.00  0.00     0.083 H 
ATOM     56  C56 MOL d          43.556  16.858  -0.086  0.00  0.00    -0.082 A 
ATOM     57  H21 MOL d          43.511  15.618  -1.893  0.00  0.00     0.083 H 
ATOM     58  C57 MOL d          43.892  16.879   1.327  0.00  0.00    -0.076 A 
ATOM     59  H22 MOL d          43.182  17.749  -0.576  0.00  0.00     0.083 H 
ATOM     60  H23 MOL d          43.789  17.784   1.915  0.00  0.00     0.084 H 
ENDBRANCH  47  50
ENDBRANCH  44  47
ENDBRANCH   4  44
TORSDOF 10
ENDMDL
