MODEL 1
REMARK VINA RESULT:      -9.0      0.000      0.000
REMARK  11 active torsions:
REMARK  status: ('A' for Active; 'I' for Inactive)
REMARK    1  A    between atoms: C20_3  and  C36_4 
REMARK    2  A    between atoms: C16_8  and  C35_9 
REMARK    3  A    between atoms: C5_13  and  O36_14 
REMARK    4  A    between atoms: C8_19  and  C25_20 
REMARK    5  A    between atoms: C10_22  and  O26_23 
REMARK    6  A    between atoms: O26_23  and  C27_24 
REMARK    7  A    between atoms: C11_25  and  O28_26 
REMARK    8  A    between atoms: C12_27  and  C29_28 
REMARK    9  A    between atoms: C14_30  and  C30_31 
REMARK   10  A    between atoms: C15_32  and  O31_33 
REMARK   11  A    between atoms: O31_33  and  C32_34 
REMARK       I    between atoms: C32_34  and  N34_36 
ROOT
ATOM      1  O37 BC6 d          41.211  -5.415  41.835  0.00  0.00    -0.268 OA
ATOM      2  C21 BC6 d          41.189  -5.877  40.697  0.00  0.00     0.251 C 
ATOM      3  C20 BC6 d          41.530  -7.285  40.568  0.00  0.00     0.002 C 
ATOM      4  C19 BC6 d          40.627  -8.139  39.997  0.00  0.00    -0.092 C 
ATOM      5  C18 BC6 d          40.770  -9.613  39.786  0.00  0.00    -0.049 C 
ATOM      6  C17 BC6 d          39.988  -9.952  38.514  0.00  0.00    -0.057 C 
ATOM      7  C16 BC6 d          38.473 -10.019  38.688  0.00  0.00    -0.028 C 
ATOM      8  N22 BC6 d          40.868  -5.069  39.674  0.00  0.00    -0.323 N 
ATOM      9  C3  BC6 d          41.084  -5.318  38.340  0.00  0.00     0.038 A 
ATOM     10  C4  BC6 d          40.098  -4.943  37.443  0.00  0.00    -0.025 A 
ATOM     11  C5  BC6 d          40.249  -5.161  36.072  0.00  0.00     0.068 A 
ATOM     12  C6  BC6 d          41.397  -5.769  35.570  0.00  0.00    -0.045 A 
ATOM     13  C1  BC6 d          42.403  -6.167  36.477  0.00  0.00    -0.053 A 
ATOM     14  C2  BC6 d          42.244  -5.916  37.845  0.00  0.00    -0.051 A 
ATOM     15  C7  BC6 d          43.663  -6.870  36.017  0.00  0.00    -0.038 C 
ATOM     16  C8  BC6 d          43.496  -8.405  35.892  0.00  0.00    -0.051 C 
ATOM     17  C9  BC6 d          42.378  -8.779  34.877  0.00  0.00    -0.035 C 
ATOM     18  C10 BC6 d          42.063 -10.263  34.718  0.00  0.00     0.063 C 
ATOM     19  C11 BC6 d          41.011 -10.523  33.639  0.00  0.00     0.067 C 
ATOM     20  C12 BC6 d          39.692  -9.805  33.947  0.00  0.00    -0.014 C 
ATOM     21  C13 BC6 d          39.062 -10.334  35.232  0.00  0.00    -0.092 C 
ATOM     22  C14 BC6 d          38.364  -9.630  36.170  0.00  0.00    -0.058 C 
ATOM     23  C15 BC6 d          37.803 -10.403  37.343  0.00  0.00     0.074 C 
ATOM     24  H4  BC6 d          39.694  -7.694  39.656  0.00  0.00     0.077 H 
ATOM     25  H5  BC6 d          40.354 -10.161  40.644  0.00  0.00     0.038 H 
ATOM     26  H6  BC6 d          41.830  -9.877  39.661  0.00  0.00     0.038 H 
ATOM     27  H7  BC6 d          40.333 -10.932  38.152  0.00  0.00     0.034 H 
ATOM     28  H8  BC6 d          40.211  -9.184  37.760  0.00  0.00     0.034 H 
ATOM     29  H9  BC6 d          38.121  -9.017  38.976  0.00  0.00     0.043 H 
ATOM     30  H13 BC6 d          40.430  -4.200  39.906  0.00  0.00     0.169 HD
ATOM     31  H14 BC6 d          39.193  -4.473  37.812  0.00  0.00     0.091 H 
ATOM     32  H16 BC6 d          41.515  -5.935  34.506  0.00  0.00     0.088 H 
ATOM     33  H17 BC6 d          43.036  -6.191  38.532  0.00  0.00     0.087 H 
ATOM     34  H18 BC6 d          44.463  -6.664  36.743  0.00  0.00     0.040 H 
ATOM     35  H19 BC6 d          43.948  -6.469  35.033  0.00  0.00     0.040 H 
ATOM     36  H20 BC6 d          44.441  -8.787  35.478  0.00  0.00     0.040 H 
ATOM     37  H24 BC6 d          42.681  -8.396  33.892  0.00  0.00     0.037 H 
ATOM     38  H25 BC6 d          41.454  -8.276  35.198  0.00  0.00     0.037 H 
ATOM     39  H26 BC6 d          41.683 -10.639  35.680  0.00  0.00     0.087 H 
ATOM     40  H30 BC6 d          40.816 -11.603  33.564  0.00  0.00     0.087 H 
ATOM     41  H32 BC6 d          39.853  -8.719  34.011  0.00  0.00     0.049 H 
ATOM     42  H36 BC6 d          39.183 -11.399  35.423  0.00  0.00     0.078 H 
ATOM     43  H40 BC6 d          37.921 -11.482  37.163  0.00  0.00     0.092 H 
ENDROOT
BRANCH  23  44
ATOM     44  O31 BC6 d          36.431 -10.059  37.466  0.00  0.00    -0.294 OA
BRANCH  44  45
ATOM     45  C32 BC6 d          35.470 -10.994  36.953  0.00  0.00     0.358 C 
ATOM     46  O33 BC6 d          35.868 -12.066  36.527  0.00  0.00    -0.239 OA
ATOM     47  N34 BC6 d          34.216 -10.572  37.010  0.00  0.00    -0.346 N 
ATOM     48  H41 BC6 d          33.477 -11.156  36.675  0.00  0.00     0.161 HD
ATOM     49  H42 BC6 d          34.010  -9.670  37.387  0.00  0.00     0.161 HD
ENDBRANCH  44  45
ENDBRANCH  23  44
BRANCH   7  50
ATOM     50  C35 BC6 d          38.056 -11.002  39.795  0.00  0.00    -0.070 C 
ATOM     51  H10 BC6 d          36.959 -11.014  39.881  0.00  0.00     0.028 H 
ATOM     52  H11 BC6 d          38.495 -10.684  40.751  0.00  0.00     0.028 H 
ATOM     53  H12 BC6 d          38.415 -12.011  39.544  0.00  0.00     0.028 H 
ENDBRANCH   7  50
BRANCH  22  54
ATOM     54  C30 BC6 d          38.090  -8.151  36.068  0.00  0.00    -0.052 C 
ATOM     55  H37 BC6 d          38.567  -7.751  35.162  0.00  0.00     0.033 H 
ATOM     56  H38 BC6 d          38.498  -7.641  36.954  0.00  0.00     0.033 H 
ATOM     57  H39 BC6 d          37.004  -7.982  36.016  0.00  0.00     0.033 H 
ENDBRANCH  22  54
BRANCH  20  58
ATOM     58  C29 BC6 d          38.707 -10.163  32.839  0.00  0.00    -0.067 C 
ATOM     59  H33 BC6 d          37.745  -9.663  33.028  0.00  0.00     0.028 H 
ATOM     60  H34 BC6 d          38.557 -11.252  32.818  0.00  0.00     0.028 H 
ATOM     61  H35 BC6 d          39.109  -9.830  31.871  0.00  0.00     0.028 H 
ENDBRANCH  20  58
BRANCH  19  62
ATOM     62  O28 BC6 d          41.581 -10.040  32.402  0.00  0.00    -0.392 OA
ATOM     63  H31 BC6 d          42.384 -10.512  32.220  0.00  0.00     0.210 HD
ENDBRANCH  19  62
BRANCH   3  64
ATOM     64  C36 BC6 d          42.839  -7.726  41.152  0.00  0.00    -0.046 C 
ATOM     65  H1  BC6 d          42.970  -8.806  40.986  0.00  0.00     0.033 H 
ATOM     66  H2  BC6 d          42.847  -7.518  42.232  0.00  0.00     0.033 H 
ATOM     67  H3  BC6 d          43.660  -7.178  40.667  0.00  0.00     0.033 H 
ENDBRANCH   3  64
BRANCH  18  68
ATOM     68  O26 BC6 d          43.254 -10.996  34.361  0.00  0.00    -0.388 OA
BRANCH  68  69
ATOM     69  C27 BC6 d          43.188 -12.377  34.639  0.00  0.00     0.005 C 
ATOM     70  H27 BC6 d          44.131 -12.857  34.339  0.00  0.00     0.066 H 
ATOM     71  H28 BC6 d          42.354 -12.824  34.079  0.00  0.00     0.066 H 
ATOM     72  H29 BC6 d          43.028 -12.527  35.717  0.00  0.00     0.066 H 
ENDBRANCH  68  69
ENDBRANCH  18  68
BRANCH  16  73
ATOM     73  C25 BC6 d          43.295  -9.115  37.243  0.00  0.00    -0.073 C 
ATOM     74  H21 BC6 d          43.184 -10.197  37.076  0.00  0.00     0.028 H 
ATOM     75  H22 BC6 d          42.390  -8.725  37.732  0.00  0.00     0.028 H 
ATOM     76  H23 BC6 d          44.168  -8.932  37.888  0.00  0.00     0.028 H 
ENDBRANCH  16  73
BRANCH  11  77
ATOM     77  O36 BC6 d          39.212  -4.810  35.254  0.00  0.00    -0.361 OA
ATOM     78  H15 BC6 d          39.439  -5.007  34.353  0.00  0.00     0.217 HD
ENDBRANCH  11  77
TORSDOF 11
ENDMDL
