MODEL 1
REMARK VINA RESULT:      -8.8      0.000      0.000
REMARK  11 active torsions:
REMARK  status: ('A' for Active; 'I' for Inactive)
REMARK    1  A    between atoms: C20_3  and  C36_4 
REMARK    2  A    between atoms: C16_8  and  C35_9 
REMARK    3  A    between atoms: C5_13  and  O36_14 
REMARK    4  A    between atoms: C8_19  and  C25_20 
REMARK    5  A    between atoms: C10_22  and  O26_23 
REMARK    6  A    between atoms: O26_23  and  C27_24 
REMARK    7  A    between atoms: C11_25  and  O28_26 
REMARK    8  A    between atoms: C12_27  and  C29_28 
REMARK    9  A    between atoms: C14_30  and  C30_31 
REMARK   10  A    between atoms: C15_32  and  O31_33 
REMARK   11  A    between atoms: O31_33  and  C32_34 
REMARK       I    between atoms: C32_34  and  N34_36 
ROOT
ATOM      1  O37 BC6 d          41.343  -5.575  41.912  0.00  0.00    -0.268 OA
ATOM      2  C21 BC6 d          41.291  -6.009  40.764  0.00  0.00     0.251 C 
ATOM      3  C20 BC6 d          41.770  -7.370  40.570  0.00  0.00     0.002 C 
ATOM      4  C19 BC6 d          40.926  -8.303  40.034  0.00  0.00    -0.092 C 
ATOM      5  C18 BC6 d          41.210  -9.746  39.769  0.00  0.00    -0.049 C 
ATOM      6  C17 BC6 d          40.383 -10.139  38.542  0.00  0.00    -0.057 C 
ATOM      7  C16 BC6 d          38.899 -10.373  38.813  0.00  0.00    -0.028 C 
ATOM      8  N22 BC6 d          40.817  -5.217  39.790  0.00  0.00    -0.323 N 
ATOM      9  C3  BC6 d          40.966  -5.410  38.438  0.00  0.00     0.038 A 
ATOM     10  C4  BC6 d          39.887  -5.124  37.619  0.00  0.00    -0.025 A 
ATOM     11  C5  BC6 d          39.965  -5.292  36.235  0.00  0.00     0.068 A 
ATOM     12  C6  BC6 d          41.134  -5.761  35.641  0.00  0.00    -0.045 A 
ATOM     13  C1  BC6 d          42.236  -6.068  36.467  0.00  0.00    -0.053 A 
ATOM     14  C2  BC6 d          42.146  -5.868  37.849  0.00  0.00    -0.051 A 
ATOM     15  C7  BC6 d          43.530  -6.621  35.903  0.00  0.00    -0.038 C 
ATOM     16  C8  BC6 d          43.518  -8.161  35.743  0.00  0.00    -0.051 C 
ATOM     17  C9  BC6 d          42.379  -8.630  34.793  0.00  0.00    -0.035 C 
ATOM     18  C10 BC6 d          42.213 -10.135  34.610  0.00  0.00     0.063 C 
ATOM     19  C11 BC6 d          41.123 -10.482  33.595  0.00  0.00     0.067 C 
ATOM     20  C12 BC6 d          39.759  -9.919  34.011  0.00  0.00    -0.014 C 
ATOM     21  C13 BC6 d          39.279 -10.542  35.318  0.00  0.00    -0.092 C 
ATOM     22  C14 BC6 d          38.576  -9.940  36.321  0.00  0.00    -0.058 C 
ATOM     23  C15 BC6 d          38.183 -10.796  37.504  0.00  0.00     0.074 C 
ATOM     24  H4  BC6 d          39.930  -7.953  39.769  0.00  0.00     0.077 H 
ATOM     25  H5  BC6 d          40.915 -10.356  40.636  0.00  0.00     0.038 H 
ATOM     26  H6  BC6 d          42.281  -9.892  39.567  0.00  0.00     0.038 H 
ATOM     27  H7  BC6 d          40.804 -11.067  38.128  0.00  0.00     0.034 H 
ATOM     28  H8  BC6 d          40.471  -9.334  37.798  0.00  0.00     0.034 H 
ATOM     29  H9  BC6 d          38.463  -9.422  39.154  0.00  0.00     0.043 H 
ATOM     30  H13 BC6 d          40.306  -4.406  40.076  0.00  0.00     0.169 HD
ATOM     31  H14 BC6 d          38.964  -4.763  38.061  0.00  0.00     0.091 H 
ATOM     32  H16 BC6 d          41.195  -5.888  34.566  0.00  0.00     0.088 H 
ATOM     33  H17 BC6 d          43.008  -6.072  38.474  0.00  0.00     0.087 H 
ATOM     34  H18 BC6 d          44.351  -6.346  36.581  0.00  0.00     0.040 H 
ATOM     35  H19 BC6 d          43.702  -6.168  34.916  0.00  0.00     0.040 H 
ATOM     36  H20 BC6 d          44.467  -8.429  35.256  0.00  0.00     0.040 H 
ATOM     37  H24 BC6 d          42.571  -8.193  33.802  0.00  0.00     0.037 H 
ATOM     38  H25 BC6 d          41.431  -8.237  35.189  0.00  0.00     0.037 H 
ATOM     39  H26 BC6 d          41.942 -10.573  35.582  0.00  0.00     0.087 H 
ATOM     40  H30 BC6 d          41.039 -11.575  33.500  0.00  0.00     0.087 H 
ATOM     41  H32 BC6 d          39.808  -8.823  34.097  0.00  0.00     0.049 H 
ATOM     42  H36 BC6 d          39.525 -11.592  35.468  0.00  0.00     0.078 H 
ATOM     43  H40 BC6 d          38.403 -11.851  37.284  0.00  0.00     0.092 H 
ENDROOT
BRANCH  23  44
ATOM     44  O31 BC6 d          36.794 -10.605  37.729  0.00  0.00    -0.294 OA
BRANCH  44  45
ATOM     45  C32 BC6 d          35.891 -11.116  36.735  0.00  0.00     0.358 C 
ATOM     46  O33 BC6 d          36.036 -12.265  36.351  0.00  0.00    -0.239 OA
ATOM     47  N34 BC6 d          34.968 -10.251  36.343  0.00  0.00    -0.346 N 
ATOM     48  H41 BC6 d          34.295 -10.518  35.654  0.00  0.00     0.161 HD
ATOM     49  H42 BC6 d          34.945  -9.333  36.736  0.00  0.00     0.161 HD
ENDBRANCH  44  45
ENDBRANCH  23  44
BRANCH   7  50
ATOM     50  C35 BC6 d          38.666 -11.421  39.915  0.00  0.00    -0.070 C 
ATOM     51  H10 BC6 d          39.619 -11.917  40.156  0.00  0.00     0.028 H 
ATOM     52  H11 BC6 d          37.943 -12.170  39.561  0.00  0.00     0.028 H 
ATOM     53  H12 BC6 d          38.272 -10.927  40.814  0.00  0.00     0.028 H 
ENDBRANCH   7  50
BRANCH  22  54
ATOM     54  C30 BC6 d          38.140  -8.497  36.283  0.00  0.00    -0.052 C 
ATOM     55  H37 BC6 d          37.754  -8.204  37.270  0.00  0.00     0.033 H 
ATOM     56  H38 BC6 d          37.350  -8.373  35.528  0.00  0.00     0.033 H 
ATOM     57  H39 BC6 d          38.999  -7.861  36.023  0.00  0.00     0.033 H 
ENDBRANCH  22  54
BRANCH  20  58
ATOM     58  C29 BC6 d          38.744 -10.354  32.960  0.00  0.00    -0.067 C 
ATOM     59  H33 BC6 d          38.628  -9.557  32.210  0.00  0.00     0.028 H 
ATOM     60  H34 BC6 d          37.775 -10.548  33.443  0.00  0.00     0.028 H 
ATOM     61  H35 BC6 d          39.097 -11.272  32.467  0.00  0.00     0.028 H 
ENDBRANCH  20  58
BRANCH  19  62
ATOM     62  O28 BC6 d          41.552  -9.912  32.339  0.00  0.00    -0.392 OA
ATOM     63  H31 BC6 d          42.500  -9.926  32.293  0.00  0.00     0.210 HD
ENDBRANCH  19  62
BRANCH   3  64
ATOM     64  C36 BC6 d          43.157  -7.680  41.053  0.00  0.00    -0.046 C 
ATOM     65  H1  BC6 d          43.279  -8.769  41.142  0.00  0.00     0.033 H 
ATOM     66  H2  BC6 d          43.316  -7.212  42.036  0.00  0.00     0.033 H 
ATOM     67  H3  BC6 d          43.891  -7.285  40.336  0.00  0.00     0.033 H 
ENDBRANCH   3  64
BRANCH  18  68
ATOM     68  O26 BC6 d          43.448 -10.727  34.153  0.00  0.00    -0.388 OA
BRANCH  68  69
ATOM     69  C27 BC6 d          43.572 -12.102  34.442  0.00  0.00     0.005 C 
ATOM     70  H27 BC6 d          42.672 -12.631  34.097  0.00  0.00     0.066 H 
ATOM     71  H28 BC6 d          43.686 -12.239  35.527  0.00  0.00     0.066 H 
ATOM     72  H29 BC6 d          44.456 -12.507  33.926  0.00  0.00     0.066 H 
ENDBRANCH  68  69
ENDBRANCH  18  68
BRANCH  16  73
ATOM     73  C25 BC6 d          43.487  -8.920  37.082  0.00  0.00    -0.073 C 
ATOM     74  H21 BC6 d          43.511 -10.003  36.890  0.00  0.00     0.028 H 
ATOM     75  H22 BC6 d          42.567  -8.665  37.627  0.00  0.00     0.028 H 
ATOM     76  H23 BC6 d          44.362  -8.635  37.686  0.00  0.00     0.028 H 
ENDBRANCH  16  73
BRANCH  11  77
ATOM     77  O36 BC6 d          38.842  -5.036  35.499  0.00  0.00    -0.361 OA
ATOM     78  H15 BC6 d          38.912  -5.468  34.656  0.00  0.00     0.217 HD
ENDBRANCH  11  77
TORSDOF 11
ENDMDL
