MODEL 1
REMARK VINA RESULT:      -7.4      0.000      0.000
REMARK  4 active torsions:
REMARK  status: ('A' for Active; 'I' for Inactive)
REMARK    1  A    between atoms: CG_4  and  CD_1 
REMARK    2  A    between atoms: CA_8  and  C_5 
REMARK    3  A    between atoms: CA_8  and  N_9 
REMARK    4  A    between atoms: CA_8  and  CB_10 
ROOT
ATOM      1  CG  G8M d           6.273  27.233  20.559  0.00  0.00     0.036 C 
ATOM      2  CB  G8M d           7.627  27.136  19.811  0.00  0.00    -0.004 C 
ATOM      3  C6  G8M d           8.307  27.774  21.040  0.00  0.00    -0.058 C 
ATOM      4  C7  G8M d           6.926  28.234  21.538  0.00  0.00    -0.052 C 
ATOM      5  H1  G8M d           5.438  27.633  19.964  0.00  0.00     0.057 H 
ATOM      6  H6  G8M d           7.657  27.815  18.946  0.00  0.00     0.045 H 
ATOM      7  H7  G8M d           8.998  28.595  20.800  0.00  0.00     0.033 H 
ATOM      8  H8  G8M d           8.810  27.054  21.703  0.00  0.00     0.033 H 
ATOM      9  H9  G8M d           6.732  28.023  22.600  0.00  0.00     0.034 H 
ATOM     10  H10 G8M d           6.696  29.290  21.327  0.00  0.00     0.034 H 
ENDROOT
BRANCH   2  11
ATOM     11  CA  G8M d           8.098  25.757  19.271  0.00  0.00     0.186 C 
ATOM     12  H2  G8M d           7.722  24.988  19.963  0.00  0.00     0.102 H 
BRANCH  11  13
ATOM     13  C   G8M d           7.525  25.462  17.866  0.00  0.00     0.204 C 
ATOM     14  OXT G8M d           6.364  25.808  17.586  0.00  0.00    -0.646 OA
ATOM     15  O   G8M d           8.236  24.877  17.025  0.00  0.00    -0.646 OA
ENDBRANCH  11  13
BRANCH  11  16
ATOM     16  N   G8M d           9.571  25.640  19.214  0.00  0.00    -0.065 N 
ATOM     17  H3  G8M d           9.988  26.376  19.762  0.00  0.00     0.275 HD
ATOM     18  H4  G8M d           9.878  25.718  18.257  0.00  0.00     0.275 HD
ATOM     19  H5  G8M d           9.851  24.745  19.585  0.00  0.00     0.275 HD
ENDBRANCH  11  16
ENDBRANCH   2  11
BRANCH   1  20
ATOM     20  CD  G8M d           5.861  25.913  21.248  0.00  0.00     0.177 C 
ATOM     21  OE1 G8M d           5.046  25.162  20.667  0.00  0.00    -0.648 OA
ATOM     22  OE2 G8M d           6.352  25.608  22.358  0.00  0.00    -0.648 OA
ENDBRANCH   1  20
TORSDOF 4
ENDMDL
MODEL 2
REMARK VINA RESULT:      -5.6      2.148      2.835
REMARK  4 active torsions:
REMARK  status: ('A' for Active; 'I' for Inactive)
REMARK    1  A    between atoms: CG_4  and  CD_1 
REMARK    2  A    between atoms: CA_8  and  C_5 
REMARK    3  A    between atoms: CA_8  and  N_9 
REMARK    4  A    between atoms: CA_8  and  CB_10 
ROOT
ATOM      1  CG  G8M d           7.041  26.567  21.907  0.00  0.00     0.036 C 
ATOM      2  CB  G8M d           6.407  25.940  20.638  0.00  0.00    -0.004 C 
ATOM      3  C6  G8M d           5.020  26.130  21.284  0.00  0.00    -0.058 C 
ATOM      4  C7  G8M d           5.706  26.327  22.647  0.00  0.00    -0.052 C 
ATOM      5  H1  G8M d           7.907  26.023  22.312  0.00  0.00     0.057 H 
ATOM      6  H6  G8M d           6.659  24.873  20.548  0.00  0.00     0.045 H 
ATOM      7  H7  G8M d           4.370  25.245  21.229  0.00  0.00     0.033 H 
ATOM      8  H8  G8M d           4.470  27.013  20.923  0.00  0.00     0.033 H 
ATOM      9  H9  G8M d           5.342  27.194  23.217  0.00  0.00     0.034 H 
ATOM     10  H10 G8M d           5.698  25.435  23.292  0.00  0.00     0.034 H 
ENDROOT
BRANCH   2  11
ATOM     11  CA  G8M d           6.727  26.559  19.248  0.00  0.00     0.186 C 
ATOM     12  H2  G8M d           7.314  27.473  19.423  0.00  0.00     0.102 H 
BRANCH  11  13
ATOM     13  C   G8M d           7.571  25.605  18.372  0.00  0.00     0.204 C 
ATOM     14  OXT G8M d           8.781  25.455  18.611  0.00  0.00    -0.646 OA
ATOM     15  O   G8M d           7.026  24.994  17.431  0.00  0.00    -0.646 OA
ENDBRANCH  11  13
BRANCH  11  16
ATOM     16  N   G8M d           5.508  26.934  18.498  0.00  0.00    -0.065 N 
ATOM     17  H3  G8M d           5.572  27.900  18.215  0.00  0.00     0.275 HD
ATOM     18  H4  G8M d           4.699  26.809  19.087  0.00  0.00     0.275 HD
ATOM     19  H5  G8M d           5.423  26.349  17.681  0.00  0.00     0.275 HD
ENDBRANCH  11  16
ENDBRANCH   2  11
BRANCH   1  20
ATOM     20  CD  G8M d           7.370  28.067  21.748  0.00  0.00     0.177 C 
ATOM     21  OE1 G8M d           6.617  28.907  22.289  0.00  0.00    -0.648 OA
ATOM     22  OE2 G8M d           8.381  28.420  21.100  0.00  0.00    -0.648 OA
ENDBRANCH   1  20
TORSDOF 4
ENDMDL
MODEL 3
REMARK VINA RESULT:      -5.1      1.353      1.684
REMARK  4 active torsions:
REMARK  status: ('A' for Active; 'I' for Inactive)
REMARK    1  A    between atoms: CG_4  and  CD_1 
REMARK    2  A    between atoms: CA_8  and  C_5 
REMARK    3  A    between atoms: CA_8  and  N_9 
REMARK    4  A    between atoms: CA_8  and  CB_10 
ROOT
ATOM      1  CG  G8M d           6.790  27.719  21.176  0.00  0.00     0.036 C 
ATOM      2  CB  G8M d           7.351  27.239  19.813  0.00  0.00    -0.004 C 
ATOM      3  C6  G8M d           8.766  27.282  20.424  0.00  0.00    -0.058 C 
ATOM      4  C7  G8M d           8.220  28.149  21.572  0.00  0.00    -0.052 C 
ATOM      5  H1  G8M d           6.054  28.535  21.117  0.00  0.00     0.057 H 
ATOM      6  H6  G8M d           7.232  28.008  19.036  0.00  0.00     0.045 H 
ATOM      7  H7  G8M d           9.516  27.784  19.795  0.00  0.00     0.033 H 
ATOM      8  H8  G8M d           9.152  26.301  20.742  0.00  0.00     0.033 H 
ATOM      9  H9  G8M d           8.531  27.821  22.575  0.00  0.00     0.034 H 
ATOM     10  H10 G8M d           8.418  29.225  21.461  0.00  0.00     0.034 H 
ENDROOT
BRANCH   2  11
ATOM     11  CA  G8M d           6.797  25.929  19.185  0.00  0.00     0.186 C 
ATOM     12  H2  G8M d           5.764  26.131  18.863  0.00  0.00     0.102 H 
BRANCH  11  13
ATOM     13  C   G8M d           7.612  25.493  17.947  0.00  0.00     0.204 C 
ATOM     14  OXT G8M d           8.778  25.896  17.801  0.00  0.00    -0.646 OA
ATOM     15  O   G8M d           7.087  24.738  17.104  0.00  0.00    -0.646 OA
ENDBRANCH  11  13
BRANCH  11  16
ATOM     16  N   G8M d           6.763  24.806  20.148  0.00  0.00    -0.065 N 
ATOM     17  H3  G8M d           7.318  25.040  20.956  0.00  0.00     0.275 HD
ATOM     18  H4  G8M d           7.137  23.978  19.711  0.00  0.00     0.275 HD
ATOM     19  H5  G8M d           5.811  24.635  20.431  0.00  0.00     0.275 HD
ENDBRANCH  11  16
ENDBRANCH   2  11
BRANCH   1  20
ATOM     20  CD  G8M d           6.252  26.569  22.054  0.00  0.00     0.177 C 
ATOM     21  OE1 G8M d           7.072  25.824  22.636  0.00  0.00    -0.648 OA
ATOM     22  OE2 G8M d           5.018  26.405  22.184  0.00  0.00    -0.648 OA
ENDBRANCH   1  20
TORSDOF 4
ENDMDL
