MODEL 1
REMARK VINA RESULT:      -5.7      0.000      0.000
REMARK  3 active torsions:
REMARK  status: ('A' for Active; 'I' for Inactive)
REMARK    1  A    between atoms: C1_3  and  C_1 
REMARK    2  A    between atoms: C7_10  and  N1_4 
REMARK    3  A    between atoms: C4_7  and  C7_10 
ROOT
ATOM      1  C1  MOL d         -28.164  87.221 -10.968  0.00  0.00     0.040 A 
ATOM      2  C2  MOL d         -28.944  87.522  -9.796  0.00  0.00    -0.066 A 
ATOM      3  C3  MOL d         -30.163  88.212  -9.915  0.00  0.00    -0.074 A 
ATOM      4  C4  MOL d         -30.626  88.612 -11.186  0.00  0.00    -0.033 A 
ATOM      5  C5  MOL d         -29.865  88.318 -12.337  0.00  0.00    -0.074 A 
ATOM      6  C6  MOL d         -28.648  87.629 -12.232  0.00  0.00    -0.066 A 
ATOM      7  H4  MOL d         -28.591  87.215  -8.818  0.00  0.00     0.085 H 
ATOM      8  H5  MOL d         -30.747  88.438  -9.030  0.00  0.00     0.084 H 
ATOM      9  H6  MOL d         -30.225  88.627 -13.312  0.00  0.00     0.084 H 
ATOM     10  H7  MOL d         -28.074  87.409 -13.126  0.00  0.00     0.085 H 
ENDROOT
BRANCH   4  11
ATOM     11  C7  MOL d         -31.938  89.350 -11.314  0.00  0.00     0.103 C 
ATOM     12  H8  MOL d         -32.705  88.662 -11.698  0.00  0.00     0.082 H 
ATOM     13  H9  MOL d         -32.242  89.722 -10.324  0.00  0.00     0.082 H 
BRANCH  11  14
ATOM     14  N1  MOL d         -31.804  90.492 -12.240  0.00  0.00    -0.075 N 
ATOM     15  H1  MOL d         -30.911  90.445 -12.704  0.00  0.00     0.274 HD
ATOM     16  H2  MOL d         -31.868  91.354 -11.721  0.00  0.00     0.274 HD
ATOM     17  H3  MOL d         -32.542  90.457 -12.925  0.00  0.00     0.274 HD
ENDBRANCH  11  14
ENDBRANCH   4  11
BRANCH   1  18
ATOM     18  C   MOL d         -27.017  86.567 -10.819  0.00  0.00     0.209 C 
ATOM     19  O   MOL d         -26.258  86.700  -9.912  0.00  0.00    -0.644 OA
ATOM     20  OXT MOL d         -26.420  85.706 -11.536  0.00  0.00    -0.644 OA
ENDBRANCH   1  18
TORSDOF 3
ENDMDL
MODEL 2
REMARK VINA RESULT:      -5.0      3.696      4.658
REMARK  3 active torsions:
REMARK  status: ('A' for Active; 'I' for Inactive)
REMARK    1  A    between atoms: C1_3  and  C_1 
REMARK    2  A    between atoms: C7_10  and  N1_4 
REMARK    3  A    between atoms: C4_7  and  C7_10 
ROOT
ATOM      1  C1  MOL d         -30.376  88.377 -11.222  0.00  0.00     0.040 A 
ATOM      2  C2  MOL d         -29.785  87.695 -10.100  0.00  0.00    -0.066 A 
ATOM      3  C3  MOL d         -28.624  86.921 -10.272  0.00  0.00    -0.074 A 
ATOM      4  C4  MOL d         -28.033  86.812 -11.549  0.00  0.00    -0.033 A 
ATOM      5  C5  MOL d         -28.608  87.479 -12.650  0.00  0.00    -0.074 A 
ATOM      6  C6  MOL d         -29.766  88.254 -12.492  0.00  0.00    -0.066 A 
ATOM      7  H4  MOL d         -30.236  87.779  -9.118  0.00  0.00     0.085 H 
ATOM      8  H5  MOL d         -28.183  86.409  -9.425  0.00  0.00     0.084 H 
ATOM      9  H6  MOL d         -28.150  87.391 -13.630  0.00  0.00     0.084 H 
ATOM     10  H7  MOL d         -30.196  88.763 -13.348  0.00  0.00     0.085 H 
ENDROOT
BRANCH   4  11
ATOM     11  C7  MOL d         -26.783  85.983 -11.733  0.00  0.00     0.103 C 
ATOM     12  H8  MOL d         -27.035  85.066 -12.286  0.00  0.00     0.082 H 
ATOM     13  H9  MOL d         -26.045  86.565 -12.305  0.00  0.00     0.082 H 
BRANCH  11  14
ATOM     14  N1  MOL d         -26.204  85.618 -10.425  0.00  0.00    -0.075 N 
ATOM     15  H1  MOL d         -25.512  86.301 -10.162  0.00  0.00     0.274 HD
ATOM     16  H2  MOL d         -25.772  84.709 -10.491  0.00  0.00     0.274 HD
ATOM     17  H3  MOL d         -26.934  85.593  -9.730  0.00  0.00     0.274 HD
ENDBRANCH  11  14
ENDBRANCH   4  11
BRANCH   1  18
ATOM     18  C   MOL d         -31.472  89.100 -11.024  0.00  0.00     0.209 C 
ATOM     19  O   MOL d         -32.129  89.100 -10.030  0.00  0.00    -0.644 OA
ATOM     20  OXT MOL d         -32.113  89.910 -11.762  0.00  0.00    -0.644 OA
ENDBRANCH   1  18
TORSDOF 3
ENDMDL
MODEL 3
REMARK VINA RESULT:      -4.9      3.762      4.775
REMARK  3 active torsions:
REMARK  status: ('A' for Active; 'I' for Inactive)
REMARK    1  A    between atoms: C1_3  and  C_1 
REMARK    2  A    between atoms: C7_10  and  N1_4 
REMARK    3  A    between atoms: C4_7  and  C7_10 
ROOT
ATOM      1  C1  MOL d         -30.775  88.764 -11.353  0.00  0.00     0.040 A 
ATOM      2  C2  MOL d         -30.101  88.614 -10.089  0.00  0.00    -0.066 A 
ATOM      3  C3  MOL d         -28.948  87.816  -9.991  0.00  0.00    -0.074 A 
ATOM      4  C4  MOL d         -28.445  87.161 -11.134  0.00  0.00    -0.033 A 
ATOM      5  C5  MOL d         -29.100  87.306 -12.374  0.00  0.00    -0.074 A 
ATOM      6  C6  MOL d         -30.252  88.099 -12.486  0.00  0.00    -0.066 A 
ATOM      7  H4  MOL d         -30.485  89.118  -9.209  0.00  0.00     0.085 H 
ATOM      8  H5  MOL d         -28.445  87.705  -9.037  0.00  0.00     0.084 H 
ATOM      9  H6  MOL d         -28.711  86.800 -13.250  0.00  0.00     0.084 H 
ATOM     10  H7  MOL d         -30.745  88.203 -13.446  0.00  0.00     0.085 H 
ENDROOT
BRANCH   4  11
ATOM     11  C7  MOL d         -27.203  86.306 -11.029  0.00  0.00     0.103 C 
ATOM     12  H8  MOL d         -27.497  85.259 -10.867  0.00  0.00     0.082 H 
ATOM     13  H9  MOL d         -26.630  86.386 -11.965  0.00  0.00     0.082 H 
BRANCH  11  14
ATOM     14  N1  MOL d         -26.359  86.753  -9.904  0.00  0.00    -0.075 N 
ATOM     15  H1  MOL d         -26.906  87.325  -9.280  0.00  0.00     0.274 HD
ATOM     16  H2  MOL d         -25.582  87.288 -10.259  0.00  0.00     0.274 HD
ATOM     17  H3  MOL d         -26.012  85.948  -9.405  0.00  0.00     0.274 HD
ENDBRANCH  11  14
ENDBRANCH   4  11
BRANCH   1  18
ATOM     18  C   MOL d         -31.862  89.525 -11.410  0.00  0.00     0.209 C 
ATOM     19  O   MOL d         -32.550  89.676 -12.370  0.00  0.00    -0.644 OA
ATOM     20  OXT MOL d         -32.432  90.275 -10.558  0.00  0.00    -0.644 OA
ENDBRANCH   1  18
TORSDOF 3
ENDMDL
MODEL 4
REMARK VINA RESULT:      -4.8      1.333      2.004
REMARK  3 active torsions:
REMARK  status: ('A' for Active; 'I' for Inactive)
REMARK    1  A    between atoms: C1_3  and  C_1 
REMARK    2  A    between atoms: C7_10  and  N1_4 
REMARK    3  A    between atoms: C4_7  and  C7_10 
ROOT
ATOM      1  C1  MOL d         -28.080  86.925 -11.684  0.00  0.00     0.040 A 
ATOM      2  C2  MOL d         -28.672  87.846 -12.618  0.00  0.00    -0.066 A 
ATOM      3  C3  MOL d         -29.834  88.558 -12.272  0.00  0.00    -0.074 A 
ATOM      4  C4  MOL d         -30.424  88.370 -11.005  0.00  0.00    -0.033 A 
ATOM      5  C5  MOL d         -29.848  87.469 -10.086  0.00  0.00    -0.074 A 
ATOM      6  C6  MOL d         -28.687  86.753 -10.418  0.00  0.00    -0.066 A 
ATOM      7  H4  MOL d         -28.219  87.993 -13.592  0.00  0.00     0.085 H 
ATOM      8  H5  MOL d         -30.277  89.250 -12.980  0.00  0.00     0.084 H 
ATOM      9  H6  MOL d         -30.305  87.328  -9.113  0.00  0.00     0.084 H 
ATOM     10  H7  MOL d         -28.254  86.065  -9.701  0.00  0.00     0.085 H 
ENDROOT
BRANCH   4  11
ATOM     11  C7  MOL d         -31.672  89.137 -10.632  0.00  0.00     0.103 C 
ATOM     12  H8  MOL d         -31.436  90.211 -10.588  0.00  0.00     0.082 H 
ATOM     13  H9  MOL d         -32.445  88.962 -11.395  0.00  0.00     0.082 H 
BRANCH  11  14
ATOM     14  N1  MOL d         -32.180  88.697  -9.318  0.00  0.00    -0.075 N 
ATOM     15  H1  MOL d         -33.146  88.425  -9.405  0.00  0.00     0.274 HD
ATOM     16  H2  MOL d         -32.101  89.454  -8.657  0.00  0.00     0.274 HD
ATOM     17  H3  MOL d         -31.637  87.911  -8.994  0.00  0.00     0.274 HD
ENDBRANCH  11  14
ENDBRANCH   4  11
BRANCH   1  18
ATOM     18  C   MOL d         -26.982  86.270 -12.043  0.00  0.00     0.209 C 
ATOM     19  O   MOL d         -26.204  85.764 -11.296  0.00  0.00    -0.644 OA
ATOM     20  OXT MOL d         -26.456  86.027 -13.173  0.00  0.00    -0.644 OA
ENDBRANCH   1  18
TORSDOF 3
ENDMDL
MODEL 5
REMARK VINA RESULT:      -4.2      2.007      2.604
REMARK  3 active torsions:
REMARK  status: ('A' for Active; 'I' for Inactive)
REMARK    1  A    between atoms: C1_3  and  C_1 
REMARK    2  A    between atoms: C7_10  and  N1_4 
REMARK    3  A    between atoms: C4_7  and  C7_10 
ROOT
ATOM      1  C1  MOL d         -28.737  87.504 -11.958  0.00  0.00     0.040 A 
ATOM      2  C2  MOL d         -28.483  86.700 -10.791  0.00  0.00    -0.066 A 
ATOM      3  C3  MOL d         -29.306  86.818  -9.657  0.00  0.00    -0.074 A 
ATOM      4  C4  MOL d         -30.386  87.725  -9.661  0.00  0.00    -0.033 A 
ATOM      5  C5  MOL d         -30.639  88.514 -10.803  0.00  0.00    -0.074 A 
ATOM      6  C6  MOL d         -29.826  88.406 -11.941  0.00  0.00    -0.066 A 
ATOM      7  H4  MOL d         -27.654  86.002 -10.786  0.00  0.00     0.085 H 
ATOM      8  H5  MOL d         -29.111  86.211  -8.780  0.00  0.00     0.084 H 
ATOM      9  H6  MOL d         -31.470  89.210 -10.801  0.00  0.00     0.084 H 
ATOM     10  H7  MOL d         -30.033  89.018 -12.812  0.00  0.00     0.085 H 
ENDROOT
BRANCH   4  11
ATOM     11  C7  MOL d         -31.273  87.849  -8.444  0.00  0.00     0.103 C 
ATOM     12  H8  MOL d         -31.542  86.843  -8.089  0.00  0.00     0.082 H 
ATOM     13  H9  MOL d         -30.727  88.383  -7.652  0.00  0.00     0.082 H 
BRANCH  11  14
ATOM     14  N1  MOL d         -32.505  88.593  -8.771  0.00  0.00    -0.075 N 
ATOM     15  H1  MOL d         -32.262  89.464  -9.218  0.00  0.00     0.274 HD
ATOM     16  H2  MOL d         -33.018  88.782  -7.924  0.00  0.00     0.274 HD
ATOM     17  H3  MOL d         -33.074  88.043  -9.394  0.00  0.00     0.274 HD
ENDBRANCH  11  14
ENDBRANCH   4  11
BRANCH   1  18
ATOM     18  C   MOL d         -27.940  87.368 -13.012  0.00  0.00     0.209 C 
ATOM     19  O   MOL d         -27.686  86.340 -13.558  0.00  0.00    -0.644 OA
ATOM     20  OXT MOL d         -27.248  88.197 -13.680  0.00  0.00    -0.644 OA
ENDBRANCH   1  18
TORSDOF 3
ENDMDL
MODEL 6
REMARK VINA RESULT:      -3.0      3.708      4.652
REMARK  3 active torsions:
REMARK  status: ('A' for Active; 'I' for Inactive)
REMARK    1  A    between atoms: C1_3  and  C_1 
REMARK    2  A    between atoms: C7_10  and  N1_4 
REMARK    3  A    between atoms: C4_7  and  C7_10 
ROOT
ATOM      1  C1  MOL d         -30.311  88.171 -10.172  0.00  0.00     0.040 A 
ATOM      2  C2  MOL d         -29.099  88.409  -9.431  0.00  0.00    -0.066 A 
ATOM      3  C3  MOL d         -27.957  87.625  -9.670  0.00  0.00    -0.074 A 
ATOM      4  C4  MOL d         -27.996  86.600 -10.639  0.00  0.00    -0.033 A 
ATOM      5  C5  MOL d         -29.180  86.364 -11.368  0.00  0.00    -0.074 A 
ATOM      6  C6  MOL d         -30.326  87.141 -11.140  0.00  0.00    -0.066 A 
ATOM      7  H4  MOL d         -29.067  89.196  -8.687  0.00  0.00     0.085 H 
ATOM      8  H5  MOL d         -27.048  87.806  -9.109  0.00  0.00     0.084 H 
ATOM      9  H6  MOL d         -29.205  85.576 -12.112  0.00  0.00     0.084 H 
ATOM     10  H7  MOL d         -31.229  86.949 -11.709  0.00  0.00     0.085 H 
ENDROOT
BRANCH   4  11
ATOM     11  C7  MOL d         -26.767  85.759 -10.898  0.00  0.00     0.103 C 
ATOM     12  H8  MOL d         -25.935  86.138 -10.286  0.00  0.00     0.082 H 
ATOM     13  H9  MOL d         -26.979  84.715 -10.622  0.00  0.00     0.082 H 
BRANCH  11  14
ATOM     14  N1  MOL d         -26.388  85.818 -12.323  0.00  0.00    -0.075 N 
ATOM     15  H1  MOL d         -25.454  86.188 -12.407  0.00  0.00     0.274 HD
ATOM     16  H2  MOL d         -27.032  86.414 -12.818  0.00  0.00     0.274 HD
ATOM     17  H3  MOL d         -26.418  84.890 -12.717  0.00  0.00     0.274 HD
ENDBRANCH  11  14
ENDBRANCH   4  11
BRANCH   1  18
ATOM     18  C   MOL d         -31.371  88.931  -9.922  0.00  0.00     0.209 C 
ATOM     19  O   MOL d         -32.186  88.725  -9.079  0.00  0.00    -0.644 OA
ATOM     20  OXT MOL d         -31.817  89.989 -10.464  0.00  0.00    -0.644 OA
ENDBRANCH   1  18
TORSDOF 3
ENDMDL
