MODEL 1
REMARK VINA RESULT:      -9.7      0.000      0.000
REMARK  7 active torsions:
REMARK  status: ('A' for Active; 'I' for Inactive)
REMARK    1  A    between atoms: C2_3  and  C5_9 
REMARK    2  A    between atoms: C11_15  and  C2_3 
REMARK    3  A    between atoms: C3_5  and  N3_7 
REMARK    4  A    between atoms: N2_6  and  C4_8 
REMARK    5  A    between atoms: C19_23  and  C15_19 
REMARK    6  A    between atoms: C22_26  and  O2_27 
REMARK    7  A    between atoms: O2_27  and  C23_28 
ROOT
ATOM      1  O1  MOL d          22.738  13.065  21.995  0.00  0.00    -0.269 OA
ATOM      2  C1  MOL d          22.638  11.900  22.326  0.00  0.00     0.276 A 
ATOM      3  C2  MOL d          22.393  10.675  21.364  0.00  0.00     0.183 A 
ATOM      4  N1  MOL d          22.541   9.520  22.311  0.00  0.00    -0.199 N 
ATOM      5  C3  MOL d          22.690   9.988  23.560  0.00  0.00     0.677 A 
ATOM      6  N2  MOL d          22.792  11.408  23.601  0.00  0.00    -0.153 N 
ATOM      7  H1  MOL d          22.530   8.525  22.043  0.00  0.00     0.179 HD
ENDROOT
BRANCH   3   8
ATOM      8  C5  MOL d          20.964  10.709  20.785  0.00  0.00    -0.015 A 
ATOM      9  C6  MOL d          20.193   9.551  20.738  0.00  0.00    -0.074 A 
ATOM     10  C7  MOL d          18.895   9.576  20.230  0.00  0.00    -0.082 A 
ATOM     11  H7  MOL d          20.607   8.618  21.102  0.00  0.00     0.084 H 
ATOM     12  C8  MOL d          18.354  10.754  19.770  0.00  0.00    -0.083 A 
ATOM     13  H8  MOL d          18.311   8.664  20.199  0.00  0.00     0.083 H 
ATOM     14  C9  MOL d          19.106  11.913  19.803  0.00  0.00    -0.082 A 
ATOM     15  H9  MOL d          17.342  10.772  19.382  0.00  0.00     0.083 H 
ATOM     16  C10 MOL d          20.407  11.891  20.301  0.00  0.00    -0.074 A 
ATOM     17  H10 MOL d          18.682  12.843  19.440  0.00  0.00     0.083 H 
ATOM     18  H11 MOL d          20.992  12.804  20.311  0.00  0.00     0.084 H 
ENDBRANCH   3   8
BRANCH   3  19
ATOM     19  C11 MOL d          23.512  10.673  20.306  0.00  0.00    -0.015 A 
ATOM     20  C12 MOL d          23.230  10.859  18.955  0.00  0.00    -0.074 A 
ATOM     21  C13 MOL d          24.254  10.999  18.030  0.00  0.00    -0.082 A 
ATOM     22  H12 MOL d          22.199  10.895  18.623  0.00  0.00     0.084 H 
ATOM     23  C14 MOL d          25.572  10.941  18.442  0.00  0.00    -0.072 A 
ATOM     24  H13 MOL d          24.020  11.153  16.983  0.00  0.00     0.083 H 
ATOM     25  C15 MOL d          25.887  10.725  19.788  0.00  0.00    -0.025 A 
ATOM     26  H14 MOL d          26.368  11.065  17.717  0.00  0.00     0.084 H 
ATOM     27  C16 MOL d          24.844  10.586  20.712  0.00  0.00    -0.063 A 
ATOM     28  H15 MOL d          25.074  10.408  21.756  0.00  0.00     0.085 H 
BRANCH  25  29
ATOM     29  C19 MOL d          27.299  10.653  20.250  0.00  0.00    -0.023 A 
ATOM     30  C18 MOL d          27.711   9.605  21.074  0.00  0.00    -0.040 A 
ATOM     31  C22 MOL d          28.964   9.619  21.677  0.00  0.00     0.069 A 
ATOM     32  H17 MOL d          27.045   8.768  21.246  0.00  0.00     0.089 H 
ATOM     33  C17 MOL d          29.838  10.677  21.454  0.00  0.00    -0.051 A 
ATOM     34  C21 MOL d          29.458  11.700  20.597  0.00  0.00    -0.080 A 
ATOM     35  H16 MOL d          30.805  10.703  21.944  0.00  0.00     0.087 H 
ATOM     36  C20 MOL d          28.202  11.689  20.000  0.00  0.00    -0.072 A 
ATOM     37  H19 MOL d          30.144  12.513  20.392  0.00  0.00     0.083 H 
ATOM     38  H18 MOL d          27.920  12.496  19.332  0.00  0.00     0.084 H 
BRANCH  31  39
ATOM     39  O2  MOL d          29.197   8.542  22.497  0.00  0.00    -0.356 OA
BRANCH  39  40
ATOM     40  C23 MOL d          30.053   8.736  23.634  0.00  0.00     0.010 C 
ATOM     41  H20 MOL d          31.043   9.076  23.294  0.00  0.00     0.066 H 
ATOM     42  H21 MOL d          30.159   7.787  24.180  0.00  0.00     0.066 H 
ATOM     43  H22 MOL d          29.614   9.495  24.299  0.00  0.00     0.066 H 
ENDBRANCH  39  40
ENDBRANCH  31  39
ENDBRANCH  25  29
ENDBRANCH   3  19
BRANCH   6  44
ATOM     44  C4  MOL d          23.025  12.252  24.780  0.00  0.00     0.005 C 
ATOM     45  H4  MOL d          23.219  13.286  24.458  0.00  0.00     0.058 H 
ATOM     46  H5  MOL d          23.896  11.873  25.336  0.00  0.00     0.058 H 
ATOM     47  H6  MOL d          22.137  12.230  25.428  0.00  0.00     0.058 H 
ENDBRANCH   6  44
BRANCH   5  48
ATOM     48  N3  MOL d          22.801   9.236  24.654  0.00  0.00    -0.234 N 
ATOM     49  H2  MOL d          22.074   8.541  24.878  0.00  0.00     0.174 HD
ATOM     50  H3  MOL d          23.615   9.348  25.276  0.00  0.00     0.174 HD
ENDBRANCH   5  48
TORSDOF 7
ENDMDL
MODEL 2
REMARK VINA RESULT:      -7.0      2.169      3.892
REMARK  7 active torsions:
REMARK  status: ('A' for Active; 'I' for Inactive)
REMARK    1  A    between atoms: C2_3  and  C5_9 
REMARK    2  A    between atoms: C11_15  and  C2_3 
REMARK    3  A    between atoms: C3_5  and  N3_7 
REMARK    4  A    between atoms: N2_6  and  C4_8 
REMARK    5  A    between atoms: C19_23  and  C15_19 
REMARK    6  A    between atoms: C22_26  and  O2_27 
REMARK    7  A    between atoms: O2_27  and  C23_28 
ROOT
ATOM      1  O1  MOL d          21.494   9.157  21.114  0.00  0.00    -0.269 OA
ATOM      2  C1  MOL d          20.942  10.235  21.010  0.00  0.00     0.276 A 
ATOM      3  C2  MOL d          21.611  11.647  21.215  0.00  0.00     0.183 A 
ATOM      4  N1  MOL d          20.504  12.565  20.784  0.00  0.00    -0.199 N 
ATOM      5  C3  MOL d          19.402  11.841  20.532  0.00  0.00     0.677 A 
ATOM      6  N2  MOL d          19.639  10.439  20.618  0.00  0.00    -0.153 N 
ATOM      7  H1  MOL d          20.579  13.589  20.697  0.00  0.00     0.179 HD
ENDROOT
BRANCH   3   8
ATOM      8  C5  MOL d          21.951  11.884  22.700  0.00  0.00    -0.015 A 
ATOM      9  C6  MOL d          22.860  12.871  23.069  0.00  0.00    -0.074 A 
ATOM     10  C7  MOL d          23.161  13.101  24.410  0.00  0.00    -0.082 A 
ATOM     11  H7  MOL d          23.341  13.468  22.302  0.00  0.00     0.084 H 
ATOM     12  C8  MOL d          22.555  12.356  25.395  0.00  0.00    -0.083 A 
ATOM     13  H8  MOL d          23.875  13.872  24.678  0.00  0.00     0.083 H 
ATOM     14  C9  MOL d          21.653  11.368  25.048  0.00  0.00    -0.082 A 
ATOM     15  H9  MOL d          22.785  12.542  26.437  0.00  0.00     0.083 H 
ATOM     16  C10 MOL d          21.356  11.127  23.709  0.00  0.00    -0.074 A 
ATOM     17  H10 MOL d          21.174  10.779  25.822  0.00  0.00     0.083 H 
ATOM     18  H11 MOL d          20.655  10.342  23.448  0.00  0.00     0.084 H 
ENDBRANCH   3   8
BRANCH   3  19
ATOM     19  C11 MOL d          22.816  11.744  20.260  0.00  0.00    -0.015 A 
ATOM     20  C12 MOL d          22.707  12.367  19.020  0.00  0.00    -0.074 A 
ATOM     21  C13 MOL d          23.828  12.575  18.230  0.00  0.00    -0.082 A 
ATOM     22  H12 MOL d          21.735  12.694  18.667  0.00  0.00     0.084 H 
ATOM     23  C14 MOL d          25.070  12.151  18.666  0.00  0.00    -0.072 A 
ATOM     24  H13 MOL d          23.731  13.072  17.272  0.00  0.00     0.083 H 
ATOM     25  C15 MOL d          25.206  11.494  19.893  0.00  0.00    -0.025 A 
ATOM     26  H14 MOL d          25.945  12.329  18.052  0.00  0.00     0.084 H 
ATOM     27  C16 MOL d          24.066  11.290  20.681  0.00  0.00    -0.063 A 
ATOM     28  H15 MOL d          24.156  10.773  21.630  0.00  0.00     0.085 H 
BRANCH  25  29
ATOM     29  C19 MOL d          26.532  11.024  20.376  0.00  0.00    -0.023 A 
ATOM     30  C18 MOL d          27.127  11.631  21.483  0.00  0.00    -0.040 A 
ATOM     31  C22 MOL d          28.442  11.348  21.834  0.00  0.00     0.069 A 
ATOM     32  H17 MOL d          26.555  12.334  22.078  0.00  0.00     0.089 H 
ATOM     33  C17 MOL d          29.185  10.436  21.092  0.00  0.00    -0.051 A 
ATOM     34  C21 MOL d          28.587   9.789  20.021  0.00  0.00    -0.080 A 
ATOM     35  H16 MOL d          30.219  10.233  21.348  0.00  0.00     0.087 H 
ATOM     36  C20 MOL d          27.274  10.078  19.665  0.00  0.00    -0.072 A 
ATOM     37  H19 MOL d          29.148   9.053  19.456  0.00  0.00     0.083 H 
ATOM     38  H18 MOL d          26.821   9.563  18.826  0.00  0.00     0.084 H 
BRANCH  31  39
ATOM     39  O2  MOL d          28.896  12.065  22.914  0.00  0.00    -0.356 OA
BRANCH  39  40
ATOM     40  C23 MOL d          28.033  13.075  23.460  0.00  0.00     0.010 C 
ATOM     41  H20 MOL d          28.464  13.457  24.397  0.00  0.00     0.066 H 
ATOM     42  H21 MOL d          27.043  12.642  23.662  0.00  0.00     0.066 H 
ATOM     43  H22 MOL d          27.933  13.900  22.740  0.00  0.00     0.066 H 
ENDBRANCH  39  40
ENDBRANCH  31  39
ENDBRANCH  25  29
ENDBRANCH   3  19
BRANCH   6  44
ATOM     44  C4  MOL d          18.689   9.355  20.343  0.00  0.00     0.005 C 
ATOM     45  H4  MOL d          18.426   8.849  21.284  0.00  0.00     0.058 H 
ATOM     46  H5  MOL d          19.148   8.630  19.654  0.00  0.00     0.058 H 
ATOM     47  H6  MOL d          17.780   9.771  19.885  0.00  0.00     0.058 H 
ENDBRANCH   6  44
BRANCH   5  48
ATOM     48  N3  MOL d          18.221  12.341  20.172  0.00  0.00    -0.234 N 
ATOM     49  H2  MOL d          17.376  11.754  20.223  0.00  0.00     0.174 HD
ATOM     50  H3  MOL d          18.153  13.314  19.841  0.00  0.00     0.174 HD
ENDBRANCH   5  48
TORSDOF 7
ENDMDL
