MODEL 1
REMARK VINA RESULT:      -5.1      0.000      0.000
REMARK  2 active torsions:
REMARK  status: ('A' for Active; 'I' for Inactive)
REMARK    1  A    between atoms: C7_4  and  N6_8 
REMARK    2  A    between atoms: N6_8  and  C5_9 
ROOT
ATOM      1  O13 GZ2 d          -8.563  50.979  10.128  0.00  0.00    -0.293 OA
ATOM      2  C11 GZ2 d          -7.886  51.444  11.034  0.00  0.00     0.151 C 
ATOM      3  C12 GZ2 d          -6.449  51.102  11.112  0.00  0.00    -0.017 C 
ATOM      4  C7  GZ2 d          -5.661  51.638  12.062  0.00  0.00     0.030 C 
ATOM      5  C8  GZ2 d          -6.193  52.635  13.068  0.00  0.00    -0.026 C 
ATOM      6  C9  GZ2 d          -7.491  53.319  12.648  0.00  0.00    -0.054 C 
ATOM      7  C10 GZ2 d          -8.516  52.360  12.063  0.00  0.00    -0.006 C 
ATOM      8  H1  GZ2 d          -6.022  50.407  10.390  0.00  0.00     0.092 H 
ATOM      9  H2  GZ2 d          -5.429  53.411  13.221  0.00  0.00     0.042 H 
ATOM     10  H3  GZ2 d          -6.373  52.105  14.016  0.00  0.00     0.042 H 
ATOM     11  H4  GZ2 d          -7.255  54.082  11.891  0.00  0.00     0.034 H 
ATOM     12  H5  GZ2 d          -7.932  53.803  13.533  0.00  0.00     0.034 H 
ATOM     13  H6  GZ2 d          -8.941  51.751  12.873  0.00  0.00     0.044 H 
ATOM     14  H7  GZ2 d          -9.317  52.941  11.582  0.00  0.00     0.044 H 
ENDROOT
BRANCH   4  15
ATOM     15  N6  GZ2 d          -4.364  51.343  12.233  0.00  0.00    -0.192 N 
ATOM     16  H8  GZ2 d          -4.152  50.379  12.529  0.00  0.00     0.184 HD
BRANCH  15  17
ATOM     17  C5  GZ2 d          -3.293  52.172  12.059  0.00  0.00     0.732 A 
ATOM     18  N4  GZ2 d          -2.970  52.764  10.902  0.00  0.00    -0.115 N 
ATOM     19  N3  GZ2 d          -1.811  53.500  11.203  0.00  0.00     0.008 NA
ATOM     20  H9  GZ2 d          -3.459  52.696   9.999  0.00  0.00     0.203 HD
ATOM     21  N2  GZ2 d          -1.514  53.313  12.566  0.00  0.00     0.033 NA
ATOM     22  N1  GZ2 d          -2.478  52.458  13.098  0.00  0.00     0.030 NA
ENDBRANCH  15  17
ENDBRANCH   4  15
TORSDOF 2
ENDMDL
MODEL 2
REMARK VINA RESULT:      -4.9      3.182      4.978
REMARK  2 active torsions:
REMARK  status: ('A' for Active; 'I' for Inactive)
REMARK    1  A    between atoms: C7_4  and  N6_8 
REMARK    2  A    between atoms: N6_8  and  C5_9 
ROOT
ATOM      1  O13 GZ2 d          -2.243  50.959  10.272  0.00  0.00    -0.293 OA
ATOM      2  C11 GZ2 d          -2.563  51.816  11.083  0.00  0.00     0.151 C 
ATOM      3  C12 GZ2 d          -3.807  51.644  11.866  0.00  0.00    -0.017 C 
ATOM      4  C7  GZ2 d          -4.163  52.539  12.806  0.00  0.00     0.030 C 
ATOM      5  C8  GZ2 d          -3.298  53.736  13.131  0.00  0.00    -0.026 C 
ATOM      6  C9  GZ2 d          -1.843  53.601  12.688  0.00  0.00    -0.054 C 
ATOM      7  C10 GZ2 d          -1.692  53.039  11.283  0.00  0.00    -0.006 C 
ATOM      8  H1  GZ2 d          -4.444  50.781  11.678  0.00  0.00     0.092 H 
ATOM      9  H2  GZ2 d          -3.312  53.886  14.221  0.00  0.00     0.042 H 
ATOM     10  H3  GZ2 d          -3.729  54.618  12.634  0.00  0.00     0.042 H 
ATOM     11  H4  GZ2 d          -1.325  52.930  13.390  0.00  0.00     0.034 H 
ATOM     12  H5  GZ2 d          -1.376  54.596  12.718  0.00  0.00     0.034 H 
ATOM     13  H6  GZ2 d          -1.983  53.809  10.555  0.00  0.00     0.044 H 
ATOM     14  H7  GZ2 d          -0.640  52.760  11.120  0.00  0.00     0.044 H 
ENDROOT
BRANCH   4  15
ATOM     15  N6  GZ2 d          -5.295  52.484  13.521  0.00  0.00    -0.192 N 
ATOM     16  H8  GZ2 d          -5.231  52.019  14.438  0.00  0.00     0.184 HD
BRANCH  15  17
ATOM     17  C5  GZ2 d          -6.522  52.974  13.176  0.00  0.00     0.732 A 
ATOM     18  N4  GZ2 d          -7.359  52.384  12.312  0.00  0.00    -0.115 N 
ATOM     19  N3  GZ2 d          -8.472  53.242  12.271  0.00  0.00     0.008 NA
ATOM     20  H9  GZ2 d          -7.220  51.505  11.796  0.00  0.00     0.203 HD
ATOM     21  N2  GZ2 d          -8.234  54.312  13.153  0.00  0.00     0.033 NA
ATOM     22  N1  GZ2 d          -6.977  54.120  13.725  0.00  0.00     0.030 NA
ENDBRANCH  15  17
ENDBRANCH   4  15
TORSDOF 2
ENDMDL
MODEL 3
REMARK VINA RESULT:      -4.4      3.641      5.269
REMARK  2 active torsions:
REMARK  status: ('A' for Active; 'I' for Inactive)
REMARK    1  A    between atoms: C7_4  and  N6_8 
REMARK    2  A    between atoms: N6_8  and  C5_9 
ROOT
ATOM      1  O13 GZ2 d          -1.514  53.532  13.260  0.00  0.00    -0.293 OA
ATOM      2  C11 GZ2 d          -2.451  52.825  12.921  0.00  0.00     0.151 C 
ATOM      3  C12 GZ2 d          -3.834  53.277  13.189  0.00  0.00    -0.017 C 
ATOM      4  C7  GZ2 d          -4.891  52.552  12.782  0.00  0.00     0.030 C 
ATOM      5  C8  GZ2 d          -4.721  51.265  12.005  0.00  0.00    -0.026 C 
ATOM      6  C9  GZ2 d          -3.359  51.111  11.333  0.00  0.00    -0.054 C 
ATOM      7  C10 GZ2 d          -2.196  51.499  12.233  0.00  0.00    -0.006 C 
ATOM      8  H1  GZ2 d          -3.998  54.212  13.723  0.00  0.00     0.092 H 
ATOM      9  H2  GZ2 d          -5.495  51.227  11.225  0.00  0.00     0.042 H 
ATOM     10  H3  GZ2 d          -4.860  50.422  12.700  0.00  0.00     0.042 H 
ATOM     11  H4  GZ2 d          -3.336  51.752  10.439  0.00  0.00     0.034 H 
ATOM     12  H5  GZ2 d          -3.234  50.060  11.035  0.00  0.00     0.034 H 
ATOM     13  H6  GZ2 d          -2.057  50.720  12.997  0.00  0.00     0.044 H 
ATOM     14  H7  GZ2 d          -1.283  51.581  11.624  0.00  0.00     0.044 H 
ENDROOT
BRANCH   4  15
ATOM     15  N6  GZ2 d          -6.171  52.865  13.027  0.00  0.00    -0.192 N 
ATOM     16  H8  GZ2 d          -6.500  52.711  13.991  0.00  0.00     0.184 HD
BRANCH  15  17
ATOM     17  C5  GZ2 d          -7.089  53.365  12.148  0.00  0.00     0.732 A 
ATOM     18  N4  GZ2 d          -6.788  53.895  10.955  0.00  0.00    -0.115 N 
ATOM     19  N3  GZ2 d          -8.033  54.273  10.422  0.00  0.00     0.008 NA
ATOM     20  H9  GZ2 d          -5.859  54.002  10.527  0.00  0.00     0.203 HD
ATOM     21  N2  GZ2 d          -9.032  53.916  11.347  0.00  0.00     0.033 NA
ATOM     22  N1  GZ2 d          -8.405  53.334  12.448  0.00  0.00     0.030 NA
ENDBRANCH  15  17
ENDBRANCH   4  15
TORSDOF 2
ENDMDL
MODEL 4
REMARK VINA RESULT:      -4.2      3.549      5.116
REMARK  2 active torsions:
REMARK  status: ('A' for Active; 'I' for Inactive)
REMARK    1  A    between atoms: C7_4  and  N6_8 
REMARK    2  A    between atoms: N6_8  and  C5_9 
ROOT
ATOM      1  O13 GZ2 d          -1.913  51.110  12.699  0.00  0.00    -0.293 OA
ATOM      2  C11 GZ2 d          -2.803  51.943  12.613  0.00  0.00     0.151 C 
ATOM      3  C12 GZ2 d          -4.214  51.505  12.689  0.00  0.00    -0.017 C 
ATOM      4  C7  GZ2 d          -5.219  52.399  12.653  0.00  0.00     0.030 C 
ATOM      5  C8  GZ2 d          -4.958  53.886  12.570  0.00  0.00    -0.026 C 
ATOM      6  C9  GZ2 d          -3.552  54.303  12.996  0.00  0.00    -0.054 C 
ATOM      7  C10 GZ2 d          -2.461  53.407  12.432  0.00  0.00    -0.006 C 
ATOM      8  H1  GZ2 d          -4.443  50.444  12.775  0.00  0.00     0.092 H 
ATOM      9  H2  GZ2 d          -5.681  54.401  13.219  0.00  0.00     0.042 H 
ATOM     10  H3  GZ2 d          -5.110  54.205  11.527  0.00  0.00     0.042 H 
ATOM     11  H4  GZ2 d          -3.497  54.270  14.095  0.00  0.00     0.034 H 
ATOM     12  H5  GZ2 d          -3.374  55.332  12.650  0.00  0.00     0.034 H 
ATOM     13  H6  GZ2 d          -2.343  53.618  11.359  0.00  0.00     0.044 H 
ATOM     14  H7  GZ2 d          -1.516  53.622  12.953  0.00  0.00     0.044 H 
ENDROOT
BRANCH   4  15
ATOM     15  N6  GZ2 d          -6.522  52.083  12.666  0.00  0.00    -0.192 N 
ATOM     16  H8  GZ2 d          -6.820  51.411  13.388  0.00  0.00     0.184 HD
BRANCH  15  17
ATOM     17  C5  GZ2 d          -7.499  52.548  11.833  0.00  0.00     0.732 A 
ATOM     18  N4  GZ2 d          -7.468  52.452  10.497  0.00  0.00    -0.115 N 
ATOM     19  N3  GZ2 d          -8.663  53.065  10.080  0.00  0.00     0.008 NA
ATOM     20  H9  GZ2 d          -6.737  52.028   9.911  0.00  0.00     0.203 HD
ATOM     21  N2  GZ2 d          -9.364  53.483  11.226  0.00  0.00     0.033 NA
ATOM     22  N1  GZ2 d          -8.601  53.141  12.342  0.00  0.00     0.030 NA
ENDBRANCH  15  17
ENDBRANCH   4  15
TORSDOF 2
ENDMDL
MODEL 5
REMARK VINA RESULT:      -3.8      3.538      5.154
REMARK  2 active torsions:
REMARK  status: ('A' for Active; 'I' for Inactive)
REMARK    1  A    between atoms: C7_4  and  N6_8 
REMARK    2  A    between atoms: N6_8  and  C5_9 
ROOT
ATOM      1  O13 GZ2 d          -2.130  53.975  11.878  0.00  0.00    -0.293 OA
ATOM      2  C11 GZ2 d          -2.836  53.051  11.502  0.00  0.00     0.151 C 
ATOM      3  C12 GZ2 d          -4.241  52.980  11.960  0.00  0.00    -0.017 C 
ATOM      4  C7  GZ2 d          -5.063  52.008  11.524  0.00  0.00     0.030 C 
ATOM      5  C8  GZ2 d          -4.605  50.968  10.526  0.00  0.00    -0.026 C 
ATOM      6  C9  GZ2 d          -3.368  51.366   9.725  0.00  0.00    -0.054 C 
ATOM      7  C10 GZ2 d          -2.274  51.991  10.577  0.00  0.00    -0.006 C 
ATOM      8  H1  GZ2 d          -4.616  53.726  12.660  0.00  0.00     0.092 H 
ATOM      9  H2  GZ2 d          -5.427  50.783   9.819  0.00  0.00     0.042 H 
ATOM     10  H3  GZ2 d          -4.378  50.041  11.074  0.00  0.00     0.042 H 
ATOM     11  H4  GZ2 d          -3.668  52.093   8.956  0.00  0.00     0.034 H 
ATOM     12  H5  GZ2 d          -2.961  50.466   9.241  0.00  0.00     0.034 H 
ATOM     13  H6  GZ2 d          -1.797  51.205  11.181  0.00  0.00     0.044 H 
ATOM     14  H7  GZ2 d          -1.525  52.452   9.918  0.00  0.00     0.044 H 
ENDROOT
BRANCH   4  15
ATOM     15  N6  GZ2 d          -6.331  51.844  11.927  0.00  0.00    -0.192 N 
ATOM     16  H8  GZ2 d          -6.646  50.871  12.053  0.00  0.00     0.184 HD
BRANCH  15  17
ATOM     17  C5  GZ2 d          -7.253  52.816  12.190  0.00  0.00     0.732 A 
ATOM     18  N4  GZ2 d          -8.151  53.271  11.305  0.00  0.00    -0.115 N 
ATOM     19  N3  GZ2 d          -8.866  54.252  12.012  0.00  0.00     0.008 NA
ATOM     20  H9  GZ2 d          -8.286  52.970  10.330  0.00  0.00     0.203 HD
ATOM     21  N2  GZ2 d          -8.350  54.312  13.321  0.00  0.00     0.033 NA
ATOM     22  N1  GZ2 d          -7.317  53.381  13.414  0.00  0.00     0.030 NA
ENDBRANCH  15  17
ENDBRANCH   4  15
TORSDOF 2
ENDMDL
MODEL 6
REMARK VINA RESULT:      -3.5      1.758      2.085
REMARK  2 active torsions:
REMARK  status: ('A' for Active; 'I' for Inactive)
REMARK    1  A    between atoms: C7_4  and  N6_8 
REMARK    2  A    between atoms: N6_8  and  C5_9 
ROOT
ATOM      1  O13 GZ2 d          -8.867  51.032   9.049  0.00  0.00    -0.293 OA
ATOM      2  C11 GZ2 d          -8.497  51.589  10.072  0.00  0.00     0.151 C 
ATOM      3  C12 GZ2 d          -7.272  52.418  10.042  0.00  0.00    -0.017 C 
ATOM      4  C7  GZ2 d          -6.864  53.091  11.134  0.00  0.00     0.030 C 
ATOM      5  C8  GZ2 d          -7.650  53.060  12.426  0.00  0.00    -0.026 C 
ATOM      6  C9  GZ2 d          -9.107  52.634  12.266  0.00  0.00    -0.054 C 
ATOM      7  C10 GZ2 d          -9.286  51.430  11.355  0.00  0.00    -0.006 C 
ATOM      8  H1  GZ2 d          -6.692  52.486   9.123  0.00  0.00     0.092 H 
ATOM      9  H2  GZ2 d          -7.633  54.069  12.865  0.00  0.00     0.042 H 
ATOM     10  H3  GZ2 d          -7.157  52.354  13.112  0.00  0.00     0.042 H 
ATOM     11  H4  GZ2 d          -9.674  53.478  11.845  0.00  0.00     0.034 H 
ATOM     12  H5  GZ2 d          -9.508  52.383  13.260  0.00  0.00     0.034 H 
ATOM     13  H6  GZ2 d          -8.939  50.528  11.880  0.00  0.00     0.044 H 
ATOM     14  H7  GZ2 d         -10.353  51.322  11.108  0.00  0.00     0.044 H 
ENDROOT
BRANCH   4  15
ATOM     15  N6  GZ2 d          -5.743  53.822  11.205  0.00  0.00    -0.192 N 
ATOM     16  H8  GZ2 d          -5.600  54.510  10.451  0.00  0.00     0.184 HD
BRANCH  15  17
ATOM     17  C5  GZ2 d          -4.768  53.761  12.160  0.00  0.00     0.732 A 
ATOM     18  N4  GZ2 d          -3.476  53.509  11.911  0.00  0.00    -0.115 N 
ATOM     19  N3  GZ2 d          -2.869  53.539  13.178  0.00  0.00     0.008 NA
ATOM     20  H9  GZ2 d          -3.030  53.333  11.000  0.00  0.00     0.203 HD
ATOM     21  N2  GZ2 d          -3.861  53.835  14.133  0.00  0.00     0.033 NA
ATOM     22  N1  GZ2 d          -5.073  53.975  13.457  0.00  0.00     0.030 NA
ENDBRANCH  15  17
ENDBRANCH   4  15
TORSDOF 2
ENDMDL
