MODEL 1
REMARK VINA RESULT:     -11.2      0.000      0.000
REMARK  20 active torsions:
REMARK  status: ('A' for Active; 'I' for Inactive)
REMARK    1  A    between atoms: C1_1  and  C23_23 
REMARK    2  A    between atoms: C1_1  and  C2_2 
REMARK    3  A    between atoms: C2_2  and  C18_18 
REMARK    4  A    between atoms: C2_2  and  C3_3 
REMARK    5  A    between atoms: C21_21  and  C4_4 
REMARK    6  A    between atoms: C13_13  and  C5_5 
REMARK    7  A    between atoms: C18_18  and  C7_7 
REMARK    8  A    between atoms: C7_7  and  C16_16 
REMARK    9  A    between atoms: C7_7  and  C8_8 
REMARK   10  A    between atoms: C8_8  and  C9_9 
REMARK   11  A    between atoms: C9_9  and  C10_10 
REMARK       I    between atoms: C16_16  and  N18_45 
REMARK   12  A    between atoms: N18_45  and  C19_19 
REMARK   13  A    between atoms: C19_19  and  C27_27 
REMARK   14  A    between atoms: C19_19  and  C20_20 
REMARK   15  A    between atoms: C20_20  and  C21_21 
REMARK   16  A    between atoms: C21_21  and  C22_22 
REMARK   17  A    between atoms: C23_23  and  C24_24 
REMARK   18  A    between atoms: C24_24  and  C25_25 
REMARK   19  A    between atoms: C25_25  and  N1_44 
REMARK       I    between atoms: C27_27  and  N29_46 
REMARK   20  A    between atoms: N29_46  and  C30_30 
ROOT
ATOM      1  C7  L04 d          33.705  38.327  22.140  0.00  0.00     0.025 C 
ATOM      2  H8  L04 d          33.964  38.046  21.108  0.00  0.00     0.054 H 
ENDROOT
BRANCH   1   3
ATOM      3  C18 L04 d          34.897  39.054  22.762  0.00  0.00    -0.041 C 
ATOM      4  H18 L04 d          34.505  39.902  23.342  0.00  0.00     0.035 H 
ATOM      5  H19 L04 d          35.403  38.349  23.438  0.00  0.00     0.035 H 
BRANCH   3   6
ATOM      6  C2  L04 d          35.944  39.600  21.790  0.00  0.00     0.031 C 
ATOM      7  H3  L04 d          35.474  39.646  20.797  0.00  0.00     0.056 H 
BRANCH   6   8
ATOM      8  C1  L04 d          37.177  38.694  21.653  0.00  0.00    -0.052 C 
ATOM      9  H1  L04 d          36.915  37.853  20.996  0.00  0.00     0.034 H 
ATOM     10  H2  L04 d          37.987  39.280  21.194  0.00  0.00     0.034 H 
BRANCH   8  11
ATOM     11  C23 L04 d          37.687  38.129  22.969  0.00  0.00    -0.063 C 
ATOM     12  H27 L04 d          36.830  37.920  23.625  0.00  0.00     0.033 H 
ATOM     13  H28 L04 d          38.343  38.871  23.447  0.00  0.00     0.033 H 
BRANCH  11  14
ATOM     14  C24 L04 d          38.471  36.842  22.750  0.00  0.00    -0.050 C 
ATOM     15  H29 L04 d          38.009  36.280  21.925  0.00  0.00     0.035 H 
ATOM     16  H30 L04 d          38.433  36.242  23.671  0.00  0.00     0.035 H 
BRANCH  14  17
ATOM     17  C25 L04 d          39.926  37.121  22.402  0.00  0.00    -0.002 C 
ATOM     18  H31 L04 d          40.455  37.413  23.322  0.00  0.00     0.064 H 
ATOM     19  H32 L04 d          39.961  37.950  21.680  0.00  0.00     0.064 H 
BRANCH  17  20
ATOM     20  N1  L04 d          40.610  35.968  21.819  0.00  0.00    -0.344 N 
ATOM     21  C28 L04 d          40.841  34.649  22.422  0.00  0.00     0.023 A 
ATOM     22  C36 L04 d          41.527  33.893  21.286  0.00  0.00    -0.025 A 
ATOM     23  H33 L04 d          39.893  34.169  22.706  0.00  0.00     0.071 H 
ATOM     24  H34 L04 d          41.494  34.722  23.304  0.00  0.00     0.071 H 
ATOM     25  C29 L04 d          41.697  34.771  20.185  0.00  0.00     0.040 A 
ATOM     26  C38 L04 d          41.947  32.561  21.181  0.00  0.00    -0.074 A 
ATOM     27  C26 L04 d          41.132  36.069  20.572  0.00  0.00     0.254 A 
ATOM     28  C37 L04 d          42.284  34.299  19.001  0.00  0.00    -0.067 A 
ATOM     29  O1  L04 d          41.099  37.078  19.863  0.00  0.00    -0.267 OA
ATOM     30  C40 L04 d          42.689  32.976  18.921  0.00  0.00    -0.082 A 
ATOM     31  H40 L04 d          42.419  34.964  18.156  0.00  0.00     0.085 H 
ATOM     32  C39 L04 d          42.525  32.118  19.995  0.00  0.00    -0.082 A 
ATOM     33  H43 L04 d          43.139  32.608  18.006  0.00  0.00     0.083 H 
ATOM     34  H42 L04 d          42.851  31.087  19.911  0.00  0.00     0.083 H 
ATOM     35  H41 L04 d          41.823  31.881  22.016  0.00  0.00     0.084 H 
ENDBRANCH  17  20
ENDBRANCH  14  17
ENDBRANCH  11  14
ENDBRANCH   8  11
ENDBRANCH   6   8
BRANCH   6  36
ATOM     36  C3  L04 d          36.326  41.031  22.185  0.00  0.00     0.177 C 
ATOM     37  O5  L04 d          37.511  41.453  22.211  0.00  0.00    -0.648 OA
ATOM     38  O4  L04 d          35.411  41.782  22.531  0.00  0.00    -0.648 OA
ENDBRANCH   6  36
ENDBRANCH   3   6
ENDBRANCH   1   3
BRANCH   1  39
ATOM     39  C16 L04 d          32.480  39.230  22.118  0.00  0.00     0.222 C 
ATOM     40  O17 L04 d          32.476  40.278  21.468  0.00  0.00    -0.273 OA
ATOM     41  N18 L04 d          31.441  38.815  22.835  0.00  0.00    -0.347 N 
ATOM     42  H46 L04 d          31.498  37.944  23.322  0.00  0.00     0.163 HD
BRANCH  41  43
ATOM     43  C19 L04 d          30.223  39.607  22.925  0.00  0.00     0.090 C 
ATOM     44  H20 L04 d          30.438  40.650  22.648  0.00  0.00     0.087 H 
BRANCH  43  45
ATOM     45  C27 L04 d          29.744  39.544  24.371  0.00  0.00     0.245 C 
ATOM     46  O28 L04 d          30.427  38.978  25.228  0.00  0.00    -0.271 OA
ATOM     47  N29 L04 d          28.607  40.190  24.637  0.00  0.00    -0.325 N 
ATOM     48  H47 L04 d          28.184  40.660  23.862  0.00  0.00     0.169 HD
BRANCH  47  49
ATOM     49  C30 L04 d          27.939  40.294  25.841  0.00  0.00     0.034 A 
ATOM     50  C35 L04 d          27.072  39.318  26.332  0.00  0.00    -0.057 A 
ATOM     51  C34 L04 d          26.421  39.489  27.551  0.00  0.00    -0.081 A 
ATOM     52  H39 L04 d          26.902  38.415  25.757  0.00  0.00     0.086 H 
ATOM     53  C33 L04 d          26.636  40.648  28.297  0.00  0.00    -0.083 A 
ATOM     54  H38 L04 d          25.748  38.723  27.920  0.00  0.00     0.083 H 
ATOM     55  C32 L04 d          27.498  41.628  27.817  0.00  0.00    -0.081 A 
ATOM     56  H37 L04 d          26.133  40.785  29.247  0.00  0.00     0.083 H 
ATOM     57  C31 L04 d          28.144  41.447  26.597  0.00  0.00    -0.057 A 
ATOM     58  H36 L04 d          27.667  42.531  28.391  0.00  0.00     0.083 H 
ATOM     59  H35 L04 d          28.816  42.213  26.230  0.00  0.00     0.086 H 
ENDBRANCH  47  49
ENDBRANCH  43  45
BRANCH  43  60
ATOM     60  C20 L04 d          29.141  39.053  21.996  0.00  0.00    -0.035 C 
ATOM     61  H21 L04 d          28.209  39.002  22.577  0.00  0.00     0.037 H 
ATOM     62  H22 L04 d          29.450  38.038  21.706  0.00  0.00     0.037 H 
BRANCH  60  63
ATOM     63  C21 L04 d          28.828  39.817  20.707  0.00  0.00    -0.059 C 
ATOM     64  H23 L04 d          29.116  40.871  20.834  0.00  0.00     0.038 H 
BRANCH  63  65
ATOM     65  C4  L04 d          29.648  39.209  19.582  0.00  0.00    -0.073 C 
ATOM     66  H4  L04 d          29.030  38.487  19.027  0.00  0.00     0.028 H 
ATOM     67  H5  L04 d          30.524  38.694  20.003  0.00  0.00     0.028 H 
ATOM     68  H6  L04 d          29.983  40.005  18.900  0.00  0.00     0.028 H 
ENDBRANCH  63  65
BRANCH  63  69
ATOM     69  C22 L04 d          27.336  39.754  20.384  0.00  0.00    -0.073 C 
ATOM     70  H24 L04 d          26.845  39.037  21.058  0.00  0.00     0.028 H 
ATOM     71  H25 L04 d          27.200  39.429  19.342  0.00  0.00     0.028 H 
ATOM     72  H26 L04 d          26.889  40.750  20.519  0.00  0.00     0.028 H 
ENDBRANCH  63  69
ENDBRANCH  60  63
ENDBRANCH  43  60
ENDBRANCH  41  43
ENDBRANCH   1  39
BRANCH   1  73
ATOM     73  C8  L04 d          33.359  37.061  22.929  0.00  0.00    -0.050 C 
ATOM     74  H9  L04 d          32.328  36.768  22.679  0.00  0.00     0.034 H 
ATOM     75  H10 L04 d          33.423  37.294  24.002  0.00  0.00     0.034 H 
BRANCH  73  76
ATOM     76  C9  L04 d          34.264  35.893  22.643  0.00  0.00    -0.040 C 
ATOM     77  H11 L04 d          35.118  36.260  22.055  0.00  0.00     0.040 H 
ATOM     78  H12 L04 d          33.699  35.160  22.050  0.00  0.00     0.040 H 
BRANCH  76  79
ATOM     79  C10 L04 d          34.798  35.199  23.858  0.00  0.00    -0.058 A 
ATOM     80  C15 L04 d          35.121  33.848  23.814  0.00  0.00    -0.076 A 
ATOM     81  C14 L04 d          35.647  33.207  24.927  0.00  0.00    -0.072 A 
ATOM     82  H16 L04 d          34.959  33.287  22.901  0.00  0.00     0.084 H 
ATOM     83  C13 L04 d          35.858  33.910  26.107  0.00  0.00    -0.026 A 
ATOM     84  H15 L04 d          35.896  32.153  24.875  0.00  0.00     0.084 H 
ATOM     85  C12 L04 d          35.531  35.262  26.148  0.00  0.00    -0.072 A 
ATOM     86  C11 L04 d          35.007  35.898  25.038  0.00  0.00    -0.076 A 
ATOM     87  H14 L04 d          35.688  35.823  27.062  0.00  0.00     0.084 H 
ATOM     88  H13 L04 d          34.757  36.952  25.091  0.00  0.00     0.084 H 
BRANCH  83  89
ATOM     89  C5  L04 d          36.418  33.246  27.295  0.00  0.00    -0.026 A 
ATOM     90  C43 L04 d          37.030  33.993  28.296  0.00  0.00    -0.069 A 
ATOM     91  C42 L04 d          37.567  33.369  29.414  0.00  0.00    -0.045 A 
ATOM     92  H45 L04 d          37.089  35.072  28.202  0.00  0.00     0.085 H 
ATOM     93  C41 L04 d          37.504  31.990  29.554  0.00  0.00     0.116 A 
ATOM     94  H44 L04 d          38.039  33.965  30.185  0.00  0.00     0.088 H 
ATOM     95  C17 L04 d          36.880  31.241  28.566  0.00  0.00    -0.045 A 
ATOM     96  F1  L04 d          38.044  31.394  30.637  0.00  0.00    -0.206 F 
ATOM     97  C6  L04 d          36.348  31.865  27.442  0.00  0.00    -0.069 A 
ATOM     98  H17 L04 d          36.807  30.165  28.671  0.00  0.00     0.088 H 
ATOM     99  H7  L04 d          35.874  31.267  26.671  0.00  0.00     0.085 H 
ENDBRANCH  83  89
ENDBRANCH  76  79
ENDBRANCH  73  76
ENDBRANCH   1  73
TORSDOF 20
ENDMDL
MODEL 2
REMARK VINA RESULT:     -11.1      2.123     10.330
REMARK  20 active torsions:
REMARK  status: ('A' for Active; 'I' for Inactive)
REMARK    1  A    between atoms: C1_1  and  C23_23 
REMARK    2  A    between atoms: C1_1  and  C2_2 
REMARK    3  A    between atoms: C2_2  and  C18_18 
REMARK    4  A    between atoms: C2_2  and  C3_3 
REMARK    5  A    between atoms: C21_21  and  C4_4 
REMARK    6  A    between atoms: C13_13  and  C5_5 
REMARK    7  A    between atoms: C18_18  and  C7_7 
REMARK    8  A    between atoms: C7_7  and  C16_16 
REMARK    9  A    between atoms: C7_7  and  C8_8 
REMARK   10  A    between atoms: C8_8  and  C9_9 
REMARK   11  A    between atoms: C9_9  and  C10_10 
REMARK       I    between atoms: C16_16  and  N18_45 
REMARK   12  A    between atoms: N18_45  and  C19_19 
REMARK   13  A    between atoms: C19_19  and  C27_27 
REMARK   14  A    between atoms: C19_19  and  C20_20 
REMARK   15  A    between atoms: C20_20  and  C21_21 
REMARK   16  A    between atoms: C21_21  and  C22_22 
REMARK   17  A    between atoms: C23_23  and  C24_24 
REMARK   18  A    between atoms: C24_24  and  C25_25 
REMARK   19  A    between atoms: C25_25  and  N1_44 
REMARK       I    between atoms: C27_27  and  N29_46 
REMARK   20  A    between atoms: N29_46  and  C30_30 
ROOT
ATOM      1  C7  L04 d          35.653  37.674  22.950  0.00  0.00     0.025 C 
ATOM      2  H8  L04 d          35.894  37.500  24.009  0.00  0.00     0.054 H 
ENDROOT
BRANCH   1   3
ATOM      3  C18 L04 d          34.614  38.791  22.863  0.00  0.00    -0.041 C 
ATOM      4  H18 L04 d          34.406  38.972  21.798  0.00  0.00     0.035 H 
ATOM      5  H19 L04 d          33.699  38.436  23.360  0.00  0.00     0.035 H 
BRANCH   3   6
ATOM      6  C2  L04 d          34.998  40.130  23.496  0.00  0.00     0.031 C 
ATOM      7  H3  L04 d          36.051  40.054  23.802  0.00  0.00     0.056 H 
BRANCH   6   8
ATOM      8  C1  L04 d          34.192  40.457  24.761  0.00  0.00    -0.052 C 
ATOM      9  H1  L04 d          33.904  39.511  25.240  0.00  0.00     0.034 H 
ATOM     10  H2  L04 d          34.837  41.032  25.442  0.00  0.00     0.034 H 
BRANCH   8  11
ATOM     11  C23 L04 d          32.930  41.265  24.507  0.00  0.00    -0.063 C 
ATOM     12  H27 L04 d          33.177  42.123  23.864  0.00  0.00     0.033 H 
ATOM     13  H28 L04 d          32.537  41.628  25.468  0.00  0.00     0.033 H 
BRANCH  11  14
ATOM     14  C24 L04 d          31.864  40.422  23.821  0.00  0.00    -0.050 C 
ATOM     15  H29 L04 d          31.246  39.935  24.590  0.00  0.00     0.035 H 
ATOM     16  H30 L04 d          32.357  39.655  23.206  0.00  0.00     0.035 H 
BRANCH  14  17
ATOM     17  C25 L04 d          30.965  41.266  22.929  0.00  0.00    -0.002 C 
ATOM     18  H31 L04 d          31.518  41.516  22.012  0.00  0.00     0.064 H 
ATOM     19  H32 L04 d          30.708  42.192  23.466  0.00  0.00     0.064 H 
BRANCH  17  20
ATOM     20  N1  L04 d          29.725  40.589  22.554  0.00  0.00    -0.344 N 
ATOM     21  C28 L04 d          28.755  39.920  23.430  0.00  0.00     0.023 A 
ATOM     22  C36 L04 d          27.670  39.496  22.442  0.00  0.00    -0.025 A 
ATOM     23  H33 L04 d          28.357  40.611  24.187  0.00  0.00     0.071 H 
ATOM     24  H34 L04 d          29.203  39.048  23.928  0.00  0.00     0.071 H 
ATOM     25  C29 L04 d          28.069  39.865  21.132  0.00  0.00     0.040 A 
ATOM     26  C38 L04 d          26.430  38.875  22.639  0.00  0.00    -0.074 A 
ATOM     27  C26 L04 d          29.377  40.523  21.245  0.00  0.00     0.254 A 
ATOM     28  C37 L04 d          27.222  39.605  20.046  0.00  0.00    -0.067 A 
ATOM     29  O1  L04 d          30.033  40.982  20.307  0.00  0.00    -0.267 OA
ATOM     30  C40 L04 d          25.998  38.992  20.266  0.00  0.00    -0.082 A 
ATOM     31  H40 L04 d          27.520  39.882  19.041  0.00  0.00     0.085 H 
ATOM     32  C39 L04 d          25.607  38.630  21.544  0.00  0.00    -0.082 A 
ATOM     33  H43 L04 d          25.339  38.794  19.428  0.00  0.00     0.083 H 
ATOM     34  H42 L04 d          24.646  38.149  21.693  0.00  0.00     0.083 H 
ATOM     35  H41 L04 d          26.114  38.587  23.635  0.00  0.00     0.084 H 
ENDBRANCH  17  20
ENDBRANCH  14  17
ENDBRANCH  11  14
ENDBRANCH   8  11
ENDBRANCH   6   8
BRANCH   6  36
ATOM     36  C3  L04 d          34.903  41.247  22.450  0.00  0.00     0.177 C 
ATOM     37  O5  L04 d          35.273  42.431  22.661  0.00  0.00    -0.648 OA
ATOM     38  O4  L04 d          34.396  40.958  21.363  0.00  0.00    -0.648 OA
ENDBRANCH   6  36
ENDBRANCH   3   6
ENDBRANCH   1   3
BRANCH   1  39
ATOM     39  C16 L04 d          36.923  38.067  22.208  0.00  0.00     0.222 C 
ATOM     40  O17 L04 d          36.869  38.681  21.139  0.00  0.00    -0.273 OA
ATOM     41  N18 L04 d          38.066  37.706  22.783  0.00  0.00    -0.347 N 
ATOM     42  H46 L04 d          38.043  37.230  23.662  0.00  0.00     0.163 HD
BRANCH  41  43
ATOM     43  C19 L04 d          39.348  37.991  22.156  0.00  0.00     0.090 C 
ATOM     44  H20 L04 d          39.243  37.945  21.062  0.00  0.00     0.087 H 
BRANCH  43  45
ATOM     45  C27 L04 d          40.333  36.927  22.627  0.00  0.00     0.245 C 
ATOM     46  O28 L04 d          40.475  36.703  23.832  0.00  0.00    -0.271 OA
ATOM     47  N29 L04 d          40.947  36.236  21.666  0.00  0.00    -0.325 N 
ATOM     48  H47 L04 d          40.695  36.477  20.728  0.00  0.00     0.169 HD
BRANCH  47  49
ATOM     49  C30 L04 d          41.885  35.230  21.796  0.00  0.00     0.034 A 
ATOM     50  C35 L04 d          43.178  35.435  22.276  0.00  0.00    -0.057 A 
ATOM     51  C34 L04 d          44.080  34.378  22.374  0.00  0.00    -0.081 A 
ATOM     52  H39 L04 d          43.486  36.430  22.577  0.00  0.00     0.086 H 
ATOM     53  C33 L04 d          43.690  33.095  21.990  0.00  0.00    -0.083 A 
ATOM     54  H38 L04 d          45.082  34.552  22.748  0.00  0.00     0.083 H 
ATOM     55  C32 L04 d          42.403  32.880  21.509  0.00  0.00    -0.081 A 
ATOM     56  H37 L04 d          44.388  32.270  22.066  0.00  0.00     0.083 H 
ATOM     57  C31 L04 d          41.510  33.943  21.416  0.00  0.00    -0.057 A 
ATOM     58  H36 L04 d          42.097  31.885  21.207  0.00  0.00     0.083 H 
ATOM     59  H35 L04 d          40.508  33.767  21.042  0.00  0.00     0.086 H 
ENDBRANCH  47  49
ENDBRANCH  43  45
BRANCH  43  60
ATOM     60  C20 L04 d          39.855  39.379  22.554  0.00  0.00    -0.035 C 
ATOM     61  H21 L04 d          40.714  39.231  23.225  0.00  0.00     0.037 H 
ATOM     62  H22 L04 d          39.042  39.877  23.102  0.00  0.00     0.037 H 
BRANCH  60  63
ATOM     63  C21 L04 d          40.306  40.334  21.446  0.00  0.00    -0.059 C 
ATOM     64  H23 L04 d          39.698  41.250  21.491  0.00  0.00     0.038 H 
BRANCH  63  65
ATOM     65  C4  L04 d          41.762  40.691  21.687  0.00  0.00    -0.073 C 
ATOM     66  H4  L04 d          42.295  40.728  20.725  0.00  0.00     0.028 H 
ATOM     67  H5  L04 d          42.224  39.930  22.333  0.00  0.00     0.028 H 
ATOM     68  H6  L04 d          41.823  41.674  22.177  0.00  0.00     0.028 H 
ENDBRANCH  63  65
BRANCH  63  69
ATOM     69  C22 L04 d          40.126  39.696  20.069  0.00  0.00    -0.073 C 
ATOM     70  H24 L04 d          40.333  40.443  19.288  0.00  0.00     0.028 H 
ATOM     71  H25 L04 d          39.093  39.333  19.965  0.00  0.00     0.028 H 
ATOM     72  H26 L04 d          40.823  38.852  19.962  0.00  0.00     0.028 H 
ENDBRANCH  63  69
ENDBRANCH  60  63
ENDBRANCH  43  60
ENDBRANCH  41  43
ENDBRANCH   1  39
BRANCH   1  73
ATOM     73  C8  L04 d          35.119  36.375  22.339  0.00  0.00    -0.050 C 
ATOM     74  H9  L04 d          35.976  35.731  22.092  0.00  0.00     0.034 H 
ATOM     75  H10 L04 d          34.571  36.625  21.419  0.00  0.00     0.034 H 
BRANCH  73  76
ATOM     76  C9  L04 d          34.195  35.607  23.246  0.00  0.00    -0.040 C 
ATOM     77  H11 L04 d          33.689  34.838  22.646  0.00  0.00     0.040 H 
ATOM     78  H12 L04 d          33.450  36.308  23.649  0.00  0.00     0.040 H 
BRANCH  76  79
ATOM     79  C10 L04 d          34.867  34.929  24.400  0.00  0.00    -0.058 A 
ATOM     80  C15 L04 d          35.140  35.629  25.569  0.00  0.00    -0.076 A 
ATOM     81  C14 L04 d          35.732  34.997  26.654  0.00  0.00    -0.072 A 
ATOM     82  H16 L04 d          34.888  36.681  25.635  0.00  0.00     0.084 H 
ATOM     83  C13 L04 d          36.065  33.650  26.585  0.00  0.00    -0.026 A 
ATOM     84  H15 L04 d          35.935  35.557  27.559  0.00  0.00     0.084 H 
ATOM     85  C12 L04 d          35.794  32.953  25.412  0.00  0.00    -0.072 A 
ATOM     86  C11 L04 d          35.203  33.584  24.333  0.00  0.00    -0.076 A 
ATOM     87  H14 L04 d          36.049  31.901  25.343  0.00  0.00     0.084 H 
ATOM     88  H13 L04 d          35.002  33.023  23.427  0.00  0.00     0.084 H 
BRANCH  83  89
ATOM     89  C5  L04 d          36.691  32.964  27.727  0.00  0.00    -0.026 A 
ATOM     90  C43 L04 d          36.658  31.577  27.820  0.00  0.00    -0.069 A 
ATOM     91  C42 L04 d          37.240  30.928  28.900  0.00  0.00    -0.045 A 
ATOM     92  H45 L04 d          36.173  30.998  27.042  0.00  0.00     0.085 H 
ATOM     93  C41 L04 d          37.864  31.649  29.907  0.00  0.00     0.116 A 
ATOM     94  H44 L04 d          37.206  29.846  28.957  0.00  0.00     0.088 H 
ATOM     95  C17 L04 d          37.914  33.033  29.811  0.00  0.00    -0.045 A 
ATOM     96  F1  L04 d          38.412  31.008  30.960  0.00  0.00    -0.206 F 
ATOM     97  C6  L04 d          37.326  33.685  28.733  0.00  0.00    -0.069 A 
ATOM     98  H17 L04 d          38.415  33.609  30.582  0.00  0.00     0.088 H 
ATOM     99  H7  L04 d          37.361  34.767  28.677  0.00  0.00     0.085 H 
ENDBRANCH  83  89
ENDBRANCH  76  79
ENDBRANCH  73  76
ENDBRANCH   1  73
TORSDOF 20
ENDMDL
MODEL 3
REMARK VINA RESULT:     -11.0      3.614     10.985
REMARK  20 active torsions:
REMARK  status: ('A' for Active; 'I' for Inactive)
REMARK    1  A    between atoms: C1_1  and  C23_23 
REMARK    2  A    between atoms: C1_1  and  C2_2 
REMARK    3  A    between atoms: C2_2  and  C18_18 
REMARK    4  A    between atoms: C2_2  and  C3_3 
REMARK    5  A    between atoms: C21_21  and  C4_4 
REMARK    6  A    between atoms: C13_13  and  C5_5 
REMARK    7  A    between atoms: C18_18  and  C7_7 
REMARK    8  A    between atoms: C7_7  and  C16_16 
REMARK    9  A    between atoms: C7_7  and  C8_8 
REMARK   10  A    between atoms: C8_8  and  C9_9 
REMARK   11  A    between atoms: C9_9  and  C10_10 
REMARK       I    between atoms: C16_16  and  N18_45 
REMARK   12  A    between atoms: N18_45  and  C19_19 
REMARK   13  A    between atoms: C19_19  and  C27_27 
REMARK   14  A    between atoms: C19_19  and  C20_20 
REMARK   15  A    between atoms: C20_20  and  C21_21 
REMARK   16  A    between atoms: C21_21  and  C22_22 
REMARK   17  A    between atoms: C23_23  and  C24_24 
REMARK   18  A    between atoms: C24_24  and  C25_25 
REMARK   19  A    between atoms: C25_25  and  N1_44 
REMARK       I    between atoms: C27_27  and  N29_46 
REMARK   20  A    between atoms: N29_46  and  C30_30 
ROOT
ATOM      1  C7  L04 d          37.175  38.786  22.322  0.00  0.00     0.025 C 
ATOM      2  H8  L04 d          36.579  39.019  21.428  0.00  0.00     0.054 H 
ENDROOT
BRANCH   1   3
ATOM      3  C18 L04 d          36.899  37.339  22.729  0.00  0.00    -0.041 C 
ATOM      4  H18 L04 d          36.946  36.722  21.820  0.00  0.00     0.035 H 
ATOM      5  H19 L04 d          37.694  37.030  23.424  0.00  0.00     0.035 H 
BRANCH   3   6
ATOM      6  C2  L04 d          35.556  37.067  23.408  0.00  0.00     0.031 C 
ATOM      7  H3  L04 d          35.204  38.022  23.826  0.00  0.00     0.056 H 
BRANCH   6   8
ATOM      8  C1  L04 d          35.655  36.080  24.579  0.00  0.00    -0.052 C 
ATOM      9  H1  L04 d          35.975  36.636  25.472  0.00  0.00     0.034 H 
ATOM     10  H2  L04 d          34.658  35.649  24.753  0.00  0.00     0.034 H 
BRANCH   8  11
ATOM     11  C23 L04 d          36.634  34.939  24.354  0.00  0.00    -0.063 C 
ATOM     12  H27 L04 d          37.529  35.107  24.971  0.00  0.00     0.033 H 
ATOM     13  H28 L04 d          36.920  34.916  23.292  0.00  0.00     0.033 H 
BRANCH  11  14
ATOM     14  C24 L04 d          36.016  33.599  24.730  0.00  0.00    -0.050 C 
ATOM     15  H29 L04 d          36.810  32.839  24.773  0.00  0.00     0.035 H 
ATOM     16  H30 L04 d          35.280  33.319  23.962  0.00  0.00     0.035 H 
BRANCH  14  17
ATOM     17  C25 L04 d          35.319  33.659  26.081  0.00  0.00    -0.002 C 
ATOM     18  H31 L04 d          34.356  33.132  26.002  0.00  0.00     0.064 H 
ATOM     19  H32 L04 d          35.139  34.714  26.336  0.00  0.00     0.064 H 
BRANCH  17  20
ATOM     20  N1  L04 d          36.095  33.048  27.159  0.00  0.00    -0.344 N 
ATOM     21  C28 L04 d          36.151  31.633  27.547  0.00  0.00     0.023 A 
ATOM     22  C36 L04 d          37.186  31.648  28.670  0.00  0.00    -0.025 A 
ATOM     23  H33 L04 d          36.481  31.002  26.709  0.00  0.00     0.071 H 
ATOM     24  H34 L04 d          35.175  31.280  27.910  0.00  0.00     0.071 H 
ATOM     25  C29 L04 d          37.601  32.986  28.895  0.00  0.00     0.040 A 
ATOM     26  C38 L04 d          37.754  30.611  29.421  0.00  0.00    -0.074 A 
ATOM     27  C26 L04 d          36.872  33.834  27.943  0.00  0.00     0.254 A 
ATOM     28  C37 L04 d          38.575  33.260  29.866  0.00  0.00    -0.067 A 
ATOM     29  O1  L04 d          36.980  35.059  27.844  0.00  0.00    -0.267 OA
ATOM     30  C40 L04 d          39.124  32.216  30.595  0.00  0.00    -0.082 A 
ATOM     31  H40 L04 d          38.896  34.279  30.045  0.00  0.00     0.085 H 
ATOM     32  C39 L04 d          38.719  30.910  30.378  0.00  0.00    -0.082 A 
ATOM     33  H43 L04 d          39.880  32.425  31.343  0.00  0.00     0.083 H 
ATOM     34  H42 L04 d          39.161  30.109  30.960  0.00  0.00     0.083 H 
ATOM     35  H41 L04 d          37.444  29.586  29.259  0.00  0.00     0.084 H 
ENDBRANCH  17  20
ENDBRANCH  14  17
ENDBRANCH  11  14
ENDBRANCH   8  11
ENDBRANCH   6   8
BRANCH   6  36
ATOM     36  C3  L04 d          34.526  36.617  22.365  0.00  0.00     0.177 C 
ATOM     37  O5  L04 d          34.326  35.413  22.059  0.00  0.00    -0.648 OA
ATOM     38  O4  L04 d          33.899  37.501  21.775  0.00  0.00    -0.648 OA
ENDBRANCH   6  36
ENDBRANCH   3   6
ENDBRANCH   1   3
BRANCH   1  39
ATOM     39  C16 L04 d          38.651  38.979  22.001  0.00  0.00     0.222 C 
ATOM     40  O17 L04 d          39.033  39.934  21.320  0.00  0.00    -0.273 OA
ATOM     41  N18 L04 d          39.476  38.063  22.497  0.00  0.00    -0.347 N 
ATOM     42  H46 L04 d          39.108  37.325  23.062  0.00  0.00     0.163 HD
BRANCH  41  43
ATOM     43  C19 L04 d          40.907  38.115  22.231  0.00  0.00     0.090 C 
ATOM     44  H20 L04 d          41.129  38.962  21.566  0.00  0.00     0.087 H 
BRANCH  43  45
ATOM     45  C27 L04 d          41.292  36.806  21.550  0.00  0.00     0.245 C 
ATOM     46  O28 L04 d          41.088  36.651  20.344  0.00  0.00    -0.271 OA
ATOM     47  N29 L04 d          41.911  35.910  22.319  0.00  0.00    -0.325 N 
ATOM     48  H47 L04 d          42.070  36.186  23.267  0.00  0.00     0.169 HD
BRANCH  47  49
ATOM     49  C30 L04 d          42.361  34.649  21.978  0.00  0.00     0.034 A 
ATOM     50  C35 L04 d          43.699  34.261  22.041  0.00  0.00    -0.057 A 
ATOM     51  C34 L04 d          44.088  32.976  21.673  0.00  0.00    -0.081 A 
ATOM     52  H39 L04 d          44.446  34.969  22.382  0.00  0.00     0.086 H 
ATOM     53  C33 L04 d          43.132  32.059  21.236  0.00  0.00    -0.083 A 
ATOM     54  H38 L04 d          45.132  32.688  21.726  0.00  0.00     0.083 H 
ATOM     55  C32 L04 d          41.795  32.435  21.168  0.00  0.00    -0.081 A 
ATOM     56  H37 L04 d          43.431  31.057  20.950  0.00  0.00     0.083 H 
ATOM     57  C31 L04 d          41.417  33.722  21.539  0.00  0.00    -0.057 A 
ATOM     58  H36 L04 d          41.049  31.728  20.826  0.00  0.00     0.083 H 
ATOM     59  H35 L04 d          40.373  34.008  21.485  0.00  0.00     0.086 H 
ENDBRANCH  47  49
ENDBRANCH  43  45
BRANCH  43  60
ATOM     60  C20 L04 d          41.698  38.275  23.531  0.00  0.00    -0.035 C 
ATOM     61  H21 L04 d          42.204  37.318  23.724  0.00  0.00     0.037 H 
ATOM     62  H22 L04 d          40.971  38.475  24.332  0.00  0.00     0.037 H 
BRANCH  60  63
ATOM     63  C21 L04 d          42.764  39.372  23.602  0.00  0.00    -0.059 C 
ATOM     64  H23 L04 d          42.635  39.939  24.536  0.00  0.00     0.038 H 
BRANCH  63  65
ATOM     65  C4  L04 d          44.131  38.709  23.606  0.00  0.00    -0.073 C 
ATOM     66  H4  L04 d          44.236  38.089  24.508  0.00  0.00     0.028 H 
ATOM     67  H5  L04 d          44.913  39.482  23.599  0.00  0.00     0.028 H 
ATOM     68  H6  L04 d          44.233  38.076  22.712  0.00  0.00     0.028 H 
ENDBRANCH  63  65
BRANCH  63  69
ATOM     69  C22 L04 d          42.634  40.337  22.424  0.00  0.00    -0.073 C 
ATOM     70  H24 L04 d          42.950  39.831  21.499  0.00  0.00     0.028 H 
ATOM     71  H25 L04 d          43.272  41.216  22.597  0.00  0.00     0.028 H 
ATOM     72  H26 L04 d          41.586  40.657  22.327  0.00  0.00     0.028 H 
ENDBRANCH  63  69
ENDBRANCH  60  63
ENDBRANCH  43  60
ENDBRANCH  41  43
ENDBRANCH   1  39
BRANCH   1  73
ATOM     73  C8  L04 d          36.794  39.757  23.443  0.00  0.00    -0.050 C 
ATOM     74  H9  L04 d          37.717  40.097  23.936  0.00  0.00     0.034 H 
ATOM     75  H10 L04 d          36.169  39.217  24.170  0.00  0.00     0.034 H 
BRANCH  73  76
ATOM     76  C9  L04 d          36.034  40.968  22.973  0.00  0.00    -0.040 C 
ATOM     77  H11 L04 d          36.433  41.262  21.992  0.00  0.00     0.040 H 
ATOM     78  H12 L04 d          36.204  41.780  23.695  0.00  0.00     0.040 H 
BRANCH  76  79
ATOM     79  C10 L04 d          34.556  40.769  22.835  0.00  0.00    -0.058 A 
ATOM     80  C15 L04 d          33.922  41.008  21.621  0.00  0.00    -0.076 A 
ATOM     81  C14 L04 d          32.559  40.793  21.477  0.00  0.00    -0.072 A 
ATOM     82  H16 L04 d          34.499  41.367  20.777  0.00  0.00     0.084 H 
ATOM     83  C13 L04 d          31.804  40.336  22.551  0.00  0.00    -0.026 A 
ATOM     84  H15 L04 d          32.080  40.981  20.523  0.00  0.00     0.084 H 
ATOM     85  C12 L04 d          32.441  40.101  23.765  0.00  0.00    -0.072 A 
ATOM     86  C11 L04 d          33.799  40.316  23.906  0.00  0.00    -0.076 A 
ATOM     87  H14 L04 d          31.865  39.746  24.612  0.00  0.00     0.084 H 
ATOM     88  H13 L04 d          34.277  40.128  24.861  0.00  0.00     0.084 H 
BRANCH  83  89
ATOM     89  C5  L04 d          30.358  40.101  22.415  0.00  0.00    -0.026 A 
ATOM     90  C43 L04 d          29.570  39.888  23.541  0.00  0.00    -0.069 A 
ATOM     91  C42 L04 d          28.207  39.657  23.416  0.00  0.00    -0.045 A 
ATOM     92  H45 L04 d          30.024  39.903  24.526  0.00  0.00     0.085 H 
ATOM     93  C41 L04 d          27.605  39.632  22.166  0.00  0.00     0.116 A 
ATOM     94  H44 L04 d          27.607  39.494  24.304  0.00  0.00     0.088 H 
ATOM     95  C17 L04 d          28.383  39.860  21.040  0.00  0.00    -0.045 A 
ATOM     96  F1  L04 d          26.282  39.390  22.057  0.00  0.00    -0.206 F 
ATOM     97  C6  L04 d          29.750  40.084  21.164  0.00  0.00    -0.069 A 
ATOM     98  H17 L04 d          27.923  39.861  20.058  0.00  0.00     0.088 H 
ATOM     99  H7  L04 d          30.349  40.248  20.275  0.00  0.00     0.085 H 
ENDBRANCH  83  89
ENDBRANCH  76  79
ENDBRANCH  73  76
ENDBRANCH   1  73
TORSDOF 20
ENDMDL
MODEL 4
REMARK VINA RESULT:     -10.7      1.910     10.360
REMARK  20 active torsions:
REMARK  status: ('A' for Active; 'I' for Inactive)
REMARK    1  A    between atoms: C1_1  and  C23_23 
REMARK    2  A    between atoms: C1_1  and  C2_2 
REMARK    3  A    between atoms: C2_2  and  C18_18 
REMARK    4  A    between atoms: C2_2  and  C3_3 
REMARK    5  A    between atoms: C21_21  and  C4_4 
REMARK    6  A    between atoms: C13_13  and  C5_5 
REMARK    7  A    between atoms: C18_18  and  C7_7 
REMARK    8  A    between atoms: C7_7  and  C16_16 
REMARK    9  A    between atoms: C7_7  and  C8_8 
REMARK   10  A    between atoms: C8_8  and  C9_9 
REMARK   11  A    between atoms: C9_9  and  C10_10 
REMARK       I    between atoms: C16_16  and  N18_45 
REMARK   12  A    between atoms: N18_45  and  C19_19 
REMARK   13  A    between atoms: C19_19  and  C27_27 
REMARK   14  A    between atoms: C19_19  and  C20_20 
REMARK   15  A    between atoms: C20_20  and  C21_21 
REMARK   16  A    between atoms: C21_21  and  C22_22 
REMARK   17  A    between atoms: C23_23  and  C24_24 
REMARK   18  A    between atoms: C24_24  and  C25_25 
REMARK   19  A    between atoms: C25_25  and  N1_44 
REMARK       I    between atoms: C27_27  and  N29_46 
REMARK   20  A    between atoms: N29_46  and  C30_30 
ROOT
ATOM      1  C7  L04 d          35.879  36.759  23.308  0.00  0.00     0.025 C 
ATOM      2  H8  L04 d          36.188  37.058  24.320  0.00  0.00     0.054 H 
ENDROOT
BRANCH   1   3
ATOM      3  C18 L04 d          34.772  37.701  22.837  0.00  0.00    -0.041 C 
ATOM      4  H18 L04 d          35.002  37.997  21.803  0.00  0.00     0.035 H 
ATOM      5  H19 L04 d          33.825  37.142  22.857  0.00  0.00     0.035 H 
BRANCH   3   6
ATOM      6  C2  L04 d          34.573  38.980  23.653  0.00  0.00     0.031 C 
ATOM      7  H3  L04 d          35.238  38.914  24.527  0.00  0.00     0.056 H 
BRANCH   6   8
ATOM      8  C1  L04 d          33.145  39.140  24.194  0.00  0.00    -0.052 C 
ATOM      9  H1  L04 d          33.108  40.056  24.802  0.00  0.00     0.034 H 
ATOM     10  H2  L04 d          32.461  39.240  23.338  0.00  0.00     0.034 H 
BRANCH   8  11
ATOM     11  C23 L04 d          32.667  37.980  25.052  0.00  0.00    -0.063 C 
ATOM     12  H27 L04 d          32.763  38.255  26.113  0.00  0.00     0.033 H 
ATOM     13  H28 L04 d          33.291  37.099  24.843  0.00  0.00     0.033 H 
BRANCH  11  14
ATOM     14  C24 L04 d          31.213  37.638  24.758  0.00  0.00    -0.050 C 
ATOM     15  H29 L04 d          30.891  36.835  25.437  0.00  0.00     0.035 H 
ATOM     16  H30 L04 d          31.132  37.294  23.716  0.00  0.00     0.035 H 
BRANCH  14  17
ATOM     17  C25 L04 d          30.301  38.841  24.951  0.00  0.00    -0.002 C 
ATOM     18  H31 L04 d          30.925  39.744  25.028  0.00  0.00     0.064 H 
ATOM     19  H32 L04 d          29.736  38.705  25.885  0.00  0.00     0.064 H 
BRANCH  17  20
ATOM     20  N1  L04 d          29.350  39.026  23.856  0.00  0.00    -0.344 N 
ATOM     21  C28 L04 d          29.611  39.539  22.505  0.00  0.00     0.023 A 
ATOM     22  C36 L04 d          28.240  39.408  21.843  0.00  0.00    -0.025 A 
ATOM     23  H33 L04 d          30.365  38.930  21.985  0.00  0.00     0.071 H 
ATOM     24  H34 L04 d          29.942  40.587  22.533  0.00  0.00     0.071 H 
ATOM     25  C29 L04 d          27.313  38.917  22.796  0.00  0.00     0.040 A 
ATOM     26  C38 L04 d          27.819  39.657  20.530  0.00  0.00    -0.074 A 
ATOM     27  C26 L04 d          28.045  38.716  24.053  0.00  0.00     0.254 A 
ATOM     28  C37 L04 d          25.982  38.684  22.419  0.00  0.00    -0.067 A 
ATOM     29  O1  L04 d          27.562  38.293  25.106  0.00  0.00    -0.267 OA
ATOM     30  C40 L04 d          25.590  38.935  21.113  0.00  0.00    -0.082 A 
ATOM     31  H40 L04 d          25.267  38.310  23.142  0.00  0.00     0.085 H 
ATOM     32  C39 L04 d          26.493  39.416  20.181  0.00  0.00    -0.082 A 
ATOM     33  H43 L04 d          24.562  38.752  20.819  0.00  0.00     0.083 H 
ATOM     34  H42 L04 d          26.164  39.608  19.166  0.00  0.00     0.083 H 
ATOM     35  H41 L04 d          28.518  40.034  19.793  0.00  0.00     0.084 H 
ENDBRANCH  17  20
ENDBRANCH  14  17
ENDBRANCH  11  14
ENDBRANCH   8  11
ENDBRANCH   6   8
BRANCH   6  36
ATOM     36  C3  L04 d          35.014  40.197  22.832  0.00  0.00     0.177 C 
ATOM     37  O5  L04 d          35.207  41.338  23.326  0.00  0.00    -0.648 OA
ATOM     38  O4  L04 d          35.143  40.037  21.615  0.00  0.00    -0.648 OA
ENDBRANCH   6  36
ENDBRANCH   3   6
ENDBRANCH   1   3
BRANCH   1  39
ATOM     39  C16 L04 d          37.079  36.837  22.376  0.00  0.00     0.222 C 
ATOM     40  O17 L04 d          37.290  35.958  21.537  0.00  0.00    -0.273 OA
ATOM     41  N18 L04 d          37.865  37.898  22.530  0.00  0.00    -0.347 N 
ATOM     42  H46 L04 d          37.627  38.589  23.213  0.00  0.00     0.163 HD
BRANCH  41  43
ATOM     43  C19 L04 d          39.065  38.071  21.724  0.00  0.00     0.090 C 
ATOM     44  H20 L04 d          38.790  38.133  20.661  0.00  0.00     0.087 H 
BRANCH  43  45
ATOM     45  C27 L04 d          39.953  36.855  21.960  0.00  0.00     0.245 C 
ATOM     46  O28 L04 d          40.313  36.561  23.103  0.00  0.00    -0.271 OA
ATOM     47  N29 L04 d          40.234  36.121  20.883  0.00  0.00    -0.325 N 
ATOM     48  H47 L04 d          39.829  36.437  20.024  0.00  0.00     0.169 HD
BRANCH  47  49
ATOM     49  C30 L04 d          41.013  34.984  20.796  0.00  0.00     0.034 A 
ATOM     50  C35 L04 d          41.108  34.032  21.811  0.00  0.00    -0.057 A 
ATOM     51  C34 L04 d          41.921  32.910  21.664  0.00  0.00    -0.081 A 
ATOM     52  H39 L04 d          40.543  34.167  22.726  0.00  0.00     0.086 H 
ATOM     53  C33 L04 d          42.649  32.730  20.489  0.00  0.00    -0.083 A 
ATOM     54  H38 L04 d          41.986  32.179  22.462  0.00  0.00     0.083 H 
ATOM     55  C32 L04 d          42.563  33.673  19.471  0.00  0.00    -0.081 A 
ATOM     56  H37 L04 d          43.282  31.857  20.370  0.00  0.00     0.083 H 
ATOM     57  C31 L04 d          41.748  34.790  19.628  0.00  0.00    -0.057 A 
ATOM     58  H36 L04 d          43.130  33.538  18.557  0.00  0.00     0.083 H 
ATOM     59  H35 L04 d          41.683  35.520  18.829  0.00  0.00     0.086 H 
ENDBRANCH  47  49
ENDBRANCH  43  45
BRANCH  43  60
ATOM     60  C20 L04 d          39.814  39.344  22.125  0.00  0.00    -0.035 C 
ATOM     61  H21 L04 d          40.779  39.033  22.551  0.00  0.00     0.037 H 
ATOM     62  H22 L04 d          39.214  39.845  22.899  0.00  0.00     0.037 H 
BRANCH  60  63
ATOM     63  C21 L04 d          40.112  40.384  21.041  0.00  0.00    -0.059 C 
ATOM     64  H23 L04 d          39.216  41.000  20.878  0.00  0.00     0.038 H 
BRANCH  63  65
ATOM     65  C4  L04 d          41.244  41.270  21.530  0.00  0.00    -0.073 C 
ATOM     66  H4  L04 d          40.830  42.208  21.930  0.00  0.00     0.028 H 
ATOM     67  H5  L04 d          41.922  41.496  20.694  0.00  0.00     0.028 H 
ATOM     68  H6  L04 d          41.802  40.749  22.323  0.00  0.00     0.028 H 
ENDBRANCH  63  65
BRANCH  63  69
ATOM     69  C22 L04 d          40.486  39.706  19.724  0.00  0.00    -0.073 C 
ATOM     70  H24 L04 d          39.639  39.101  19.369  0.00  0.00     0.028 H 
ATOM     71  H25 L04 d          41.361  39.058  19.880  0.00  0.00     0.028 H 
ATOM     72  H26 L04 d          40.728  40.473  18.973  0.00  0.00     0.028 H 
ENDBRANCH  63  69
ENDBRANCH  60  63
ENDBRANCH  43  60
ENDBRANCH  41  43
ENDBRANCH   1  39
BRANCH   1  73
ATOM     73  C8  L04 d          35.389  35.308  23.344  0.00  0.00    -0.050 C 
ATOM     74  H9  L04 d          36.267  34.646  23.315  0.00  0.00     0.034 H 
ATOM     75  H10 L04 d          34.767  35.131  22.455  0.00  0.00     0.034 H 
BRANCH  73  76
ATOM     76  C9  L04 d          34.579  34.966  24.565  0.00  0.00    -0.040 C 
ATOM     77  H11 L04 d          33.758  34.303  24.256  0.00  0.00     0.040 H 
ATOM     78  H12 L04 d          34.162  35.899  24.972  0.00  0.00     0.040 H 
BRANCH  76  79
ATOM     79  C10 L04 d          35.343  34.282  25.656  0.00  0.00    -0.058 A 
ATOM     80  C15 L04 d          35.484  32.899  25.660  0.00  0.00    -0.076 A 
ATOM     81  C14 L04 d          36.220  32.263  26.650  0.00  0.00    -0.072 A 
ATOM     82  H16 L04 d          35.013  32.311  24.882  0.00  0.00     0.084 H 
ATOM     83  C13 L04 d          36.827  33.002  27.657  0.00  0.00    -0.026 A 
ATOM     84  H15 L04 d          36.322  31.184  26.636  0.00  0.00     0.084 H 
ATOM     85  C12 L04 d          36.681  34.386  27.653  0.00  0.00    -0.072 A 
ATOM     86  C11 L04 d          35.948  35.018  26.666  0.00  0.00    -0.076 A 
ATOM     87  H14 L04 d          37.147  34.976  28.434  0.00  0.00     0.084 H 
ATOM     88  H13 L04 d          35.845  36.097  26.680  0.00  0.00     0.084 H 
BRANCH  83  89
ATOM     89  C5  L04 d          37.612  32.344  28.713  0.00  0.00    -0.026 A 
ATOM     90  C43 L04 d          38.659  33.015  29.335  0.00  0.00    -0.069 A 
ATOM     91  C42 L04 d          39.407  32.394  30.326  0.00  0.00    -0.045 A 
ATOM     92  H45 L04 d          38.892  34.034  29.045  0.00  0.00     0.085 H 
ATOM     93  C41 L04 d          39.127  31.091  30.712  0.00  0.00     0.116 A 
ATOM     94  H44 L04 d          40.219  32.931  30.801  0.00  0.00     0.088 H 
ATOM     95  C17 L04 d          38.073  30.421  30.106  0.00  0.00    -0.045 A 
ATOM     96  F1  L04 d          39.872  30.492  31.664  0.00  0.00    -0.206 F 
ATOM     97  C6  L04 d          37.327  31.041  29.109  0.00  0.00    -0.069 A 
ATOM     98  H17 L04 d          37.831  29.409  30.411  0.00  0.00     0.088 H 
ATOM     99  H7  L04 d          36.515  30.502  28.635  0.00  0.00     0.085 H 
ENDBRANCH  83  89
ENDBRANCH  76  79
ENDBRANCH  73  76
ENDBRANCH   1  73
TORSDOF 20
ENDMDL
MODEL 5
REMARK VINA RESULT:     -10.6      1.732     10.648
REMARK  20 active torsions:
REMARK  status: ('A' for Active; 'I' for Inactive)
REMARK    1  A    between atoms: C1_1  and  C23_23 
REMARK    2  A    between atoms: C1_1  and  C2_2 
REMARK    3  A    between atoms: C2_2  and  C18_18 
REMARK    4  A    between atoms: C2_2  and  C3_3 
REMARK    5  A    between atoms: C21_21  and  C4_4 
REMARK    6  A    between atoms: C13_13  and  C5_5 
REMARK    7  A    between atoms: C18_18  and  C7_7 
REMARK    8  A    between atoms: C7_7  and  C16_16 
REMARK    9  A    between atoms: C7_7  and  C8_8 
REMARK   10  A    between atoms: C8_8  and  C9_9 
REMARK   11  A    between atoms: C9_9  and  C10_10 
REMARK       I    between atoms: C16_16  and  N18_45 
REMARK   12  A    between atoms: N18_45  and  C19_19 
REMARK   13  A    between atoms: C19_19  and  C27_27 
REMARK   14  A    between atoms: C19_19  and  C20_20 
REMARK   15  A    between atoms: C20_20  and  C21_21 
REMARK   16  A    between atoms: C21_21  and  C22_22 
REMARK   17  A    between atoms: C23_23  and  C24_24 
REMARK   18  A    between atoms: C24_24  and  C25_25 
REMARK   19  A    between atoms: C25_25  and  N1_44 
REMARK       I    between atoms: C27_27  and  N29_46 
REMARK   20  A    between atoms: N29_46  and  C30_30 
ROOT
ATOM      1  C7  L04 d          35.484  38.001  22.824  0.00  0.00     0.025 C 
ATOM      2  H8  L04 d          35.684  37.631  23.840  0.00  0.00     0.054 H 
ENDROOT
BRANCH   1   3
ATOM      3  C18 L04 d          34.705  39.312  22.925  0.00  0.00    -0.041 C 
ATOM      4  H18 L04 d          35.415  40.135  22.766  0.00  0.00     0.035 H 
ATOM      5  H19 L04 d          33.951  39.316  22.124  0.00  0.00     0.035 H 
BRANCH   3   6
ATOM      6  C2  L04 d          33.979  39.572  24.247  0.00  0.00     0.031 C 
ATOM      7  H3  L04 d          34.061  38.655  24.848  0.00  0.00     0.056 H 
BRANCH   6   8
ATOM      8  C1  L04 d          32.480  39.855  24.072  0.00  0.00    -0.052 C 
ATOM      9  H1  L04 d          31.945  38.895  24.081  0.00  0.00     0.034 H 
ATOM     10  H2  L04 d          32.144  40.470  24.920  0.00  0.00     0.034 H 
BRANCH   8  11
ATOM     11  C23 L04 d          32.127  40.585  22.786  0.00  0.00    -0.063 C 
ATOM     12  H27 L04 d          32.049  39.853  21.969  0.00  0.00     0.033 H 
ATOM     13  H28 L04 d          32.922  41.308  22.555  0.00  0.00     0.033 H 
BRANCH  11  14
ATOM     14  C24 L04 d          30.804  41.326  22.918  0.00  0.00    -0.050 C 
ATOM     15  H29 L04 d          30.683  41.994  22.052  0.00  0.00     0.035 H 
ATOM     16  H30 L04 d          30.820  41.922  23.842  0.00  0.00     0.035 H 
BRANCH  14  17
ATOM     17  C25 L04 d          29.623  40.367  22.970  0.00  0.00    -0.002 C 
ATOM     18  H31 L04 d          29.983  39.357  22.726  0.00  0.00     0.064 H 
ATOM     19  H32 L04 d          28.883  40.683  22.220  0.00  0.00     0.064 H 
BRANCH  17  20
ATOM     20  N1  L04 d          28.972  40.326  24.278  0.00  0.00    -0.344 N 
ATOM     21  C28 L04 d          29.231  41.174  25.448  0.00  0.00     0.023 A 
ATOM     22  C36 L04 d          28.181  40.679  26.441  0.00  0.00    -0.025 A 
ATOM     23  H33 L04 d          29.085  42.238  25.210  0.00  0.00     0.071 H 
ATOM     24  H34 L04 d          30.249  41.021  25.835  0.00  0.00     0.071 H 
ATOM     25  C29 L04 d          27.460  39.608  25.854  0.00  0.00     0.040 A 
ATOM     26  C38 L04 d          27.842  41.120  27.727  0.00  0.00    -0.074 A 
ATOM     27  C26 L04 d          28.007  39.402  24.508  0.00  0.00     0.254 A 
ATOM     28  C37 L04 d          26.416  38.998  26.565  0.00  0.00    -0.067 A 
ATOM     29  O1  L04 d          27.623  38.553  23.699  0.00  0.00    -0.267 OA
ATOM     30  C40 L04 d          26.098  39.454  27.835  0.00  0.00    -0.082 A 
ATOM     31  H40 L04 d          25.862  38.177  26.124  0.00  0.00     0.085 H 
ATOM     32  C39 L04 d          26.801  40.499  28.410  0.00  0.00    -0.082 A 
ATOM     33  H43 L04 d          25.288  38.986  28.384  0.00  0.00     0.083 H 
ATOM     34  H42 L04 d          26.536  40.838  29.405  0.00  0.00     0.083 H 
ATOM     35  H41 L04 d          28.386  41.937  28.186  0.00  0.00     0.084 H 
ENDBRANCH  17  20
ENDBRANCH  14  17
ENDBRANCH  11  14
ENDBRANCH   8  11
ENDBRANCH   6   8
BRANCH   6  36
ATOM     36  C3  L04 d          34.688  40.692  25.018  0.00  0.00     0.177 C 
ATOM     37  O5  L04 d          35.939  40.803  25.091  0.00  0.00    -0.648 OA
ATOM     38  O4  L04 d          33.975  41.494  25.626  0.00  0.00    -0.648 OA
ENDBRANCH   6  36
ENDBRANCH   3   6
ENDBRANCH   1   3
BRANCH   1  39
ATOM     39  C16 L04 d          36.806  38.220  22.103  0.00  0.00     0.222 C 
ATOM     40  O17 L04 d          36.842  38.751  20.990  0.00  0.00    -0.273 OA
ATOM     41  N18 L04 d          37.893  37.805  22.746  0.00  0.00    -0.347 N 
ATOM     42  H46 L04 d          37.800  37.403  23.657  0.00  0.00     0.163 HD
BRANCH  41  43
ATOM     43  C19 L04 d          39.215  37.925  22.148  0.00  0.00     0.090 C 
ATOM     44  H20 L04 d          39.124  37.948  21.052  0.00  0.00     0.087 H 
BRANCH  43  45
ATOM     45  C27 L04 d          40.021  36.703  22.575  0.00  0.00     0.245 C 
ATOM     46  O28 L04 d          39.818  36.178  23.673  0.00  0.00    -0.271 OA
ATOM     47  N29 L04 d          40.875  36.224  21.671  0.00  0.00    -0.325 N 
ATOM     48  H47 L04 d          40.898  36.707  20.795  0.00  0.00     0.169 HD
BRANCH  47  49
ATOM     49  C30 L04 d          41.733  35.147  21.784  0.00  0.00     0.034 A 
ATOM     50  C35 L04 d          42.917  35.174  22.519  0.00  0.00    -0.057 A 
ATOM     51  C34 L04 d          43.743  34.055  22.585  0.00  0.00    -0.081 A 
ATOM     52  H39 L04 d          43.199  36.078  23.046  0.00  0.00     0.086 H 
ATOM     53  C33 L04 d          43.386  32.887  21.911  0.00  0.00    -0.083 A 
ATOM     54  H38 L04 d          44.662  34.091  23.159  0.00  0.00     0.083 H 
ATOM     55  C32 L04 d          42.207  32.849  21.174  0.00  0.00    -0.081 A 
ATOM     56  H37 L04 d          44.025  32.013  21.961  0.00  0.00     0.083 H 
ATOM     57  C31 L04 d          41.389  33.973  21.116  0.00  0.00    -0.057 A 
ATOM     58  H36 L04 d          41.926  31.945  20.647  0.00  0.00     0.083 H 
ATOM     59  H35 L04 d          40.470  33.935  20.541  0.00  0.00     0.086 H 
ENDBRANCH  47  49
ENDBRANCH  43  45
BRANCH  43  60
ATOM     60  C20 L04 d          39.915  39.199  22.622  0.00  0.00    -0.035 C 
ATOM     61  H21 L04 d          40.945  38.923  22.891  0.00  0.00     0.037 H 
ATOM     62  H22 L04 d          39.382  39.550  23.518  0.00  0.00     0.037 H 
BRANCH  60  63
ATOM     63  C21 L04 d          40.003  40.384  21.655  0.00  0.00    -0.059 C 
ATOM     64  H23 L04 d          40.946  40.922  21.830  0.00  0.00     0.038 H 
BRANCH  63  65
ATOM     65  C4  L04 d          39.994  39.842  20.236  0.00  0.00    -0.073 C 
ATOM     66  H4  L04 d          40.020  38.743  20.263  0.00  0.00     0.028 H 
ATOM     67  H5  L04 d          40.875  40.217  19.695  0.00  0.00     0.028 H 
ATOM     68  H6  L04 d          39.080  40.175  19.722  0.00  0.00     0.028 H 
ENDBRANCH  63  65
BRANCH  63  69
ATOM     69  C22 L04 d          38.840  41.351  21.872  0.00  0.00    -0.073 C 
ATOM     70  H24 L04 d          38.986  41.894  22.818  0.00  0.00     0.028 H 
ATOM     71  H25 L04 d          37.897  40.788  21.915  0.00  0.00     0.028 H 
ATOM     72  H26 L04 d          38.801  42.070  21.040  0.00  0.00     0.028 H 
ENDBRANCH  63  69
ENDBRANCH  60  63
ENDBRANCH  43  60
ENDBRANCH  41  43
ENDBRANCH   1  39
BRANCH   1  73
ATOM     73  C8  L04 d          34.685  36.943  22.057  0.00  0.00    -0.050 C 
ATOM     74  H9  L04 d          35.395  36.243  21.591  0.00  0.00     0.034 H 
ATOM     75  H10 L04 d          34.102  37.450  21.274  0.00  0.00     0.034 H 
BRANCH  73  76
ATOM     76  C9  L04 d          33.736  36.151  22.916  0.00  0.00    -0.040 C 
ATOM     77  H11 L04 d          33.217  35.425  22.272  0.00  0.00     0.040 H 
ATOM     78  H12 L04 d          33.002  36.847  23.347  0.00  0.00     0.040 H 
BRANCH  76  79
ATOM     79  C10 L04 d          34.381  35.399  24.039  0.00  0.00    -0.058 A 
ATOM     80  C15 L04 d          34.861  34.110  23.842  0.00  0.00    -0.076 A 
ATOM     81  C14 L04 d          35.491  33.421  24.869  0.00  0.00    -0.072 A 
ATOM     82  H16 L04 d          34.743  33.636  22.874  0.00  0.00     0.084 H 
ATOM     83  C13 L04 d          35.648  34.013  26.116  0.00  0.00    -0.026 A 
ATOM     84  H15 L04 d          35.863  32.418  24.697  0.00  0.00     0.084 H 
ATOM     85  C12 L04 d          35.163  35.302  26.312  0.00  0.00    -0.072 A 
ATOM     86  C11 L04 d          34.537  35.986  25.286  0.00  0.00    -0.076 A 
ATOM     87  H14 L04 d          35.277  35.776  27.280  0.00  0.00     0.084 H 
ATOM     88  H13 L04 d          34.164  36.990  25.459  0.00  0.00     0.084 H 
BRANCH  83  89
ATOM     89  C5  L04 d          36.315  33.298  27.216  0.00  0.00    -0.026 A 
ATOM     90  C43 L04 d          37.041  33.998  28.173  0.00  0.00    -0.069 A 
ATOM     91  C42 L04 d          37.679  33.325  29.207  0.00  0.00    -0.045 A 
ATOM     92  H45 L04 d          37.110  35.078  28.112  0.00  0.00     0.085 H 
ATOM     93  C41 L04 d          37.605  31.943  29.304  0.00  0.00     0.116 A 
ATOM     94  H44 L04 d          38.240  33.886  29.945  0.00  0.00     0.088 H 
ATOM     95  C17 L04 d          36.868  31.241  28.361  0.00  0.00    -0.045 A 
ATOM     96  F1  L04 d          38.242  31.300  30.304  0.00  0.00    -0.206 F 
ATOM     97  C6  L04 d          36.235  31.913  27.321  0.00  0.00    -0.069 A 
ATOM     98  H17 L04 d          36.786  30.162  28.435  0.00  0.00     0.088 H 
ATOM     99  H7  L04 d          35.672  31.351  26.584  0.00  0.00     0.085 H 
ENDBRANCH  83  89
ENDBRANCH  76  79
ENDBRANCH  73  76
ENDBRANCH   1  73
TORSDOF 20
ENDMDL
MODEL 6
REMARK VINA RESULT:     -10.6      3.740      7.011
REMARK  20 active torsions:
REMARK  status: ('A' for Active; 'I' for Inactive)
REMARK    1  A    between atoms: C1_1  and  C23_23 
REMARK    2  A    between atoms: C1_1  and  C2_2 
REMARK    3  A    between atoms: C2_2  and  C18_18 
REMARK    4  A    between atoms: C2_2  and  C3_3 
REMARK    5  A    between atoms: C21_21  and  C4_4 
REMARK    6  A    between atoms: C13_13  and  C5_5 
REMARK    7  A    between atoms: C18_18  and  C7_7 
REMARK    8  A    between atoms: C7_7  and  C16_16 
REMARK    9  A    between atoms: C7_7  and  C8_8 
REMARK   10  A    between atoms: C8_8  and  C9_9 
REMARK   11  A    between atoms: C9_9  and  C10_10 
REMARK       I    between atoms: C16_16  and  N18_45 
REMARK   12  A    between atoms: N18_45  and  C19_19 
REMARK   13  A    between atoms: C19_19  and  C27_27 
REMARK   14  A    between atoms: C19_19  and  C20_20 
REMARK   15  A    between atoms: C20_20  and  C21_21 
REMARK   16  A    between atoms: C21_21  and  C22_22 
REMARK   17  A    between atoms: C23_23  and  C24_24 
REMARK   18  A    between atoms: C24_24  and  C25_25 
REMARK   19  A    between atoms: C25_25  and  N1_44 
REMARK       I    between atoms: C27_27  and  N29_46 
REMARK   20  A    between atoms: N29_46  and  C30_30 
ROOT
ATOM      1  C7  L04 d          33.089  39.839  24.025  0.00  0.00     0.025 C 
ATOM      2  H8  L04 d          33.148  39.634  25.104  0.00  0.00     0.054 H 
ENDROOT
BRANCH   1   3
ATOM      3  C18 L04 d          33.319  38.533  23.267  0.00  0.00    -0.041 C 
ATOM      4  H18 L04 d          32.432  38.346  22.646  0.00  0.00     0.035 H 
ATOM      5  H19 L04 d          34.197  38.672  22.620  0.00  0.00     0.035 H 
BRANCH   3   6
ATOM      6  C2  L04 d          33.562  37.285  24.118  0.00  0.00     0.031 C 
ATOM      7  H3  L04 d          34.047  37.616  25.048  0.00  0.00     0.056 H 
BRANCH   6   8
ATOM      8  C1  L04 d          34.512  36.275  23.459  0.00  0.00    -0.052 C 
ATOM      9  H1  L04 d          34.756  36.639  22.450  0.00  0.00     0.034 H 
ATOM     10  H2  L04 d          35.431  36.221  24.061  0.00  0.00     0.034 H 
BRANCH   8  11
ATOM     11  C23 L04 d          33.943  34.871  23.332  0.00  0.00    -0.063 C 
ATOM     12  H27 L04 d          33.967  34.568  22.275  0.00  0.00     0.033 H 
ATOM     13  H28 L04 d          32.903  34.873  23.690  0.00  0.00     0.033 H 
BRANCH  11  14
ATOM     14  C24 L04 d          34.748  33.873  24.154  0.00  0.00    -0.050 C 
ATOM     15  H29 L04 d          35.304  33.215  23.469  0.00  0.00     0.035 H 
ATOM     16  H30 L04 d          34.056  33.272  24.761  0.00  0.00     0.035 H 
BRANCH  14  17
ATOM     17  C25 L04 d          35.736  34.570  25.077  0.00  0.00    -0.002 C 
ATOM     18  H31 L04 d          35.274  35.497  25.448  0.00  0.00     0.064 H 
ATOM     19  H32 L04 d          36.640  34.817  24.501  0.00  0.00     0.064 H 
BRANCH  17  20
ATOM     20  N1  L04 d          36.126  33.754  26.226  0.00  0.00    -0.344 N 
ATOM     21  C28 L04 d          36.009  32.300  26.387  0.00  0.00     0.023 A 
ATOM     22  C36 L04 d          36.654  32.075  27.754  0.00  0.00    -0.025 A 
ATOM     23  H33 L04 d          36.556  31.765  25.596  0.00  0.00     0.071 H 
ATOM     24  H34 L04 d          34.957  31.981  26.386  0.00  0.00     0.071 H 
ATOM     25  C29 L04 d          37.030  33.330  28.297  0.00  0.00     0.040 A 
ATOM     26  C38 L04 d          36.928  30.901  28.467  0.00  0.00    -0.074 A 
ATOM     27  C26 L04 d          36.656  34.358  27.318  0.00  0.00     0.254 A 
ATOM     28  C37 L04 d          37.671  33.386  29.543  0.00  0.00    -0.067 A 
ATOM     29  O1  L04 d          36.833  35.572  27.448  0.00  0.00    -0.267 OA
ATOM     30  C40 L04 d          37.935  32.210  30.229  0.00  0.00    -0.082 A 
ATOM     31  H40 L04 d          37.960  34.342  29.966  0.00  0.00     0.085 H 
ATOM     32  C39 L04 d          37.568  30.985  29.700  0.00  0.00    -0.082 A 
ATOM     33  H43 L04 d          38.434  32.252  31.190  0.00  0.00     0.083 H 
ATOM     34  H42 L04 d          37.781  30.078  30.255  0.00  0.00     0.083 H 
ATOM     35  H41 L04 d          36.645  29.937  28.062  0.00  0.00     0.084 H 
ENDBRANCH  17  20
ENDBRANCH  14  17
ENDBRANCH  11  14
ENDBRANCH   8  11
ENDBRANCH   6   8
BRANCH   6  36
ATOM     36  C3  L04 d          32.222  36.646  24.501  0.00  0.00     0.177 C 
ATOM     37  O5  L04 d          31.198  36.687  23.771  0.00  0.00    -0.648 OA
ATOM     38  O4  L04 d          32.154  36.102  25.606  0.00  0.00    -0.648 OA
ENDBRANCH   6  36
ENDBRANCH   3   6
ENDBRANCH   1   3
BRANCH   1  39
ATOM     39  C16 L04 d          31.716  40.410  23.701  0.00  0.00     0.222 C 
ATOM     40  O17 L04 d          31.389  41.535  24.089  0.00  0.00    -0.273 OA
ATOM     41  N18 L04 d          30.915  39.626  22.987  0.00  0.00    -0.347 N 
ATOM     42  H46 L04 d          31.248  38.733  22.682  0.00  0.00     0.163 HD
BRANCH  41  43
ATOM     43  C19 L04 d          29.564  40.042  22.642  0.00  0.00     0.090 C 
ATOM     44  H20 L04 d          29.522  41.139  22.569  0.00  0.00     0.087 H 
BRANCH  43  45
ATOM     45  C27 L04 d          28.640  39.560  23.755  0.00  0.00     0.245 C 
ATOM     46  O28 L04 d          28.106  38.451  23.682  0.00  0.00    -0.271 OA
ATOM     47  N29 L04 d          28.521  40.373  24.805  0.00  0.00    -0.325 N 
ATOM     48  H47 L04 d          29.056  41.217  24.765  0.00  0.00     0.169 HD
BRANCH  47  49
ATOM     49  C30 L04 d          27.754  40.202  25.942  0.00  0.00     0.034 A 
ATOM     50  C35 L04 d          27.759  41.087  27.019  0.00  0.00    -0.057 A 
ATOM     51  C34 L04 d          26.968  40.851  28.141  0.00  0.00    -0.081 A 
ATOM     52  H39 L04 d          28.386  41.970  26.983  0.00  0.00     0.086 H 
ATOM     53  C33 L04 d          26.158  39.717  28.193  0.00  0.00    -0.083 A 
ATOM     54  H38 L04 d          26.983  41.546  28.972  0.00  0.00     0.083 H 
ATOM     55  C32 L04 d          26.146  38.827  27.125  0.00  0.00    -0.081 A 
ATOM     56  H37 L04 d          25.540  39.530  29.064  0.00  0.00     0.083 H 
ATOM     57  C31 L04 d          26.940  39.073  26.008  0.00  0.00    -0.057 A 
ATOM     58  H36 L04 d          25.520  37.943  27.162  0.00  0.00     0.083 H 
ATOM     59  H35 L04 d          26.924  38.376  25.178  0.00  0.00     0.086 H 
ENDBRANCH  47  49
ENDBRANCH  43  45
BRANCH  43  60
ATOM     60  C20 L04 d          29.129  39.434  21.307  0.00  0.00    -0.035 C 
ATOM     61  H21 L04 d          28.744  38.425  21.520  0.00  0.00     0.037 H 
ATOM     62  H22 L04 d          30.026  39.359  20.675  0.00  0.00     0.037 H 
BRANCH  60  63
ATOM     63  C21 L04 d          28.059  40.163  20.489  0.00  0.00    -0.059 C 
ATOM     64  H23 L04 d          27.772  41.086  21.014  0.00  0.00     0.038 H 
BRANCH  63  65
ATOM     65  C4  L04 d          28.654  40.521  19.139  0.00  0.00    -0.073 C 
ATOM     66  H4  L04 d          27.862  40.908  18.480  0.00  0.00     0.028 H 
ATOM     67  H5  L04 d          29.103  39.625  18.686  0.00  0.00     0.028 H 
ATOM     68  H6  L04 d          29.428  41.292  19.272  0.00  0.00     0.028 H 
ENDBRANCH  63  65
BRANCH  63  69
ATOM     69  C22 L04 d          26.815  39.291  20.319  0.00  0.00    -0.073 C 
ATOM     70  H24 L04 d          27.100  38.332  19.860  0.00  0.00     0.028 H 
ATOM     71  H25 L04 d          26.092  39.807  19.670  0.00  0.00     0.028 H 
ATOM     72  H26 L04 d          26.359  39.106  21.302  0.00  0.00     0.028 H 
ENDBRANCH  63  69
ENDBRANCH  60  63
ENDBRANCH  43  60
ENDBRANCH  41  43
ENDBRANCH   1  39
BRANCH   1  73
ATOM     73  C8  L04 d          34.147  40.884  23.657  0.00  0.00    -0.050 C 
ATOM     74  H9  L04 d          35.050  40.688  24.254  0.00  0.00     0.034 H 
ATOM     75  H10 L04 d          33.751  41.879  23.907  0.00  0.00     0.034 H 
BRANCH  73  76
ATOM     76  C9  L04 d          34.532  40.879  22.202  0.00  0.00    -0.040 C 
ATOM     77  H11 L04 d          34.255  41.853  21.772  0.00  0.00     0.040 H 
ATOM     78  H12 L04 d          33.964  40.083  21.700  0.00  0.00     0.040 H 
BRANCH  76  79
ATOM     79  C10 L04 d          35.988  40.650  21.938  0.00  0.00    -0.058 A 
ATOM     80  C15 L04 d          36.944  41.523  22.444  0.00  0.00    -0.076 A 
ATOM     81  C14 L04 d          38.296  41.297  22.232  0.00  0.00    -0.072 A 
ATOM     82  H16 L04 d          36.629  42.391  23.012  0.00  0.00     0.084 H 
ATOM     83  C13 L04 d          38.716  40.191  21.503  0.00  0.00    -0.026 A 
ATOM     84  H15 L04 d          39.028  41.986  22.636  0.00  0.00     0.084 H 
ATOM     85  C12 L04 d          37.757  39.321  20.994  0.00  0.00    -0.072 A 
ATOM     86  C11 L04 d          36.410  39.548  21.208  0.00  0.00    -0.076 A 
ATOM     87  H14 L04 d          38.070  38.454  20.422  0.00  0.00     0.084 H 
ATOM     88  H13 L04 d          35.678  38.858  20.802  0.00  0.00     0.084 H 
BRANCH  83  89
ATOM     89  C5  L04 d          40.147  39.935  21.270  0.00  0.00    -0.026 A 
ATOM     90  C43 L04 d          40.663  39.950  19.979  0.00  0.00    -0.069 A 
ATOM     91  C42 L04 d          42.011  39.700  19.755  0.00  0.00    -0.045 A 
ATOM     92  H45 L04 d          40.009  40.158  19.140  0.00  0.00     0.085 H 
ATOM     93  C41 L04 d          42.866  39.430  20.814  0.00  0.00     0.116 A 
ATOM     94  H44 L04 d          42.398  39.716  18.743  0.00  0.00     0.088 H 
ATOM     95  C17 L04 d          42.359  39.430  22.105  0.00  0.00    -0.045 A 
ATOM     96  F1  L04 d          44.170  39.173  20.582  0.00  0.00    -0.206 F 
ATOM     97  C6  L04 d          41.008  39.673  22.331  0.00  0.00    -0.069 A 
ATOM     98  H17 L04 d          43.020  39.239  22.944  0.00  0.00     0.088 H 
ATOM     99  H7  L04 d          40.622  39.658  23.343  0.00  0.00     0.085 H 
ENDBRANCH  83  89
ENDBRANCH  76  79
ENDBRANCH  73  76
ENDBRANCH   1  73
TORSDOF 20
ENDMDL
MODEL 7
REMARK VINA RESULT:     -10.2      2.674      4.898
REMARK  20 active torsions:
REMARK  status: ('A' for Active; 'I' for Inactive)
REMARK    1  A    between atoms: C1_1  and  C23_23 
REMARK    2  A    between atoms: C1_1  and  C2_2 
REMARK    3  A    between atoms: C2_2  and  C18_18 
REMARK    4  A    between atoms: C2_2  and  C3_3 
REMARK    5  A    between atoms: C21_21  and  C4_4 
REMARK    6  A    between atoms: C13_13  and  C5_5 
REMARK    7  A    between atoms: C18_18  and  C7_7 
REMARK    8  A    between atoms: C7_7  and  C16_16 
REMARK    9  A    between atoms: C7_7  and  C8_8 
REMARK   10  A    between atoms: C8_8  and  C9_9 
REMARK   11  A    between atoms: C9_9  and  C10_10 
REMARK       I    between atoms: C16_16  and  N18_45 
REMARK   12  A    between atoms: N18_45  and  C19_19 
REMARK   13  A    between atoms: C19_19  and  C27_27 
REMARK   14  A    between atoms: C19_19  and  C20_20 
REMARK   15  A    between atoms: C20_20  and  C21_21 
REMARK   16  A    between atoms: C21_21  and  C22_22 
REMARK   17  A    between atoms: C23_23  and  C24_24 
REMARK   18  A    between atoms: C24_24  and  C25_25 
REMARK   19  A    between atoms: C25_25  and  N1_44 
REMARK       I    between atoms: C27_27  and  N29_46 
REMARK   20  A    between atoms: N29_46  and  C30_30 
ROOT
ATOM      1  C7  L04 d          32.778  37.123  23.674  0.00  0.00     0.025 C 
ATOM      2  H8  L04 d          33.105  36.864  22.656  0.00  0.00     0.054 H 
ENDROOT
BRANCH   1   3
ATOM      3  C18 L04 d          33.610  38.307  24.167  0.00  0.00    -0.041 C 
ATOM      4  H18 L04 d          32.913  39.083  24.514  0.00  0.00     0.035 H 
ATOM      5  H19 L04 d          34.220  37.958  25.012  0.00  0.00     0.035 H 
BRANCH   3   6
ATOM      6  C2  L04 d          34.551  38.950  23.147  0.00  0.00     0.031 C 
ATOM      7  H3  L04 d          34.270  38.563  22.157  0.00  0.00     0.056 H 
BRANCH   6   8
ATOM      8  C1  L04 d          36.026  38.580  23.364  0.00  0.00    -0.052 C 
ATOM      9  H1  L04 d          36.645  39.431  23.044  0.00  0.00     0.034 H 
ATOM     10  H2  L04 d          36.181  38.398  24.438  0.00  0.00     0.034 H 
BRANCH   8  11
ATOM     11  C23 L04 d          36.481  37.347  22.602  0.00  0.00    -0.063 C 
ATOM     12  H27 L04 d          35.865  37.237  21.698  0.00  0.00     0.033 H 
ATOM     13  H28 L04 d          36.353  36.462  23.243  0.00  0.00     0.033 H 
BRANCH  11  14
ATOM     14  C24 L04 d          37.944  37.458  22.195  0.00  0.00    -0.050 C 
ATOM     15  H29 L04 d          38.044  38.250  21.438  0.00  0.00     0.035 H 
ATOM     16  H30 L04 d          38.268  36.498  21.767  0.00  0.00     0.035 H 
BRANCH  14  17
ATOM     17  C25 L04 d          38.835  37.795  23.382  0.00  0.00    -0.002 C 
ATOM     18  H31 L04 d          39.081  36.862  23.910  0.00  0.00     0.064 H 
ATOM     19  H32 L04 d          38.281  38.463  24.057  0.00  0.00     0.064 H 
BRANCH  17  20
ATOM     20  N1  L04 d          40.083  38.453  22.998  0.00  0.00    -0.344 N 
ATOM     21  C28 L04 d          40.259  39.642  22.154  0.00  0.00     0.023 A 
ATOM     22  C36 L04 d          41.771  39.852  22.208  0.00  0.00    -0.025 A 
ATOM     23  H33 L04 d          39.721  40.508  22.567  0.00  0.00     0.071 H 
ATOM     24  H34 L04 d          39.919  39.455  21.125  0.00  0.00     0.071 H 
ATOM     25  C29 L04 d          42.353  38.813  22.978  0.00  0.00     0.040 A 
ATOM     26  C38 L04 d          42.586  40.859  21.674  0.00  0.00    -0.074 A 
ATOM     27  C26 L04 d          41.261  37.942  23.431  0.00  0.00     0.254 A 
ATOM     28  C37 L04 d          43.738  38.800  23.198  0.00  0.00    -0.067 A 
ATOM     29  O1  L04 d          41.390  36.933  24.129  0.00  0.00    -0.267 OA
ATOM     30  C40 L04 d          44.523  39.809  22.661  0.00  0.00    -0.082 A 
ATOM     31  H40 L04 d          44.191  38.008  23.783  0.00  0.00     0.085 H 
ATOM     32  C39 L04 d          43.957  40.824  21.909  0.00  0.00    -0.082 A 
ATOM     33  H43 L04 d          45.594  39.803  22.833  0.00  0.00     0.083 H 
ATOM     34  H42 L04 d          44.590  41.601  21.497  0.00  0.00     0.083 H 
ATOM     35  H41 L04 d          42.152  41.657  21.084  0.00  0.00     0.084 H 
ENDBRANCH  17  20
ENDBRANCH  14  17
ENDBRANCH  11  14
ENDBRANCH   8  11
ENDBRANCH   6   8
BRANCH   6  36
ATOM     36  C3  L04 d          34.338  40.468  23.125  0.00  0.00     0.177 C 
ATOM     37  O5  L04 d          34.137  41.127  22.072  0.00  0.00    -0.648 OA
ATOM     38  O4  L04 d          34.411  41.062  24.204  0.00  0.00    -0.648 OA
ENDBRANCH   6  36
ENDBRANCH   3   6
ENDBRANCH   1   3
BRANCH   1  39
ATOM     39  C16 L04 d          31.300  37.484  23.646  0.00  0.00     0.222 C 
ATOM     40  O17 L04 d          30.444  36.687  24.041  0.00  0.00    -0.273 OA
ATOM     41  N18 L04 d          31.006  38.691  23.174  0.00  0.00    -0.347 N 
ATOM     42  H46 L04 d          31.747  39.300  22.890  0.00  0.00     0.163 HD
BRANCH  41  43
ATOM     43  C19 L04 d          29.627  39.142  23.062  0.00  0.00     0.090 C 
ATOM     44  H20 L04 d          28.952  38.375  23.471  0.00  0.00     0.087 H 
BRANCH  43  45
ATOM     45  C27 L04 d          29.334  39.351  21.580  0.00  0.00     0.245 C 
ATOM     46  O28 L04 d          28.170  39.465  21.187  0.00  0.00    -0.271 OA
ATOM     47  N29 L04 d          30.399  39.471  20.787  0.00  0.00    -0.325 N 
ATOM     48  H47 L04 d          31.288  39.421  21.243  0.00  0.00     0.169 HD
BRANCH  47  49
ATOM     49  C30 L04 d          30.436  39.657  19.419  0.00  0.00     0.034 A 
ATOM     50  C35 L04 d          30.032  38.692  18.496  0.00  0.00    -0.057 A 
ATOM     51  C34 L04 d          30.103  38.939  17.128  0.00  0.00    -0.081 A 
ATOM     52  H39 L04 d          29.657  37.739  18.849  0.00  0.00     0.086 H 
ATOM     53  C33 L04 d          30.582  40.166  16.667  0.00  0.00    -0.083 A 
ATOM     54  H38 L04 d          29.787  38.180  16.421  0.00  0.00     0.083 H 
ATOM     55  C32 L04 d          30.989  41.134  17.578  0.00  0.00    -0.081 A 
ATOM     56  H37 L04 d          30.638  40.363  15.603  0.00  0.00     0.083 H 
ATOM     57  C31 L04 d          30.913  40.877  18.944  0.00  0.00    -0.057 A 
ATOM     58  H36 L04 d          31.365  42.087  17.225  0.00  0.00     0.083 H 
ATOM     59  H35 L04 d          31.230  41.637  19.649  0.00  0.00     0.086 H 
ENDBRANCH  47  49
ENDBRANCH  43  45
BRANCH  43  60
ATOM     60  C20 L04 d          29.416  40.453  23.822  0.00  0.00    -0.035 C 
ATOM     61  H21 L04 d          28.335  40.659  23.821  0.00  0.00     0.037 H 
ATOM     62  H22 L04 d          29.941  41.241  23.262  0.00  0.00     0.037 H 
BRANCH  60  63
ATOM     63  C21 L04 d          29.891  40.536  25.275  0.00  0.00    -0.059 C 
ATOM     64  H23 L04 d          30.329  39.570  25.566  0.00  0.00     0.038 H 
BRANCH  63  65
ATOM     65  C4  L04 d          30.957  41.615  25.367  0.00  0.00    -0.073 C 
ATOM     66  H4  L04 d          31.270  41.909  24.354  0.00  0.00     0.028 H 
ATOM     67  H5  L04 d          31.824  41.227  25.921  0.00  0.00     0.028 H 
ATOM     68  H6  L04 d          30.547  42.491  25.892  0.00  0.00     0.028 H 
ENDBRANCH  63  65
BRANCH  63  69
ATOM     69  C22 L04 d          28.725  40.847  26.213  0.00  0.00    -0.073 C 
ATOM     70  H24 L04 d          28.106  39.946  26.340  0.00  0.00     0.028 H 
ATOM     71  H25 L04 d          28.114  41.654  25.783  0.00  0.00     0.028 H 
ATOM     72  H26 L04 d          29.116  41.164  27.191  0.00  0.00     0.028 H 
ENDBRANCH  63  69
ENDBRANCH  60  63
ENDBRANCH  43  60
ENDBRANCH  41  43
ENDBRANCH   1  39
BRANCH   1  73
ATOM     73  C8  L04 d          32.961  35.905  24.583  0.00  0.00    -0.050 C 
ATOM     74  H9  L04 d          32.026  35.325  24.577  0.00  0.00     0.034 H 
ATOM     75  H10 L04 d          33.165  36.262  25.603  0.00  0.00     0.034 H 
BRANCH  73  76
ATOM     76  C9  L04 d          34.085  34.994  24.167  0.00  0.00    -0.040 C 
ATOM     77  H11 L04 d          34.782  35.573  23.546  0.00  0.00     0.040 H 
ATOM     78  H12 L04 d          33.658  34.174  23.571  0.00  0.00     0.040 H 
BRANCH  76  79
ATOM     79  C10 L04 d          34.859  34.393  25.299  0.00  0.00    -0.058 A 
ATOM     80  C15 L04 d          34.850  33.018  25.510  0.00  0.00    -0.076 A 
ATOM     81  C14 L04 d          35.592  32.452  26.537  0.00  0.00    -0.072 A 
ATOM     82  H16 L04 d          34.256  32.382  24.865  0.00  0.00     0.084 H 
ATOM     83  C13 L04 d          36.357  33.255  27.375  0.00  0.00    -0.026 A 
ATOM     84  H15 L04 d          35.576  31.379  26.685  0.00  0.00     0.084 H 
ATOM     85  C12 L04 d          36.360  34.630  27.163  0.00  0.00    -0.072 A 
ATOM     86  C11 L04 d          35.621  35.192  26.139  0.00  0.00    -0.076 A 
ATOM     87  H14 L04 d          36.951  35.270  27.810  0.00  0.00     0.084 H 
ATOM     88  H13 L04 d          35.636  36.266  25.992  0.00  0.00     0.084 H 
BRANCH  83  89
ATOM     89  C5  L04 d          37.151  32.671  28.467  0.00  0.00    -0.026 A 
ATOM     90  C43 L04 d          37.162  31.296  28.673  0.00  0.00    -0.069 A 
ATOM     91  C42 L04 d          37.903  30.743  29.709  0.00  0.00    -0.045 A 
ATOM     92  H45 L04 d          36.585  30.650  28.021  0.00  0.00     0.085 H 
ATOM     93  C41 L04 d          38.647  31.551  30.557  0.00  0.00     0.116 A 
ATOM     94  H44 L04 d          37.901  29.670  29.856  0.00  0.00     0.088 H 
ATOM     95  C17 L04 d          38.653  32.923  30.345  0.00  0.00    -0.045 A 
ATOM     96  F1  L04 d          39.350  31.004  31.569  0.00  0.00    -0.206 F 
ATOM     97  C6  L04 d          37.905  33.479  29.313  0.00  0.00    -0.069 A 
ATOM     98  H17 L04 d          39.244  33.565  30.989  0.00  0.00     0.088 H 
ATOM     99  H7  L04 d          37.909  34.553  29.166  0.00  0.00     0.085 H 
ENDBRANCH  83  89
ENDBRANCH  76  79
ENDBRANCH  73  76
ENDBRANCH   1  73
TORSDOF 20
ENDMDL
MODEL 8
REMARK VINA RESULT:     -10.1      1.637      4.068
REMARK  20 active torsions:
REMARK  status: ('A' for Active; 'I' for Inactive)
REMARK    1  A    between atoms: C1_1  and  C23_23 
REMARK    2  A    between atoms: C1_1  and  C2_2 
REMARK    3  A    between atoms: C2_2  and  C18_18 
REMARK    4  A    between atoms: C2_2  and  C3_3 
REMARK    5  A    between atoms: C21_21  and  C4_4 
REMARK    6  A    between atoms: C13_13  and  C5_5 
REMARK    7  A    between atoms: C18_18  and  C7_7 
REMARK    8  A    between atoms: C7_7  and  C16_16 
REMARK    9  A    between atoms: C7_7  and  C8_8 
REMARK   10  A    between atoms: C8_8  and  C9_9 
REMARK   11  A    between atoms: C9_9  and  C10_10 
REMARK       I    between atoms: C16_16  and  N18_45 
REMARK   12  A    between atoms: N18_45  and  C19_19 
REMARK   13  A    between atoms: C19_19  and  C27_27 
REMARK   14  A    between atoms: C19_19  and  C20_20 
REMARK   15  A    between atoms: C20_20  and  C21_21 
REMARK   16  A    between atoms: C21_21  and  C22_22 
REMARK   17  A    between atoms: C23_23  and  C24_24 
REMARK   18  A    between atoms: C24_24  and  C25_25 
REMARK   19  A    between atoms: C25_25  and  N1_44 
REMARK       I    between atoms: C27_27  and  N29_46 
REMARK   20  A    between atoms: N29_46  and  C30_30 
ROOT
ATOM      1  C7  L04 d          32.817  37.082  23.799  0.00  0.00     0.025 C 
ATOM      2  H8  L04 d          32.886  36.747  22.754  0.00  0.00     0.054 H 
ENDROOT
BRANCH   1   3
ATOM      3  C18 L04 d          33.737  38.287  23.987  0.00  0.00    -0.041 C 
ATOM      4  H18 L04 d          33.251  38.971  24.698  0.00  0.00     0.035 H 
ATOM      5  H19 L04 d          34.682  37.923  24.416  0.00  0.00     0.035 H 
BRANCH   3   6
ATOM      6  C2  L04 d          34.075  39.089  22.728  0.00  0.00     0.031 C 
ATOM      7  H3  L04 d          33.402  38.741  21.932  0.00  0.00     0.056 H 
BRANCH   6   8
ATOM      8  C1  L04 d          35.509  38.858  22.228  0.00  0.00    -0.052 C 
ATOM      9  H1  L04 d          35.595  37.812  21.899  0.00  0.00     0.034 H 
ATOM     10  H2  L04 d          35.688  39.527  21.374  0.00  0.00     0.034 H 
BRANCH   8  11
ATOM     11  C23 L04 d          36.584  39.119  23.270  0.00  0.00    -0.063 C 
ATOM     12  H27 L04 d          36.333  38.571  24.190  0.00  0.00     0.033 H 
ATOM     13  H28 L04 d          36.622  40.197  23.484  0.00  0.00     0.033 H 
BRANCH  11  14
ATOM     14  C24 L04 d          37.951  38.662  22.778  0.00  0.00    -0.050 C 
ATOM     15  H29 L04 d          38.580  39.548  22.601  0.00  0.00     0.035 H 
ATOM     16  H30 L04 d          37.824  38.108  21.836  0.00  0.00     0.035 H 
BRANCH  14  17
ATOM     17  C25 L04 d          38.643  37.761  23.791  0.00  0.00    -0.002 C 
ATOM     18  H31 L04 d          37.881  37.134  24.278  0.00  0.00     0.064 H 
ATOM     19  H32 L04 d          39.134  38.394  24.544  0.00  0.00     0.064 H 
BRANCH  17  20
ATOM     20  N1  L04 d          39.649  36.887  23.191  0.00  0.00    -0.344 N 
ATOM     21  C28 L04 d          39.473  35.527  22.665  0.00  0.00     0.023 A 
ATOM     22  C36 L04 d          40.865  35.211  22.122  0.00  0.00    -0.025 A 
ATOM     23  H33 L04 d          38.718  35.503  21.866  0.00  0.00     0.071 H 
ATOM     24  H34 L04 d          39.187  34.825  23.461  0.00  0.00     0.071 H 
ATOM     25  C29 L04 d          41.727  36.304  22.396  0.00  0.00     0.040 A 
ATOM     26  C38 L04 d          41.357  34.099  21.425  0.00  0.00    -0.074 A 
ATOM     27  C26 L04 d          40.929  37.322  23.092  0.00  0.00     0.254 A 
ATOM     28  C37 L04 d          43.061  36.264  21.969  0.00  0.00    -0.067 A 
ATOM     29  O1  L04 d          41.346  38.415  23.485  0.00  0.00    -0.267 OA
ATOM     30  C40 L04 d          43.524  35.154  21.278  0.00  0.00    -0.082 A 
ATOM     31  H40 L04 d          43.726  37.094  22.176  0.00  0.00     0.085 H 
ATOM     32  C39 L04 d          42.685  34.086  21.011  0.00  0.00    -0.082 A 
ATOM     33  H43 L04 d          44.555  35.123  20.944  0.00  0.00     0.083 H 
ATOM     34  H42 L04 d          43.069  33.227  20.471  0.00  0.00     0.083 H 
ATOM     35  H41 L04 d          40.709  33.258  21.211  0.00  0.00     0.084 H 
ENDBRANCH  17  20
ENDBRANCH  14  17
ENDBRANCH  11  14
ENDBRANCH   8  11
ENDBRANCH   6   8
BRANCH   6  36
ATOM     36  C3  L04 d          33.782  40.575  22.962  0.00  0.00     0.177 C 
ATOM     37  O5  L04 d          33.991  41.162  24.055  0.00  0.00    -0.648 OA
ATOM     38  O4  L04 d          33.278  41.203  22.028  0.00  0.00    -0.648 OA
ENDBRANCH   6  36
ENDBRANCH   3   6
ENDBRANCH   1   3
BRANCH   1  39
ATOM     39  C16 L04 d          31.375  37.458  24.109  0.00  0.00     0.222 C 
ATOM     40  O17 L04 d          30.692  36.775  24.877  0.00  0.00    -0.273 OA
ATOM     41  N18 L04 d          30.917  38.549  23.504  0.00  0.00    -0.347 N 
ATOM     42  H46 L04 d          31.528  39.073  22.910  0.00  0.00     0.163 HD
BRANCH  41  43
ATOM     43  C19 L04 d          29.543  38.994  23.689  0.00  0.00     0.090 C 
ATOM     44  H20 L04 d          28.925  38.151  24.033  0.00  0.00     0.087 H 
BRANCH  43  45
ATOM     45  C27 L04 d          29.038  39.489  22.338  0.00  0.00     0.245 C 
ATOM     46  O28 L04 d          27.881  39.901  22.221  0.00  0.00    -0.271 OA
ATOM     47  N29 L04 d          29.935  39.508  21.352  0.00  0.00    -0.325 N 
ATOM     48  H47 L04 d          30.856  39.203  21.596  0.00  0.00     0.169 HD
BRANCH  47  49
ATOM     49  C30 L04 d          29.760  39.893  20.037  0.00  0.00     0.034 A 
ATOM     50  C35 L04 d          29.787  39.008  18.961  0.00  0.00    -0.057 A 
ATOM     51  C34 L04 d          29.612  39.464  17.656  0.00  0.00    -0.081 A 
ATOM     52  H39 L04 d          29.946  37.951  19.141  0.00  0.00     0.086 H 
ATOM     53  C33 L04 d          29.404  40.822  17.417  0.00  0.00    -0.083 A 
ATOM     54  H38 L04 d          29.637  38.764  16.828  0.00  0.00     0.083 H 
ATOM     55  C32 L04 d          29.377  41.714  18.483  0.00  0.00    -0.081 A 
ATOM     56  H37 L04 d          29.266  41.181  16.404  0.00  0.00     0.083 H 
ATOM     57  C31 L04 d          29.552  41.248  19.783  0.00  0.00    -0.057 A 
ATOM     58  H36 L04 d          29.219  42.771  18.302  0.00  0.00     0.083 H 
ATOM     59  H35 L04 d          29.527  41.949  20.609  0.00  0.00     0.086 H 
ENDBRANCH  47  49
ENDBRANCH  43  45
BRANCH  43  60
ATOM     60  C20 L04 d          29.468  40.125  24.716  0.00  0.00    -0.035 C 
ATOM     61  H21 L04 d          29.091  41.015  24.192  0.00  0.00     0.037 H 
ATOM     62  H22 L04 d          30.494  40.312  25.069  0.00  0.00     0.037 H 
BRANCH  60  63
ATOM     63  C21 L04 d          28.593  39.925  25.956  0.00  0.00    -0.059 C 
ATOM     64  H23 L04 d          29.171  39.385  26.721  0.00  0.00     0.038 H 
BRANCH  63  65
ATOM     65  C4  L04 d          28.210  41.292  26.495  0.00  0.00    -0.073 C 
ATOM     66  H4  L04 d          27.995  41.970  25.655  0.00  0.00     0.028 H 
ATOM     67  H5  L04 d          29.040  41.698  27.091  0.00  0.00     0.028 H 
ATOM     68  H6  L04 d          27.314  41.199  27.128  0.00  0.00     0.028 H 
ENDBRANCH  63  65
BRANCH  63  69
ATOM     69  C22 L04 d          27.347  39.107  25.618  0.00  0.00    -0.073 C 
ATOM     70  H24 L04 d          26.827  39.568  24.764  0.00  0.00     0.028 H 
ATOM     71  H25 L04 d          26.675  39.086  26.488  0.00  0.00     0.028 H 
ATOM     72  H26 L04 d          27.642  38.080  25.357  0.00  0.00     0.028 H 
ENDBRANCH  63  69
ENDBRANCH  60  63
ENDBRANCH  43  60
ENDBRANCH  41  43
ENDBRANCH   1  39
BRANCH   1  73
ATOM     73  C8  L04 d          33.224  35.929  24.721  0.00  0.00    -0.050 C 
ATOM     74  H9  L04 d          32.446  35.152  24.668  0.00  0.00     0.034 H 
ATOM     75  H10 L04 d          33.289  36.314  25.749  0.00  0.00     0.034 H 
BRANCH  73  76
ATOM     76  C9  L04 d          34.545  35.300  24.367  0.00  0.00    -0.040 C 
ATOM     77  H11 L04 d          35.226  36.097  24.036  0.00  0.00     0.040 H 
ATOM     78  H12 L04 d          34.378  34.595  23.540  0.00  0.00     0.040 H 
BRANCH  76  79
ATOM     79  C10 L04 d          35.207  34.556  25.486  0.00  0.00    -0.058 A 
ATOM     80  C15 L04 d          34.979  33.197  25.663  0.00  0.00    -0.076 A 
ATOM     81  C14 L04 d          35.616  32.495  26.677  0.00  0.00    -0.072 A 
ATOM     82  H16 L04 d          34.296  32.677  25.001  0.00  0.00     0.084 H 
ATOM     83  C13 L04 d          36.493  33.146  27.536  0.00  0.00    -0.026 A 
ATOM     84  H15 L04 d          35.430  31.435  26.799  0.00  0.00     0.084 H 
ATOM     85  C12 L04 d          36.716  34.508  27.358  0.00  0.00    -0.072 A 
ATOM     86  C11 L04 d          36.081  35.205  26.347  0.00  0.00    -0.076 A 
ATOM     87  H14 L04 d          37.397  35.030  28.022  0.00  0.00     0.084 H 
ATOM     88  H13 L04 d          36.267  36.266  26.226  0.00  0.00     0.084 H 
BRANCH  83  89
ATOM     89  C5  L04 d          37.179  32.418  28.615  0.00  0.00    -0.026 A 
ATOM     90  C43 L04 d          37.413  31.052  28.505  0.00  0.00    -0.069 A 
ATOM     91  C42 L04 d          38.052  30.360  29.525  0.00  0.00    -0.045 A 
ATOM     92  H45 L04 d          37.095  30.522  27.614  0.00  0.00     0.085 H 
ATOM     93  C41 L04 d          38.467  31.018  30.674  0.00  0.00     0.116 A 
ATOM     94  H44 L04 d          38.228  29.296  29.423  0.00  0.00     0.088 H 
ATOM     95  C17 L04 d          38.250  32.384  30.783  0.00  0.00    -0.045 A 
ATOM     96  F1  L04 d          39.071  30.332  31.666  0.00  0.00    -0.206 F 
ATOM     97  C6  L04 d          37.604  33.077  29.764  0.00  0.00    -0.069 A 
ATOM     98  H17 L04 d          38.585  32.915  31.667  0.00  0.00     0.088 H 
ATOM     99  H7  L04 d          37.429  34.142  29.867  0.00  0.00     0.085 H 
ENDBRANCH  83  89
ENDBRANCH  76  79
ENDBRANCH  73  76
ENDBRANCH   1  73
TORSDOF 20
ENDMDL
MODEL 9
REMARK VINA RESULT:     -10.0      2.345      4.890
REMARK  20 active torsions:
REMARK  status: ('A' for Active; 'I' for Inactive)
REMARK    1  A    between atoms: C1_1  and  C23_23 
REMARK    2  A    between atoms: C1_1  and  C2_2 
REMARK    3  A    between atoms: C2_2  and  C18_18 
REMARK    4  A    between atoms: C2_2  and  C3_3 
REMARK    5  A    between atoms: C21_21  and  C4_4 
REMARK    6  A    between atoms: C13_13  and  C5_5 
REMARK    7  A    between atoms: C18_18  and  C7_7 
REMARK    8  A    between atoms: C7_7  and  C16_16 
REMARK    9  A    between atoms: C7_7  and  C8_8 
REMARK   10  A    between atoms: C8_8  and  C9_9 
REMARK   11  A    between atoms: C9_9  and  C10_10 
REMARK       I    between atoms: C16_16  and  N18_45 
REMARK   12  A    between atoms: N18_45  and  C19_19 
REMARK   13  A    between atoms: C19_19  and  C27_27 
REMARK   14  A    between atoms: C19_19  and  C20_20 
REMARK   15  A    between atoms: C20_20  and  C21_21 
REMARK   16  A    between atoms: C21_21  and  C22_22 
REMARK   17  A    between atoms: C23_23  and  C24_24 
REMARK   18  A    between atoms: C24_24  and  C25_25 
REMARK   19  A    between atoms: C25_25  and  N1_44 
REMARK       I    between atoms: C27_27  and  N29_46 
REMARK   20  A    between atoms: N29_46  and  C30_30 
ROOT
ATOM      1  C7  L04 d          32.306  37.327  23.812  0.00  0.00     0.025 C 
ATOM      2  H8  L04 d          32.692  37.275  22.784  0.00  0.00     0.054 H 
ENDROOT
BRANCH   1   3
ATOM      3  C18 L04 d          32.886  38.569  24.489  0.00  0.00    -0.041 C 
ATOM      4  H18 L04 d          32.306  38.752  25.405  0.00  0.00     0.035 H 
ATOM      5  H19 L04 d          33.931  38.348  24.754  0.00  0.00     0.035 H 
BRANCH   3   6
ATOM      6  C2  L04 d          32.877  39.859  23.667  0.00  0.00     0.031 C 
ATOM      7  H3  L04 d          31.970  39.842  23.046  0.00  0.00     0.056 H 
BRANCH   6   8
ATOM      8  C1  L04 d          34.070  39.975  22.706  0.00  0.00    -0.052 C 
ATOM      9  H1  L04 d          34.436  38.962  22.487  0.00  0.00     0.034 H 
ATOM     10  H2  L04 d          33.718  40.446  21.776  0.00  0.00     0.034 H 
BRANCH   8  11
ATOM     11  C23 L04 d          35.230  40.795  23.245  0.00  0.00    -0.063 C 
ATOM     12  H27 L04 d          35.534  40.387  24.220  0.00  0.00     0.033 H 
ATOM     13  H28 L04 d          34.905  41.838  23.369  0.00  0.00     0.033 H 
BRANCH  11  14
ATOM     14  C24 L04 d          36.421  40.756  22.297  0.00  0.00    -0.050 C 
ATOM     15  H29 L04 d          36.616  41.774  21.928  0.00  0.00     0.035 H 
ATOM     16  H30 L04 d          36.180  40.097  21.450  0.00  0.00     0.035 H 
BRANCH  14  17
ATOM     17  C25 L04 d          37.673  40.234  22.987  0.00  0.00    -0.002 C 
ATOM     18  H31 L04 d          37.407  39.334  23.560  0.00  0.00     0.064 H 
ATOM     19  H32 L04 d          38.044  41.009  23.673  0.00  0.00     0.064 H 
BRANCH  17  20
ATOM     20  N1  L04 d          38.744  39.890  22.053  0.00  0.00    -0.344 N 
ATOM     21  C28 L04 d          39.553  40.794  21.227  0.00  0.00     0.023 A 
ATOM     22  C36 L04 d          40.527  39.829  20.552  0.00  0.00    -0.025 A 
ATOM     23  H33 L04 d          40.087  41.531  21.846  0.00  0.00     0.071 H 
ATOM     24  H34 L04 d          38.934  41.319  20.485  0.00  0.00     0.071 H 
ATOM     25  C29 L04 d          40.212  38.505  20.951  0.00  0.00     0.040 A 
ATOM     26  C38 L04 d          41.610  40.056  19.694  0.00  0.00    -0.074 A 
ATOM     27  C26 L04 d          39.071  38.587  21.871  0.00  0.00     0.254 A 
ATOM     28  C37 L04 d          40.987  37.434  20.483  0.00  0.00    -0.067 A 
ATOM     29  O1  L04 d          38.524  37.629  22.424  0.00  0.00    -0.267 OA
ATOM     30  C40 L04 d          42.056  37.683  19.636  0.00  0.00    -0.082 A 
ATOM     31  H40 L04 d          40.752  36.418  20.782  0.00  0.00     0.085 H 
ATOM     32  C39 L04 d          42.363  38.975  19.245  0.00  0.00    -0.082 A 
ATOM     33  H43 L04 d          42.658  36.856  19.276  0.00  0.00     0.083 H 
ATOM     34  H42 L04 d          43.202  39.147  18.580  0.00  0.00     0.083 H 
ATOM     35  H41 L04 d          41.859  41.063  19.381  0.00  0.00     0.084 H 
ENDBRANCH  17  20
ENDBRANCH  14  17
ENDBRANCH  11  14
ENDBRANCH   8  11
ENDBRANCH   6   8
BRANCH   6  36
ATOM     36  C3  L04 d          32.774  41.071  24.600  0.00  0.00     0.177 C 
ATOM     37  O5  L04 d          33.686  41.418  25.395  0.00  0.00    -0.648 OA
ATOM     38  O4  L04 d          31.714  41.703  24.585  0.00  0.00    -0.648 OA
ENDBRANCH   6  36
ENDBRANCH   3   6
ENDBRANCH   1   3
BRANCH   1  39
ATOM     39  C16 L04 d          30.787  37.401  23.772  0.00  0.00     0.222 C 
ATOM     40  O17 L04 d          30.094  36.479  24.210  0.00  0.00    -0.273 OA
ATOM     41  N18 L04 d          30.274  38.506  23.241  0.00  0.00    -0.347 N 
ATOM     42  H46 L04 d          30.889  39.229  22.925  0.00  0.00     0.163 HD
BRANCH  41  43
ATOM     43  C19 L04 d          28.835  38.683  23.112  0.00  0.00     0.090 C 
ATOM     44  H20 L04 d          28.329  37.718  23.260  0.00  0.00     0.087 H 
BRANCH  43  45
ATOM     45  C27 L04 d          28.564  39.200  21.703  0.00  0.00     0.245 C 
ATOM     46  O28 L04 d          27.410  39.455  21.347  0.00  0.00    -0.271 OA
ATOM     47  N29 L04 d          29.639  39.415  20.945  0.00  0.00    -0.325 N 
ATOM     48  H47 L04 d          30.521  39.225  21.376  0.00  0.00     0.169 HD
BRANCH  47  49
ATOM     49  C30 L04 d          29.694  39.867  19.640  0.00  0.00     0.034 A 
ATOM     50  C35 L04 d          29.477  41.194  19.271  0.00  0.00    -0.057 A 
ATOM     51  C34 L04 d          29.538  41.583  17.935  0.00  0.00    -0.081 A 
ATOM     52  H39 L04 d          29.259  41.933  20.033  0.00  0.00     0.086 H 
ATOM     53  C33 L04 d          29.821  40.637  16.949  0.00  0.00    -0.083 A 
ATOM     54  H38 L04 d          29.366  42.618  17.662  0.00  0.00     0.083 H 
ATOM     55  C32 L04 d          30.037  39.311  17.306  0.00  0.00    -0.081 A 
ATOM     56  H37 L04 d          29.871  40.936  15.908  0.00  0.00     0.083 H 
ATOM     57  C31 L04 d          29.975  38.934  18.644  0.00  0.00    -0.057 A 
ATOM     58  H36 L04 d          30.254  38.573  16.543  0.00  0.00     0.083 H 
ATOM     59  H35 L04 d          30.147  37.899  18.916  0.00  0.00     0.086 H 
ENDBRANCH  47  49
ENDBRANCH  43  45
BRANCH  43  60
ATOM     60  C20 L04 d          28.313  39.687  24.141  0.00  0.00    -0.035 C 
ATOM     61  H21 L04 d          27.327  40.028  23.792  0.00  0.00     0.037 H 
ATOM     62  H22 L04 d          29.013  40.536  24.152  0.00  0.00     0.037 H 
BRANCH  60  63
ATOM     63  C21 L04 d          28.144  39.222  25.590  0.00  0.00    -0.059 C 
ATOM     64  H23 L04 d          28.396  38.154  25.657  0.00  0.00     0.038 H 
BRANCH  63  65
ATOM     65  C4  L04 d          29.102  40.017  26.461  0.00  0.00    -0.073 C 
ATOM     66  H4  L04 d          29.229  41.025  26.040  0.00  0.00     0.028 H 
ATOM     67  H5  L04 d          30.076  39.507  26.494  0.00  0.00     0.028 H 
ATOM     68  H6  L04 d          28.694  40.094  27.480  0.00  0.00     0.028 H 
ENDBRANCH  63  65
BRANCH  63  69
ATOM     69  C22 L04 d          26.702  39.414  26.059  0.00  0.00    -0.073 C 
ATOM     70  H24 L04 d          26.035  38.771  25.466  0.00  0.00     0.028 H 
ATOM     71  H25 L04 d          26.410  40.466  25.927  0.00  0.00     0.028 H 
ATOM     72  H26 L04 d          26.623  39.142  27.123  0.00  0.00     0.028 H 
ENDBRANCH  63  69
ENDBRANCH  60  63
ENDBRANCH  43  60
ENDBRANCH  41  43
ENDBRANCH   1  39
BRANCH   1  73
ATOM     73  C8  L04 d          32.708  36.053  24.561  0.00  0.00    -0.050 C 
ATOM     74  H9  L04 d          31.890  35.323  24.468  0.00  0.00     0.034 H 
ATOM     75  H10 L04 d          32.855  36.306  25.621  0.00  0.00     0.034 H 
BRANCH  73  76
ATOM     76  C9  L04 d          33.972  35.414  24.049  0.00  0.00    -0.040 C 
ATOM     77  H11 L04 d          34.594  36.201  23.599  0.00  0.00     0.040 H 
ATOM     78  H12 L04 d          33.696  34.680  23.278  0.00  0.00     0.040 H 
BRANCH  76  79
ATOM     79  C10 L04 d          34.788  34.712  25.089  0.00  0.00    -0.058 A 
ATOM     80  C15 L04 d          35.337  35.420  26.153  0.00  0.00    -0.076 A 
ATOM     81  C14 L04 d          36.065  34.769  27.138  0.00  0.00    -0.072 A 
ATOM     82  H16 L04 d          35.194  36.492  26.213  0.00  0.00     0.084 H 
ATOM     83  C13 L04 d          36.261  33.395  27.075  0.00  0.00    -0.026 A 
ATOM     84  H15 L04 d          36.484  35.335  27.962  0.00  0.00     0.084 H 
ATOM     85  C12 L04 d          35.713  32.690  26.007  0.00  0.00    -0.072 A 
ATOM     86  C11 L04 d          34.987  33.340  25.027  0.00  0.00    -0.076 A 
ATOM     87  H14 L04 d          35.858  31.617  25.943  0.00  0.00     0.084 H 
ATOM     88  H13 L04 d          34.569  32.773  24.202  0.00  0.00     0.084 H 
BRANCH  83  89
ATOM     89  C5  L04 d          37.029  32.689  28.112  0.00  0.00    -0.026 A 
ATOM     90  C43 L04 d          36.852  31.325  28.314  0.00  0.00    -0.069 A 
ATOM     91  C42 L04 d          37.569  30.657  29.298  0.00  0.00    -0.045 A 
ATOM     92  H45 L04 d          36.147  30.777  27.698  0.00  0.00     0.085 H 
ATOM     93  C41 L04 d          38.474  31.339  30.099  0.00  0.00     0.116 A 
ATOM     94  H44 L04 d          37.419  29.594  29.442  0.00  0.00     0.088 H 
ATOM     95  C17 L04 d          38.667  32.697  29.891  0.00  0.00    -0.045 A 
ATOM     96  F1  L04 d          39.153  30.682  31.063  0.00  0.00    -0.206 F 
ATOM     97  C6  L04 d          37.944  33.368  28.910  0.00  0.00    -0.069 A 
ATOM     98  H17 L04 d          39.385  33.238  30.497  0.00  0.00     0.088 H 
ATOM     99  H7  L04 d          38.095  34.432  28.766  0.00  0.00     0.085 H 
ENDBRANCH  83  89
ENDBRANCH  76  79
ENDBRANCH  73  76
ENDBRANCH   1  73
TORSDOF 20
ENDMDL
MODEL 10
REMARK VINA RESULT:     -10.0      1.934     10.176
REMARK  20 active torsions:
REMARK  status: ('A' for Active; 'I' for Inactive)
REMARK    1  A    between atoms: C1_1  and  C23_23 
REMARK    2  A    between atoms: C1_1  and  C2_2 
REMARK    3  A    between atoms: C2_2  and  C18_18 
REMARK    4  A    between atoms: C2_2  and  C3_3 
REMARK    5  A    between atoms: C21_21  and  C4_4 
REMARK    6  A    between atoms: C13_13  and  C5_5 
REMARK    7  A    between atoms: C18_18  and  C7_7 
REMARK    8  A    between atoms: C7_7  and  C16_16 
REMARK    9  A    between atoms: C7_7  and  C8_8 
REMARK   10  A    between atoms: C8_8  and  C9_9 
REMARK   11  A    between atoms: C9_9  and  C10_10 
REMARK       I    between atoms: C16_16  and  N18_45 
REMARK   12  A    between atoms: N18_45  and  C19_19 
REMARK   13  A    between atoms: C19_19  and  C27_27 
REMARK   14  A    between atoms: C19_19  and  C20_20 
REMARK   15  A    between atoms: C20_20  and  C21_21 
REMARK   16  A    between atoms: C21_21  and  C22_22 
REMARK   17  A    between atoms: C23_23  and  C24_24 
REMARK   18  A    between atoms: C24_24  and  C25_25 
REMARK   19  A    between atoms: C25_25  and  N1_44 
REMARK       I    between atoms: C27_27  and  N29_46 
REMARK   20  A    between atoms: N29_46  and  C30_30 
ROOT
ATOM      1  C7  L04 d          34.873  37.508  23.566  0.00  0.00     0.025 C 
ATOM      2  H8  L04 d          34.566  38.479  23.981  0.00  0.00     0.054 H 
ENDROOT
BRANCH   1   3
ATOM      3  C18 L04 d          33.629  36.780  23.058  0.00  0.00    -0.041 C 
ATOM      4  H18 L04 d          33.831  36.454  22.027  0.00  0.00     0.035 H 
ATOM      5  H19 L04 d          33.472  35.899  23.697  0.00  0.00     0.035 H 
BRANCH   3   6
ATOM      6  C2  L04 d          32.327  37.584  23.045  0.00  0.00     0.031 C 
ATOM      7  H3  L04 d          31.517  36.885  22.791  0.00  0.00     0.056 H 
BRANCH   6   8
ATOM      8  C1  L04 d          32.308  38.691  21.981  0.00  0.00    -0.052 C 
ATOM      9  H1  L04 d          32.350  39.663  22.495  0.00  0.00     0.034 H 
ATOM     10  H2  L04 d          33.197  38.574  21.345  0.00  0.00     0.034 H 
BRANCH   8  11
ATOM     11  C23 L04 d          31.078  38.679  21.088  0.00  0.00    -0.063 C 
ATOM     12  H27 L04 d          30.180  38.583  21.716  0.00  0.00     0.033 H 
ATOM     13  H28 L04 d          31.141  37.820  20.404  0.00  0.00     0.033 H 
BRANCH  11  14
ATOM     14  C24 L04 d          30.977  39.959  20.270  0.00  0.00    -0.050 C 
ATOM     15  H29 L04 d          30.912  39.696  19.204  0.00  0.00     0.035 H 
ATOM     16  H30 L04 d          31.879  40.565  20.444  0.00  0.00     0.035 H 
BRANCH  14  17
ATOM     17  C25 L04 d          29.752  40.777  20.652  0.00  0.00    -0.002 C 
ATOM     18  H31 L04 d          28.977  40.623  19.888  0.00  0.00     0.064 H 
ATOM     19  H32 L04 d          30.035  41.840  20.678  0.00  0.00     0.064 H 
BRANCH  17  20
ATOM     20  N1  L04 d          29.199  40.412  21.955  0.00  0.00    -0.344 N 
ATOM     21  C28 L04 d          28.129  39.451  22.250  0.00  0.00     0.023 A 
ATOM     22  C36 L04 d          28.085  39.478  23.776  0.00  0.00    -0.025 A 
ATOM     23  H33 L04 d          28.380  38.448  21.876  0.00  0.00     0.071 H 
ATOM     24  H34 L04 d          27.171  39.775  21.817  0.00  0.00     0.071 H 
ATOM     25  C29 L04 d          29.025  40.430  24.248  0.00  0.00     0.040 A 
ATOM     26  C38 L04 d          27.331  38.736  24.694  0.00  0.00    -0.074 A 
ATOM     27  C26 L04 d          29.682  41.012  23.071  0.00  0.00     0.254 A 
ATOM     28  C37 L04 d          29.192  40.621  25.627  0.00  0.00    -0.067 A 
ATOM     29  O1  L04 d          30.563  41.875  23.094  0.00  0.00    -0.267 OA
ATOM     30  C40 L04 d          28.436  39.872  26.516  0.00  0.00    -0.082 A 
ATOM     31  H40 L04 d          29.907  41.347  25.995  0.00  0.00     0.085 H 
ATOM     32  C39 L04 d          27.517  38.943  26.058  0.00  0.00    -0.082 A 
ATOM     33  H43 L04 d          28.567  40.015  27.583  0.00  0.00     0.083 H 
ATOM     34  H42 L04 d          26.935  38.370  26.771  0.00  0.00     0.083 H 
ATOM     35  H41 L04 d          26.609  38.007  24.346  0.00  0.00     0.084 H 
ENDBRANCH  17  20
ENDBRANCH  14  17
ENDBRANCH  11  14
ENDBRANCH   8  11
ENDBRANCH   6   8
BRANCH   6  36
ATOM     36  C3  L04 d          32.039  38.131  24.448  0.00  0.00     0.177 C 
ATOM     37  O5  L04 d          31.097  37.722  25.175  0.00  0.00    -0.648 OA
ATOM     38  O4  L04 d          32.757  39.050  24.851  0.00  0.00    -0.648 OA
ENDBRANCH   6  36
ENDBRANCH   3   6
ENDBRANCH   1   3
BRANCH   1  39
ATOM     39  C16 L04 d          35.859  37.739  22.430  0.00  0.00     0.222 C 
ATOM     40  O17 L04 d          35.466  38.058  21.305  0.00  0.00    -0.273 OA
ATOM     41  N18 L04 d          37.142  37.575  22.733  0.00  0.00    -0.347 N 
ATOM     42  H46 L04 d          37.398  37.338  23.670  0.00  0.00     0.163 HD
BRANCH  41  43
ATOM     43  C19 L04 d          38.181  37.732  21.725  0.00  0.00     0.090 C 
ATOM     44  H20 L04 d          37.920  37.147  20.831  0.00  0.00     0.087 H 
BRANCH  43  45
ATOM     45  C27 L04 d          39.481  37.208  22.325  0.00  0.00     0.245 C 
ATOM     46  O28 L04 d          39.726  37.379  23.522  0.00  0.00    -0.271 OA
ATOM     47  N29 L04 d          40.265  36.514  21.499  0.00  0.00    -0.325 N 
ATOM     48  H47 L04 d          39.920  36.397  20.568  0.00  0.00     0.169 HD
BRANCH  47  49
ATOM     49  C30 L04 d          41.492  35.936  21.762  0.00  0.00     0.034 A 
ATOM     50  C35 L04 d          42.712  36.532  21.447  0.00  0.00    -0.057 A 
ATOM     51  C34 L04 d          43.915  35.890  21.730  0.00  0.00    -0.081 A 
ATOM     52  H39 L04 d          42.725  37.507  20.974  0.00  0.00     0.086 H 
ATOM     53  C33 L04 d          43.906  34.635  22.340  0.00  0.00    -0.083 A 
ATOM     54  H38 L04 d          44.857  36.364  21.478  0.00  0.00     0.083 H 
ATOM     55  C32 L04 d          42.695  34.031  22.658  0.00  0.00    -0.081 A 
ATOM     56  H37 L04 d          44.840  34.133  22.564  0.00  0.00     0.083 H 
ATOM     57  C31 L04 d          41.499  34.682  22.370  0.00  0.00    -0.057 A 
ATOM     58  H36 L04 d          42.682  33.055  23.129  0.00  0.00     0.083 H 
ATOM     59  H35 L04 d          40.558  34.206  22.623  0.00  0.00     0.086 H 
ENDBRANCH  47  49
ENDBRANCH  43  45
BRANCH  43  60
ATOM     60  C20 L04 d          38.346  39.202  21.334  0.00  0.00    -0.035 C 
ATOM     61  H21 L04 d          37.372  39.550  20.961  0.00  0.00     0.037 H 
ATOM     62  H22 L04 d          39.087  39.241  20.522  0.00  0.00     0.037 H 
BRANCH  60  63
ATOM     63  C21 L04 d          38.799  40.194  22.409  0.00  0.00    -0.059 C 
ATOM     64  H23 L04 d          38.925  39.660  23.362  0.00  0.00     0.038 H 
BRANCH  63  65
ATOM     65  C4  L04 d          40.135  40.779  21.984  0.00  0.00    -0.073 C 
ATOM     66  H4  L04 d          40.931  40.040  22.157  0.00  0.00     0.028 H 
ATOM     67  H5  L04 d          40.342  41.686  22.571  0.00  0.00     0.028 H 
ATOM     68  H6  L04 d          40.099  41.036  20.914  0.00  0.00     0.028 H 
ENDBRANCH  63  65
BRANCH  63  69
ATOM     69  C22 L04 d          37.761  41.300  22.602  0.00  0.00    -0.073 C 
ATOM     70  H24 L04 d          37.150  41.077  23.489  0.00  0.00     0.028 H 
ATOM     71  H25 L04 d          37.114  41.354  21.715  0.00  0.00     0.028 H 
ATOM     72  H26 L04 d          38.274  42.263  22.742  0.00  0.00     0.028 H 
ENDBRANCH  63  69
ENDBRANCH  60  63
ENDBRANCH  43  60
ENDBRANCH  41  43
ENDBRANCH   1  39
BRANCH   1  73
ATOM     73  C8  L04 d          35.577  36.698  24.659  0.00  0.00    -0.050 C 
ATOM     74  H9  L04 d          35.660  37.328  25.558  0.00  0.00     0.034 H 
ATOM     75  H10 L04 d          36.583  36.436  24.301  0.00  0.00     0.034 H 
BRANCH  73  76
ATOM     76  C9  L04 d          34.862  35.428  25.037  0.00  0.00    -0.040 C 
ATOM     77  H11 L04 d          34.730  34.827  24.126  0.00  0.00     0.040 H 
ATOM     78  H12 L04 d          33.877  35.698  25.444  0.00  0.00     0.040 H 
BRANCH  76  79
ATOM     79  C10 L04 d          35.571  34.586  26.052  0.00  0.00    -0.058 A 
ATOM     80  C15 L04 d          35.679  33.211  25.878  0.00  0.00    -0.076 A 
ATOM     81  C14 L04 d          36.364  32.430  26.798  0.00  0.00    -0.072 A 
ATOM     82  H16 L04 d          35.223  32.743  25.014  0.00  0.00     0.084 H 
ATOM     83  C13 L04 d          36.952  33.014  27.913  0.00  0.00    -0.026 A 
ATOM     84  H15 L04 d          36.441  31.360  26.645  0.00  0.00     0.084 H 
ATOM     85  C12 L04 d          36.839  34.390  28.087  0.00  0.00    -0.072 A 
ATOM     86  C11 L04 d          36.157  35.166  27.169  0.00  0.00    -0.076 A 
ATOM     87  H14 L04 d          37.291  34.859  28.953  0.00  0.00     0.084 H 
ATOM     88  H13 L04 d          36.079  36.237  27.322  0.00  0.00     0.084 H 
BRANCH  83  89
ATOM     89  C5  L04 d          37.684  32.201  28.898  0.00  0.00    -0.026 A 
ATOM     90  C43 L04 d          38.859  32.675  29.470  0.00  0.00    -0.069 A 
ATOM     91  C42 L04 d          39.556  31.907  30.392  0.00  0.00    -0.045 A 
ATOM     92  H45 L04 d          39.234  33.655  29.193  0.00  0.00     0.085 H 
ATOM     93  C41 L04 d          39.095  30.651  30.760  0.00  0.00     0.116 A 
ATOM     94  H44 L04 d          40.470  32.292  30.829  0.00  0.00     0.088 H 
ATOM     95  C17 L04 d          37.914  30.179  30.204  0.00  0.00    -0.045 A 
ATOM     96  F1  L04 d          39.790  29.907  31.645  0.00  0.00    -0.206 F 
ATOM     97  C6  L04 d          37.218  30.945  29.275  0.00  0.00    -0.069 A 
ATOM     98  H17 L04 d          37.532  29.207  30.497  0.00  0.00     0.088 H 
ATOM     99  H7  L04 d          36.304  30.559  28.839  0.00  0.00     0.085 H 
ENDBRANCH  83  89
ENDBRANCH  76  79
ENDBRANCH  73  76
ENDBRANCH   1  73
TORSDOF 20
ENDMDL
