REMARK  21 active torsions:
REMARK  status: ('A' for Active; 'I' for Inactive)
REMARK    1  A    between atoms: C12_6  and  C3_3 
REMARK    2  A    between atoms: O13_7  and  C12_6 
REMARK    3  A    between atoms: C16_8  and  O13_7 
REMARK    4  A    between atoms: C5_11  and  N11_10 
REMARK    5  A    between atoms: CA_13  and  N_12 
REMARK    6  A    between atoms: CA_13  and  CB_16 
REMARK    7  A    between atoms: C_14  and  CA_13 
REMARK       I    between atoms: N_28  and  C_14 
REMARK    8  A    between atoms: CB_16  and  CG_17 
REMARK    9  A    between atoms: CZ_22  and  OH_23 
REMARK   10  A    between atoms: OH_23  and  P_24 
REMARK   11  A    between atoms: CA_29  and  N_28 
REMARK   12  A    between atoms: CA_29  and  CB_33 
REMARK   13  A    between atoms: C_31  and  CA_29 
REMARK   14  A    between atoms: CA_29  and  CH3_30 
REMARK       I    between atoms: C_31  and  N_45 
REMARK   15  A    between atoms: CB_33  and  CG_34 
REMARK   16  A    between atoms: CZ_39  and  OH_40 
REMARK   17  A    between atoms: OH_40  and  P_41 
REMARK   18  A    between atoms: N_45  and  CA_46 
REMARK   19  A    between atoms: CA_46  and  C_47 
REMARK   20  A    between atoms: CA_46  and  CB_49 
REMARK   21  A    between atoms: CB_49  and  CG_50 
REMARK       I    between atoms: CG_50  and  ND2_52 
ROOT
ATOM      1  C   MOL d         -27.992  45.680  33.405  0.00  0.00     0.241 C 
ATOM      2  O   MOL d         -28.938  46.027  32.649  0.00  0.00    -0.271 OA
ATOM      3  N   MOL d         -27.448  46.415  34.328  0.00  0.00    -0.341 N 
ATOM      4  H17 MOL d         -26.752  46.013  34.922  0.00  0.00     0.163 HD
ENDROOT
BRANCH   1   5
ATOM      5  CA  MOL d         -27.448  44.292  33.482  0.00  0.00     0.094 C 
ATOM      6  H10 MOL d         -26.876  44.108  34.403  0.00  0.00     0.088 H 
BRANCH   5   7
ATOM      7  N   MOL d         -28.634  43.524  33.443  0.00  0.00    -0.335 N 
ATOM      8  C16 MOL d         -28.774  42.261  33.771  0.00  0.00     0.292 C 
ATOM      9  O18 MOL d         -28.003  41.730  34.779  0.00  0.00    -0.143 OA
ATOM     10  H9  MOL d         -29.459  43.996  33.131  0.00  0.00     0.164 HD
BRANCH   8  11
ATOM     11  O13 MOL d         -29.961  41.827  33.451  0.00  0.00    -0.310 OA
BRANCH  11  12
ATOM     12  C12 MOL d         -30.490  40.493  33.515  0.00  0.00     0.053 C 
ATOM     13  H5  MOL d         -31.359  40.539  34.188  0.00  0.00     0.082 H 
ATOM     14  H6  MOL d         -30.827  40.246  32.497  0.00  0.00     0.082 H 
BRANCH  12  15
ATOM     15  C3  MOL d         -29.671  39.342  33.972  0.00  0.00    -0.032 A 
ATOM     16  C2  MOL d         -29.642  38.926  35.315  0.00  0.00    -0.075 A 
ATOM     17  C1  MOL d         -28.852  37.793  35.664  0.00  0.00    -0.080 A 
ATOM     18  H2  MOL d         -30.210  39.457  36.070  0.00  0.00     0.084 H 
ATOM     19  C6  MOL d         -28.092  37.120  34.667  0.00  0.00    -0.058 A 
ATOM     20  H1  MOL d         -28.830  37.443  36.690  0.00  0.00     0.083 H 
ATOM     21  C5  MOL d         -28.130  37.570  33.334  0.00  0.00     0.026 A 
ATOM     22  H4  MOL d         -27.485  36.262  34.934  0.00  0.00     0.086 H 
ATOM     23  C4  MOL d         -28.923  38.672  32.989  0.00  0.00    -0.050 A 
ATOM     24  H3  MOL d         -28.960  39.009  31.959  0.00  0.00     0.087 H 
BRANCH  21  25
ATOM     25  N11 MOL d         -27.406  36.956  32.371  0.00  0.00    -0.399 N 
ATOM     26  H7  MOL d         -27.445  37.298  31.400  0.00  0.00     0.156 HD
ATOM     27  H8  MOL d         -26.815  36.146  32.608  0.00  0.00     0.156 HD
ENDBRANCH  21  25
ENDBRANCH  12  15
ENDBRANCH  11  12
ENDBRANCH   8  11
ENDBRANCH   5   7
BRANCH   5  28
ATOM     28  CB  MOL d         -26.547  44.082  32.230  0.00  0.00    -0.014 C 
ATOM     29  H11 MOL d         -25.770  44.861  32.218  0.00  0.00     0.043 H 
ATOM     30  H12 MOL d         -27.169  44.171  31.327  0.00  0.00     0.043 H 
BRANCH  28  31
ATOM     31  CG  MOL d         -25.871  42.714  32.228  0.00  0.00    -0.056 A 
ATOM     32  CD2 MOL d         -24.695  42.472  32.984  0.00  0.00    -0.074 A 
ATOM     33  CE2 MOL d         -24.088  41.192  32.984  0.00  0.00    -0.050 A 
ATOM     34  H14 MOL d         -24.257  43.274  33.567  0.00  0.00     0.084 H 
ATOM     35  CZ  MOL d         -24.736  40.186  32.205  0.00  0.00     0.082 A 
ATOM     36  H16 MOL d         -23.183  40.988  33.544  0.00  0.00     0.087 H 
ATOM     37  CE1 MOL d         -25.896  40.404  31.461  0.00  0.00    -0.050 A 
ATOM     38  CD1 MOL d         -26.460  41.668  31.471  0.00  0.00    -0.074 A 
ATOM     39  H15 MOL d         -26.346  39.601  30.888  0.00  0.00     0.087 H 
ATOM     40  H13 MOL d         -27.359  41.861  30.896  0.00  0.00     0.084 H 
BRANCH  35  41
ATOM     41  OH  MOL d         -24.176  38.899  32.176  0.00  0.00    -0.240 OA
BRANCH  41  42
ATOM     42  P   MOL d         -23.488  38.166  33.319  0.00  0.00     0.427 P 
ATOM     43  O3P MOL d         -21.963  38.125  33.032  0.00  0.00    -0.617 OA
ATOM     44  O2P MOL d         -23.746  38.754  34.623  0.00  0.00    -0.617 OA
ATOM     45  O1P MOL d         -23.991  36.814  33.296  0.00  0.00    -0.617 OA
ENDBRANCH  41  42
ENDBRANCH  35  41
ENDBRANCH  28  31
ENDBRANCH   5  28
ENDBRANCH   1   5
BRANCH   3  46
ATOM     46  CA  MOL d         -27.818  47.783  34.517  0.00  0.00     0.114 C 
BRANCH  46  47
ATOM     47  CB  MOL d         -26.671  48.304  35.455  0.00  0.00    -0.009 C 
ATOM     48  H21 MOL d         -25.742  48.339  34.867  0.00  0.00     0.044 H 
ATOM     49  H22 MOL d         -26.556  47.585  36.280  0.00  0.00     0.044 H 
BRANCH  47  50
ATOM     50  CG  MOL d         -26.894  49.692  36.067  0.00  0.00    -0.055 A 
ATOM     51  CD2 MOL d         -26.618  50.838  35.313  0.00  0.00    -0.074 A 
ATOM     52  CE2 MOL d         -26.821  52.146  35.830  0.00  0.00    -0.050 A 
ATOM     53  H24 MOL d         -26.238  50.725  34.304  0.00  0.00     0.084 H 
ATOM     54  CZ  MOL d         -27.314  52.220  37.139  0.00  0.00     0.082 A 
ATOM     55  H26 MOL d         -26.607  53.034  35.246  0.00  0.00     0.087 H 
ATOM     56  CE1 MOL d         -27.606  51.085  37.920  0.00  0.00    -0.050 A 
ATOM     57  CD1 MOL d         -27.395  49.812  37.388  0.00  0.00    -0.074 A 
ATOM     58  H25 MOL d         -27.992  51.199  38.927  0.00  0.00     0.087 H 
ATOM     59  H23 MOL d         -27.611  48.928  37.976  0.00  0.00     0.084 H 
BRANCH  54  60
ATOM     60  OH  MOL d         -27.510  53.516  37.655  0.00  0.00    -0.240 OA
BRANCH  60  61
ATOM     61  P   MOL d         -28.286  54.680  36.766  0.00  0.00     0.427 P 
ATOM     62  O3P MOL d         -27.442  55.086  35.606  0.00  0.00    -0.617 OA
ATOM     63  O2P MOL d         -29.555  54.122  36.240  0.00  0.00    -0.617 OA
ATOM     64  O1P MOL d         -28.453  55.816  37.691  0.00  0.00    -0.617 OA
ENDBRANCH  60  61
ENDBRANCH  54  60
ENDBRANCH  47  50
ENDBRANCH  46  47
BRANCH  46  65
ATOM     65  C   MOL d         -27.736  48.612  33.210  0.00  0.00     0.246 C 
ATOM     66  O   MOL d         -28.582  49.494  32.964  0.00  0.00    -0.271 OA
ATOM     67  N   MOL d         -26.785  48.317  32.344  0.00  0.00    -0.344 N 
ATOM     68  H27 MOL d         -26.130  47.587  32.540  0.00  0.00     0.163 HD
BRANCH  67  69
ATOM     69  CA  MOL d         -26.703  49.063  31.107  0.00  0.00     0.104 C 
ATOM     70  H28 MOL d         -27.297  49.984  31.205  0.00  0.00     0.090 H 
BRANCH  69  71
ATOM     71  C   MOL d         -27.272  48.209  29.973  0.00  0.00     0.197 C 
ATOM     72  OXT MOL d         -26.884  48.473  28.837  0.00  0.00    -0.646 OA
ATOM     73  O   MOL d         -28.116  47.285  30.199  0.00  0.00    -0.646 OA
ENDBRANCH  69  71
BRANCH  69  74
ATOM     74  CB  MOL d         -25.235  49.444  30.767  0.00  0.00     0.037 C 
ATOM     75  H29 MOL d         -24.841  50.076  31.576  0.00  0.00     0.051 H 
ATOM     76  H30 MOL d         -25.230  50.010  29.824  0.00  0.00     0.051 H 
BRANCH  74  77
ATOM     77  CG  MOL d         -24.293  48.190  30.605  0.00  0.00     0.217 C 
ATOM     78  OD1 MOL d         -24.507  47.177  31.201  0.00  0.00    -0.274 OA
ATOM     79  ND2 MOL d         -23.260  48.326  29.821  0.00  0.00    -0.370 N 
ATOM     80  H31 MOL d         -22.632  47.560  29.685  0.00  0.00     0.159 HD
ATOM     81  H32 MOL d         -23.096  49.196  29.356  0.00  0.00     0.159 HD
ENDBRANCH  74  77
ENDBRANCH  69  74
ENDBRANCH  67  69
ENDBRANCH  46  65
BRANCH  46  82
ATOM     82  CH3 MOL d         -29.070  47.893  35.429  0.00  0.00    -0.044 C 
ATOM     83  H18 MOL d         -29.336  48.952  35.560  0.00  0.00     0.031 H 
ATOM     84  H19 MOL d         -28.850  47.446  36.410  0.00  0.00     0.031 H 
ATOM     85  H20 MOL d         -29.911  47.359  34.963  0.00  0.00     0.031 H 
ENDBRANCH  46  82
ENDBRANCH   3  46
TORSDOF 21
