MODEL 1
REMARK VINA RESULT:      -6.3      0.000      0.000
REMARK  21 active torsions:
REMARK  status: ('A' for Active; 'I' for Inactive)
REMARK    1  A    between atoms: C12_6  and  C3_3 
REMARK    2  A    between atoms: O13_7  and  C12_6 
REMARK    3  A    between atoms: C16_8  and  O13_7 
REMARK    4  A    between atoms: C5_11  and  N11_10 
REMARK    5  A    between atoms: CA_13  and  N_12 
REMARK    6  A    between atoms: CA_13  and  CB_16 
REMARK    7  A    between atoms: C_14  and  CA_13 
REMARK       I    between atoms: N_28  and  C_14 
REMARK    8  A    between atoms: CB_16  and  CG_17 
REMARK    9  A    between atoms: CZ_22  and  OH_23 
REMARK   10  A    between atoms: OH_23  and  P_24 
REMARK   11  A    between atoms: CA_29  and  N_28 
REMARK   12  A    between atoms: CA_29  and  CB_33 
REMARK   13  A    between atoms: C_31  and  CA_29 
REMARK   14  A    between atoms: CA_29  and  CH3_30 
REMARK       I    between atoms: C_31  and  N_45 
REMARK   15  A    between atoms: CB_33  and  CG_34 
REMARK   16  A    between atoms: CZ_39  and  OH_40 
REMARK   17  A    between atoms: OH_40  and  P_41 
REMARK   18  A    between atoms: N_45  and  CA_46 
REMARK   19  A    between atoms: CA_46  and  C_47 
REMARK   20  A    between atoms: CA_46  and  CB_49 
REMARK   21  A    between atoms: CB_49  and  CG_50 
REMARK       I    between atoms: CG_50  and  ND2_52 
ROOT
ATOM      1  C   MOL d         -28.829  44.975  32.912  0.00  0.00     0.241 C 
ATOM      2  O   MOL d         -29.371  45.011  31.775  0.00  0.00    -0.271 OA
ATOM      3  N   MOL d         -29.206  45.649  33.956  0.00  0.00    -0.341 N 
ATOM      4  H17 MOL d         -28.750  45.487  34.830  0.00  0.00     0.163 HD
ENDROOT
BRANCH   1   5
ATOM      5  CA  MOL d         -27.757  44.010  33.297  0.00  0.00     0.094 C 
ATOM      6  H10 MOL d         -27.094  44.400  34.084  0.00  0.00     0.088 H 
BRANCH   5   7
ATOM      7  N   MOL d         -28.519  42.912  33.755  0.00  0.00    -0.335 N 
ATOM      8  C16 MOL d         -28.558  42.422  34.972  0.00  0.00     0.292 C 
ATOM      9  O18 MOL d         -28.410  43.265  36.049  0.00  0.00    -0.143 OA
ATOM     10  H9  MOL d         -29.095  42.456  33.075  0.00  0.00     0.164 HD
BRANCH   8  11
ATOM     11  O13 MOL d         -29.230  41.306  35.003  0.00  0.00    -0.310 OA
BRANCH  11  12
ATOM     12  C12 MOL d         -30.134  40.761  34.029  0.00  0.00     0.053 C 
ATOM     13  H5  MOL d         -30.873  40.171  34.591  0.00  0.00     0.082 H 
ATOM     14  H6  MOL d         -30.634  41.621  33.557  0.00  0.00     0.082 H 
BRANCH  12  15
ATOM     15  C3  MOL d         -29.667  39.892  32.919  0.00  0.00    -0.032 A 
ATOM     16  C2  MOL d         -29.917  40.197  31.569  0.00  0.00    -0.075 A 
ATOM     17  C1  MOL d         -29.408  39.325  30.565  0.00  0.00    -0.080 A 
ATOM     18  H2  MOL d         -30.487  41.078  31.298  0.00  0.00     0.084 H 
ATOM     19  C6  MOL d         -28.682  38.158  30.935  0.00  0.00    -0.058 A 
ATOM     20  H1  MOL d         -29.572  39.551  29.517  0.00  0.00     0.083 H 
ATOM     21  C5  MOL d         -28.461  37.873  32.295  0.00  0.00     0.026 A 
ATOM     22  H4  MOL d         -28.301  37.491  30.170  0.00  0.00     0.086 H 
ATOM     23  C4  MOL d         -28.946  38.742  33.281  0.00  0.00    -0.050 A 
ATOM     24  H3  MOL d         -28.764  38.526  34.328  0.00  0.00     0.087 H 
BRANCH  21  25
ATOM     25  N11 MOL d         -27.787  36.763  32.673  0.00  0.00    -0.399 N 
ATOM     26  H7  MOL d         -26.912  36.504  32.195  0.00  0.00     0.156 HD
ATOM     27  H8  MOL d         -28.149  36.176  33.439  0.00  0.00     0.156 HD
ENDBRANCH  21  25
ENDBRANCH  12  15
ENDBRANCH  11  12
ENDBRANCH   8  11
ENDBRANCH   5   7
BRANCH   5  28
ATOM     28  CB  MOL d         -26.943  43.690  32.009  0.00  0.00    -0.014 C 
ATOM     29  H11 MOL d         -26.317  44.560  31.760  0.00  0.00     0.043 H 
ATOM     30  H12 MOL d         -27.645  43.496  31.185  0.00  0.00     0.043 H 
BRANCH  28  31
ATOM     31  CG  MOL d         -26.041  42.471  32.184  0.00  0.00    -0.056 A 
ATOM     32  CD2 MOL d         -26.372  41.220  31.602  0.00  0.00    -0.074 A 
ATOM     33  CE2 MOL d         -25.517  40.102  31.761  0.00  0.00    -0.050 A 
ATOM     34  H14 MOL d         -27.288  41.119  31.031  0.00  0.00     0.084 H 
ATOM     35  CZ  MOL d         -24.322  40.322  32.511  0.00  0.00     0.082 A 
ATOM     36  H16 MOL d         -25.756  39.134  31.336  0.00  0.00     0.087 H 
ATOM     37  CE1 MOL d         -23.978  41.546  33.085  0.00  0.00    -0.050 A 
ATOM     38  CD1 MOL d         -24.839  42.618  32.923  0.00  0.00    -0.074 A 
ATOM     39  H15 MOL d         -23.055  41.656  33.644  0.00  0.00     0.087 H 
ATOM     40  H13 MOL d         -24.593  43.578  33.364  0.00  0.00     0.084 H 
BRANCH  35  41
ATOM     41  OH  MOL d         -23.439  39.246  32.693  0.00  0.00    -0.240 OA
BRANCH  41  42
ATOM     42  P   MOL d         -23.701  37.956  33.457  0.00  0.00     0.427 P 
ATOM     43  O3P MOL d         -23.803  38.291  34.970  0.00  0.00    -0.617 OA
ATOM     44  O2P MOL d         -24.889  37.249  33.010  0.00  0.00    -0.617 OA
ATOM     45  O1P MOL d         -22.542  37.121  33.254  0.00  0.00    -0.617 OA
ENDBRANCH  41  42
ENDBRANCH  35  41
ENDBRANCH  28  31
ENDBRANCH   5  28
ENDBRANCH   1   5
BRANCH   3  46
ATOM     46  CA  MOL d         -30.257  46.616  33.889  0.00  0.00     0.114 C 
BRANCH  46  47
ATOM     47  CB  MOL d         -30.497  46.943  35.406  0.00  0.00    -0.009 C 
ATOM     48  H21 MOL d         -30.288  46.032  35.986  0.00  0.00     0.044 H 
ATOM     49  H22 MOL d         -31.554  47.223  35.529  0.00  0.00     0.044 H 
BRANCH  47  50
ATOM     50  CG  MOL d         -29.640  48.076  35.983  0.00  0.00    -0.055 A 
ATOM     51  CD2 MOL d         -28.244  47.995  35.920  0.00  0.00    -0.074 A 
ATOM     52  CE2 MOL d         -27.407  49.024  36.429  0.00  0.00    -0.050 A 
ATOM     53  H24 MOL d         -27.788  47.121  35.470  0.00  0.00     0.084 H 
ATOM     54  CZ  MOL d         -28.061  50.125  36.996  0.00  0.00     0.082 A 
ATOM     55  H26 MOL d         -26.326  48.962  36.380  0.00  0.00     0.087 H 
ATOM     56  CE1 MOL d         -29.463  50.237  37.069  0.00  0.00    -0.050 A 
ATOM     57  CD1 MOL d         -30.262  49.210  36.564  0.00  0.00    -0.074 A 
ATOM     58  H25 MOL d         -29.919  51.115  37.514  0.00  0.00     0.087 H 
ATOM     59  H23 MOL d         -31.342  49.278  36.615  0.00  0.00     0.084 H 
BRANCH  54  60
ATOM     60  OH  MOL d         -27.233  51.144  37.506  0.00  0.00    -0.240 OA
BRANCH  60  61
ATOM     61  P   MOL d         -27.093  52.600  36.728  0.00  0.00     0.427 P 
ATOM     62  O3P MOL d         -25.680  52.823  36.308  0.00  0.00    -0.617 OA
ATOM     63  O2P MOL d         -27.939  52.581  35.510  0.00  0.00    -0.617 OA
ATOM     64  O1P MOL d         -27.486  53.606  37.731  0.00  0.00    -0.617 OA
ENDBRANCH  60  61
ENDBRANCH  54  60
ENDBRANCH  47  50
ENDBRANCH  46  47
BRANCH  46  65
ATOM     65  C   MOL d         -29.812  47.938  33.213  0.00  0.00     0.246 C 
ATOM     66  O   MOL d         -30.558  48.937  33.220  0.00  0.00    -0.271 OA
ATOM     67  N   MOL d         -28.654  47.956  32.581  0.00  0.00    -0.344 N 
ATOM     68  H27 MOL d         -28.078  47.138  32.557  0.00  0.00     0.163 HD
BRANCH  67  69
ATOM     69  CA  MOL d         -28.228  49.172  31.924  0.00  0.00     0.104 C 
ATOM     70  H28 MOL d         -28.821  50.014  32.312  0.00  0.00     0.090 H 
BRANCH  69  71
ATOM     71  C   MOL d         -28.466  49.033  30.419  0.00  0.00     0.197 C 
ATOM     72  OXT MOL d         -28.574  47.890  29.982  0.00  0.00    -0.646 OA
ATOM     73  O   MOL d         -28.530  50.053  29.662  0.00  0.00    -0.646 OA
ENDBRANCH  69  71
BRANCH  69  74
ATOM     74  CB  MOL d         -26.722  49.459  32.175  0.00  0.00     0.037 C 
ATOM     75  H29 MOL d         -26.631  50.106  33.060  0.00  0.00     0.051 H 
ATOM     76  H30 MOL d         -26.314  49.981  31.296  0.00  0.00     0.051 H 
BRANCH  74  77
ATOM     77  CG  MOL d         -25.876  48.151  32.419  0.00  0.00     0.217 C 
ATOM     78  OD1 MOL d         -25.835  47.636  33.496  0.00  0.00    -0.274 OA
ATOM     79  ND2 MOL d         -25.204  47.685  31.404  0.00  0.00    -0.370 N 
ATOM     80  H31 MOL d         -24.652  46.858  31.508  0.00  0.00     0.159 HD
ATOM     81  H32 MOL d         -25.240  48.155  30.522  0.00  0.00     0.159 HD
ENDBRANCH  74  77
ENDBRANCH  69  74
ENDBRANCH  67  69
ENDBRANCH  46  65
BRANCH  46  82
ATOM     82  CH3 MOL d         -31.596  45.946  33.477  0.00  0.00    -0.044 C 
ATOM     83  H18 MOL d         -31.403  44.915  33.147  0.00  0.00     0.031 H 
ATOM     84  H19 MOL d         -32.054  46.515  32.654  0.00  0.00     0.031 H 
ATOM     85  H20 MOL d         -32.280  45.933  34.338  0.00  0.00     0.031 H 
ENDBRANCH  46  82
ENDBRANCH   3  46
TORSDOF 21
ENDMDL
MODEL 2
REMARK VINA RESULT:      -5.7      1.734      2.674
REMARK  21 active torsions:
REMARK  status: ('A' for Active; 'I' for Inactive)
REMARK    1  A    between atoms: C12_6  and  C3_3 
REMARK    2  A    between atoms: O13_7  and  C12_6 
REMARK    3  A    between atoms: C16_8  and  O13_7 
REMARK    4  A    between atoms: C5_11  and  N11_10 
REMARK    5  A    between atoms: CA_13  and  N_12 
REMARK    6  A    between atoms: CA_13  and  CB_16 
REMARK    7  A    between atoms: C_14  and  CA_13 
REMARK       I    between atoms: N_28  and  C_14 
REMARK    8  A    between atoms: CB_16  and  CG_17 
REMARK    9  A    between atoms: CZ_22  and  OH_23 
REMARK   10  A    between atoms: OH_23  and  P_24 
REMARK   11  A    between atoms: CA_29  and  N_28 
REMARK   12  A    between atoms: CA_29  and  CB_33 
REMARK   13  A    between atoms: C_31  and  CA_29 
REMARK   14  A    between atoms: CA_29  and  CH3_30 
REMARK       I    between atoms: C_31  and  N_45 
REMARK   15  A    between atoms: CB_33  and  CG_34 
REMARK   16  A    between atoms: CZ_39  and  OH_40 
REMARK   17  A    between atoms: OH_40  and  P_41 
REMARK   18  A    between atoms: N_45  and  CA_46 
REMARK   19  A    between atoms: CA_46  and  C_47 
REMARK   20  A    between atoms: CA_46  and  CB_49 
REMARK   21  A    between atoms: CB_49  and  CG_50 
REMARK       I    between atoms: CG_50  and  ND2_52 
ROOT
ATOM      1  C   MOL d         -28.764  44.726  33.535  0.00  0.00     0.241 C 
ATOM      2  O   MOL d         -29.968  44.868  33.879  0.00  0.00    -0.271 OA
ATOM      3  N   MOL d         -27.863  45.662  33.521  0.00  0.00    -0.341 N 
ATOM      4  H17 MOL d         -26.918  45.422  33.301  0.00  0.00     0.163 HD
ENDROOT
BRANCH   1   5
ATOM      5  CA  MOL d         -28.126  43.408  33.247  0.00  0.00     0.094 C 
ATOM      6  H10 MOL d         -28.032  42.774  34.141  0.00  0.00     0.088 H 
BRANCH   5   7
ATOM      7  N   MOL d         -29.030  42.858  32.310  0.00  0.00    -0.335 N 
ATOM      8  C16 MOL d         -29.428  43.394  31.181  0.00  0.00     0.292 C 
ATOM      9  O18 MOL d         -28.566  44.190  30.463  0.00  0.00    -0.143 OA
ATOM     10  H9  MOL d         -29.407  41.958  32.532  0.00  0.00     0.164 HD
BRANCH   8  11
ATOM     11  O13 MOL d         -30.393  42.696  30.650  0.00  0.00    -0.310 OA
BRANCH  11  12
ATOM     12  C12 MOL d         -30.675  41.293  30.773  0.00  0.00     0.053 C 
ATOM     13  H5  MOL d         -31.638  41.128  30.268  0.00  0.00     0.082 H 
ATOM     14  H6  MOL d         -29.878  40.769  30.223  0.00  0.00     0.082 H 
BRANCH  12  15
ATOM     15  C3  MOL d         -30.778  40.623  32.094  0.00  0.00    -0.032 A 
ATOM     16  C2  MOL d         -31.870  40.825  32.956  0.00  0.00    -0.075 A 
ATOM     17  C1  MOL d         -31.905  40.120  34.194  0.00  0.00    -0.080 A 
ATOM     18  H2  MOL d         -32.670  41.504  32.684  0.00  0.00     0.084 H 
ATOM     19  C6  MOL d         -30.836  39.250  34.549  0.00  0.00    -0.058 A 
ATOM     20  H1  MOL d         -32.747  40.245  34.865  0.00  0.00     0.083 H 
ATOM     21  C5  MOL d         -29.749  39.081  33.671  0.00  0.00     0.026 A 
ATOM     22  H4  MOL d         -30.859  38.719  35.494  0.00  0.00     0.086 H 
ATOM     23  C4  MOL d         -29.726  39.760  32.445  0.00  0.00    -0.050 A 
ATOM     24  H3  MOL d         -28.894  39.618  31.765  0.00  0.00     0.087 H 
BRANCH  21  25
ATOM     25  N11 MOL d         -28.715  38.271  33.991  0.00  0.00    -0.399 N 
ATOM     26  H7  MOL d         -28.798  37.253  33.860  0.00  0.00     0.156 HD
ATOM     27  H8  MOL d         -27.843  38.672  34.366  0.00  0.00     0.156 HD
ENDBRANCH  21  25
ENDBRANCH  12  15
ENDBRANCH  11  12
ENDBRANCH   8  11
ENDBRANCH   5   7
BRANCH   5  28
ATOM     28  CB  MOL d         -26.723  43.701  32.638  0.00  0.00    -0.014 C 
ATOM     29  H11 MOL d         -26.238  44.491  33.230  0.00  0.00     0.043 H 
ATOM     30  H12 MOL d         -26.852  44.046  31.601  0.00  0.00     0.043 H 
BRANCH  28  31
ATOM     31  CG  MOL d         -25.825  42.467  32.636  0.00  0.00    -0.056 A 
ATOM     32  CD2 MOL d         -24.518  42.507  33.186  0.00  0.00    -0.074 A 
ATOM     33  CE2 MOL d         -23.702  41.348  33.191  0.00  0.00    -0.050 A 
ATOM     34  H14 MOL d         -24.140  43.431  33.607  0.00  0.00     0.084 H 
ATOM     35  CZ  MOL d         -24.280  40.167  32.635  0.00  0.00     0.082 A 
ATOM     36  H16 MOL d         -22.697  41.359  33.595  0.00  0.00     0.087 H 
ATOM     37  CE1 MOL d         -25.565  40.108  32.096  0.00  0.00    -0.050 A 
ATOM     38  CD1 MOL d         -26.335  41.259  32.094  0.00  0.00    -0.074 A 
ATOM     39  H15 MOL d         -25.953  39.182  31.687  0.00  0.00     0.087 H 
ATOM     40  H13 MOL d         -27.335  41.237  31.676  0.00  0.00     0.084 H 
BRANCH  35  41
ATOM     41  OH  MOL d         -23.513  38.991  32.621  0.00  0.00    -0.240 OA
BRANCH  41  42
ATOM     42  P   MOL d         -23.648  37.790  33.547  0.00  0.00     0.427 P 
ATOM     43  O3P MOL d         -23.623  38.294  35.015  0.00  0.00    -0.617 OA
ATOM     44  O2P MOL d         -24.841  36.998  33.299  0.00  0.00    -0.617 OA
ATOM     45  O1P MOL d         -22.478  36.975  33.327  0.00  0.00    -0.617 OA
ENDBRANCH  41  42
ENDBRANCH  35  41
ENDBRANCH  28  31
ENDBRANCH   5  28
ENDBRANCH   1   5
BRANCH   3  46
ATOM     46  CA  MOL d         -28.186  47.024  33.811  0.00  0.00     0.114 C 
BRANCH  46  47
ATOM     47  CB  MOL d         -26.776  47.629  34.146  0.00  0.00    -0.009 C 
ATOM     48  H21 MOL d         -26.259  47.828  33.196  0.00  0.00     0.044 H 
ATOM     49  H22 MOL d         -26.213  46.878  34.720  0.00  0.00     0.044 H 
BRANCH  47  50
ATOM     50  CG  MOL d         -26.789  48.930  34.958  0.00  0.00    -0.055 A 
ATOM     51  CD2 MOL d         -26.882  50.161  34.299  0.00  0.00    -0.074 A 
ATOM     52  CE2 MOL d         -26.911  51.393  35.006  0.00  0.00    -0.050 A 
ATOM     53  H24 MOL d         -26.934  50.175  33.216  0.00  0.00     0.084 H 
ATOM     54  CZ  MOL d         -26.841  51.302  36.402  0.00  0.00     0.082 A 
ATOM     55  H26 MOL d         -26.983  52.347  34.496  0.00  0.00     0.087 H 
ATOM     56  CE1 MOL d         -26.752  50.078  37.093  0.00  0.00    -0.050 A 
ATOM     57  CD1 MOL d         -26.723  48.882  36.373  0.00  0.00    -0.074 A 
ATOM     58  H25 MOL d         -26.707  50.064  38.177  0.00  0.00     0.087 H 
ATOM     59  H23 MOL d         -26.651  47.932  36.888  0.00  0.00     0.084 H 
BRANCH  54  60
ATOM     60  OH  MOL d         -26.864  52.522  37.105  0.00  0.00    -0.240 OA
BRANCH  60  61
ATOM     61  P   MOL d         -28.068  53.632  36.849  0.00  0.00     0.427 P 
ATOM     62  O3P MOL d         -29.315  52.943  36.410  0.00  0.00    -0.617 OA
ATOM     63  O2P MOL d         -28.355  54.338  38.120  0.00  0.00    -0.617 OA
ATOM     64  O1P MOL d         -27.563  54.498  35.767  0.00  0.00    -0.617 OA
ENDBRANCH  60  61
ENDBRANCH  54  60
ENDBRANCH  47  50
ENDBRANCH  46  47
BRANCH  46  65
ATOM     65  C   MOL d         -28.718  47.790  32.573  0.00  0.00     0.246 C 
ATOM     66  O   MOL d         -29.383  48.836  32.712  0.00  0.00    -0.271 OA
ATOM     67  N   MOL d         -28.498  47.274  31.379  0.00  0.00    -0.344 N 
ATOM     68  H27 MOL d         -27.988  46.419  31.283  0.00  0.00     0.163 HD
BRANCH  67  69
ATOM     69  CA  MOL d         -29.004  47.961  30.211  0.00  0.00     0.104 C 
ATOM     70  H28 MOL d         -29.151  49.023  30.456  0.00  0.00     0.090 H 
BRANCH  69  71
ATOM     71  C   MOL d         -30.344  47.340  29.812  0.00  0.00     0.197 C 
ATOM     72  OXT MOL d         -30.828  46.525  30.593  0.00  0.00    -0.646 OA
ATOM     73  O   MOL d         -30.915  47.646  28.717  0.00  0.00    -0.646 OA
ENDBRANCH  69  71
BRANCH  69  74
ATOM     74  CB  MOL d         -28.019  47.852  29.014  0.00  0.00     0.037 C 
ATOM     75  H29 MOL d         -28.466  48.357  28.145  0.00  0.00     0.051 H 
ATOM     76  H30 MOL d         -27.867  46.788  28.781  0.00  0.00     0.051 H 
BRANCH  74  77
ATOM     77  CG  MOL d         -26.615  48.508  29.308  0.00  0.00     0.217 C 
ATOM     78  OD1 MOL d         -26.470  49.693  29.279  0.00  0.00    -0.274 OA
ATOM     79  ND2 MOL d         -25.624  47.695  29.547  0.00  0.00    -0.370 N 
ATOM     80  H31 MOL d         -24.713  48.061  29.739  0.00  0.00     0.159 HD
ATOM     81  H32 MOL d         -25.774  46.707  29.538  0.00  0.00     0.159 HD
ENDBRANCH  74  77
ENDBRANCH  69  74
ENDBRANCH  67  69
ENDBRANCH  46  65
BRANCH  46  82
ATOM     82  CH3 MOL d         -28.928  47.135  35.171  0.00  0.00    -0.044 C 
ATOM     83  H18 MOL d         -29.253  48.174  35.327  0.00  0.00     0.031 H 
ATOM     84  H19 MOL d         -28.250  46.836  35.984  0.00  0.00     0.031 H 
ATOM     85  H20 MOL d         -29.807  46.474  35.164  0.00  0.00     0.031 H 
ENDBRANCH  46  82
ENDBRANCH   3  46
TORSDOF 21
ENDMDL
MODEL 3
REMARK VINA RESULT:      -5.4      1.760      2.706
REMARK  21 active torsions:
REMARK  status: ('A' for Active; 'I' for Inactive)
REMARK    1  A    between atoms: C12_6  and  C3_3 
REMARK    2  A    between atoms: O13_7  and  C12_6 
REMARK    3  A    between atoms: C16_8  and  O13_7 
REMARK    4  A    between atoms: C5_11  and  N11_10 
REMARK    5  A    between atoms: CA_13  and  N_12 
REMARK    6  A    between atoms: CA_13  and  CB_16 
REMARK    7  A    between atoms: C_14  and  CA_13 
REMARK       I    between atoms: N_28  and  C_14 
REMARK    8  A    between atoms: CB_16  and  CG_17 
REMARK    9  A    between atoms: CZ_22  and  OH_23 
REMARK   10  A    between atoms: OH_23  and  P_24 
REMARK   11  A    between atoms: CA_29  and  N_28 
REMARK   12  A    between atoms: CA_29  and  CB_33 
REMARK   13  A    between atoms: C_31  and  CA_29 
REMARK   14  A    between atoms: CA_29  and  CH3_30 
REMARK       I    between atoms: C_31  and  N_45 
REMARK   15  A    between atoms: CB_33  and  CG_34 
REMARK   16  A    between atoms: CZ_39  and  OH_40 
REMARK   17  A    between atoms: OH_40  and  P_41 
REMARK   18  A    between atoms: N_45  and  CA_46 
REMARK   19  A    between atoms: CA_46  and  C_47 
REMARK   20  A    between atoms: CA_46  and  CB_49 
REMARK   21  A    between atoms: CB_49  and  CG_50 
REMARK       I    between atoms: CG_50  and  ND2_52 
ROOT
ATOM      1  C   MOL d         -29.448  44.106  33.326  0.00  0.00     0.241 C 
ATOM      2  O   MOL d         -30.706  44.164  33.347  0.00  0.00    -0.271 OA
ATOM      3  N   MOL d         -28.638  44.975  33.851  0.00  0.00    -0.341 N 
ATOM      4  H17 MOL d         -27.656  44.792  33.842  0.00  0.00     0.163 HD
ENDROOT
BRANCH   1   5
ATOM      5  CA  MOL d         -28.672  42.927  32.838  0.00  0.00     0.094 C 
ATOM      6  H10 MOL d         -28.636  42.107  33.570  0.00  0.00     0.088 H 
BRANCH   5   7
ATOM      7  N   MOL d         -29.407  42.565  31.686  0.00  0.00    -0.335 N 
ATOM      8  C16 MOL d         -29.640  43.305  30.628  0.00  0.00     0.292 C 
ATOM      9  O18 MOL d         -28.696  44.217  30.214  0.00  0.00    -0.143 OA
ATOM     10  H9  MOL d         -29.792  41.642  31.677  0.00  0.00     0.164 HD
BRANCH   8  11
ATOM     11  O13 MOL d         -30.493  42.723  29.833  0.00  0.00    -0.310 OA
BRANCH  11  12
ATOM     12  C12 MOL d         -30.263  41.736  28.815  0.00  0.00     0.053 C 
ATOM     13  H5  MOL d         -31.248  41.313  28.568  0.00  0.00     0.082 H 
ATOM     14  H6  MOL d         -29.867  42.278  27.944  0.00  0.00     0.082 H 
BRANCH  12  15
ATOM     15  C3  MOL d         -29.357  40.579  29.031  0.00  0.00    -0.032 A 
ATOM     16  C2  MOL d         -28.033  40.562  28.556  0.00  0.00    -0.075 A 
ATOM     17  C1  MOL d         -27.221  39.425  28.832  0.00  0.00    -0.080 A 
ATOM     18  H2  MOL d         -27.638  41.399  27.991  0.00  0.00     0.084 H 
ATOM     19  C6  MOL d         -27.760  38.323  29.553  0.00  0.00    -0.058 A 
ATOM     20  H1  MOL d         -26.192  39.399  28.492  0.00  0.00     0.083 H 
ATOM     21  C5  MOL d         -29.093  38.364  30.002  0.00  0.00     0.026 A 
ATOM     22  H4  MOL d         -27.144  37.454  29.757  0.00  0.00     0.086 H 
ATOM     23  C4  MOL d         -29.884  39.492  29.747  0.00  0.00    -0.050 A 
ATOM     24  H3  MOL d         -30.907  39.525  30.105  0.00  0.00     0.087 H 
BRANCH  21  25
ATOM     25  N11 MOL d         -29.632  37.324  30.678  0.00  0.00    -0.399 N 
ATOM     26  H7  MOL d         -29.515  37.257  31.699  0.00  0.00     0.156 HD
ATOM     27  H8  MOL d         -30.160  36.598  30.171  0.00  0.00     0.156 HD
ENDBRANCH  21  25
ENDBRANCH  12  15
ENDBRANCH  11  12
ENDBRANCH   8  11
ENDBRANCH   5   7
BRANCH   5  28
ATOM     28  CB  MOL d         -27.235  43.427  32.510  0.00  0.00    -0.014 C 
ATOM     29  H11 MOL d         -26.952  44.199  33.242  0.00  0.00     0.043 H 
ATOM     30  H12 MOL d         -27.234  43.863  31.500  0.00  0.00     0.043 H 
BRANCH  28  31
ATOM     31  CG  MOL d         -26.206  42.302  32.561  0.00  0.00    -0.056 A 
ATOM     32  CD2 MOL d         -24.895  42.523  33.057  0.00  0.00    -0.074 A 
ATOM     33  CE2 MOL d         -23.956  41.464  33.112  0.00  0.00    -0.050 A 
ATOM     34  H14 MOL d         -24.610  43.512  33.396  0.00  0.00     0.084 H 
ATOM     35  CZ  MOL d         -24.415  40.189  32.662  0.00  0.00     0.082 A 
ATOM     36  H16 MOL d         -22.946  41.613  33.475  0.00  0.00     0.087 H 
ATOM     37  CE1 MOL d         -25.702  39.951  32.177  0.00  0.00    -0.050 A 
ATOM     38  CD1 MOL d         -26.594  41.008  32.125  0.00  0.00    -0.074 A 
ATOM     39  H15 MOL d         -25.997  38.961  31.850  0.00  0.00     0.087 H 
ATOM     40  H13 MOL d         -27.598  40.847  31.747  0.00  0.00     0.084 H 
BRANCH  35  41
ATOM     41  OH  MOL d         -23.524  39.106  32.701  0.00  0.00    -0.240 OA
BRANCH  41  42
ATOM     42  P   MOL d         -23.662  37.825  33.512  0.00  0.00     0.427 P 
ATOM     43  O3P MOL d         -23.710  38.198  35.018  0.00  0.00    -0.617 OA
ATOM     44  O2P MOL d         -24.823  37.030  33.146  0.00  0.00    -0.617 OA
ATOM     45  O1P MOL d         -22.463  37.060  33.272  0.00  0.00    -0.617 OA
ENDBRANCH  41  42
ENDBRANCH  35  41
ENDBRANCH  28  31
ENDBRANCH   5  28
ENDBRANCH   1   5
BRANCH   3  46
ATOM     46  CA  MOL d         -29.114  46.187  34.442  0.00  0.00     0.114 C 
BRANCH  46  47
ATOM     47  CB  MOL d         -27.824  46.732  35.153  0.00  0.00    -0.009 C 
ATOM     48  H21 MOL d         -27.058  46.901  34.382  0.00  0.00     0.044 H 
ATOM     49  H22 MOL d         -27.474  45.960  35.855  0.00  0.00     0.044 H 
BRANCH  47  50
ATOM     50  CG  MOL d         -28.000  48.038  35.937  0.00  0.00    -0.055 A 
ATOM     51  CD2 MOL d         -26.885  48.831  36.227  0.00  0.00    -0.074 A 
ATOM     52  CE2 MOL d         -26.997  50.057  36.938  0.00  0.00    -0.050 A 
ATOM     53  H24 MOL d         -25.905  48.502  35.900  0.00  0.00     0.084 H 
ATOM     54  CZ  MOL d         -28.291  50.423  37.331  0.00  0.00     0.082 A 
ATOM     55  H26 MOL d         -26.133  50.672  37.163  0.00  0.00     0.087 H 
ATOM     56  CE1 MOL d         -29.433  49.648  37.049  0.00  0.00    -0.050 A 
ATOM     57  CD1 MOL d         -29.293  48.447  36.351  0.00  0.00    -0.074 A 
ATOM     58  H25 MOL d         -30.413  49.981  37.371  0.00  0.00     0.087 H 
ATOM     59  H23 MOL d         -30.160  47.837  36.128  0.00  0.00     0.084 H 
BRANCH  54  60
ATOM     60  OH  MOL d         -28.404  51.634  38.041  0.00  0.00    -0.240 OA
BRANCH  60  61
ATOM     61  P   MOL d         -28.529  53.082  37.244  0.00  0.00     0.427 P 
ATOM     62  O3P MOL d         -27.316  53.911  37.493  0.00  0.00    -0.617 OA
ATOM     63  O2P MOL d         -28.622  52.826  35.787  0.00  0.00    -0.617 OA
ATOM     64  O1P MOL d         -29.715  53.735  37.828  0.00  0.00    -0.617 OA
ENDBRANCH  60  61
ENDBRANCH  54  60
ENDBRANCH  47  50
ENDBRANCH  46  47
BRANCH  46  65
ATOM     65  C   MOL d         -29.524  47.247  33.389  0.00  0.00     0.246 C 
ATOM     66  O   MOL d         -30.713  47.606  33.279  0.00  0.00    -0.271 OA
ATOM     67  N   MOL d         -28.593  47.711  32.577  0.00  0.00    -0.344 N 
ATOM     68  H27 MOL d         -27.648  47.393  32.656  0.00  0.00     0.163 HD
BRANCH  67  69
ATOM     69  CA  MOL d         -28.957  48.685  31.571  0.00  0.00     0.104 C 
ATOM     70  H28 MOL d         -29.996  48.504  31.259  0.00  0.00     0.090 H 
BRANCH  69  71
ATOM     71  C   MOL d         -28.028  48.525  30.366  0.00  0.00     0.197 C 
ATOM     72  OXT MOL d         -28.163  47.502  29.699  0.00  0.00    -0.646 OA
ATOM     73  O   MOL d         -27.153  49.403  30.084  0.00  0.00    -0.646 OA
ENDBRANCH  69  71
BRANCH  69  74
ATOM     74  CB  MOL d         -28.838  50.137  32.113  0.00  0.00     0.037 C 
ATOM     75  H29 MOL d         -28.101  50.679  31.503  0.00  0.00     0.051 H 
ATOM     76  H30 MOL d         -28.491  50.093  33.156  0.00  0.00     0.051 H 
BRANCH  74  77
ATOM     77  CG  MOL d         -30.203  50.925  32.071  0.00  0.00     0.217 C 
ATOM     78  OD1 MOL d         -30.371  51.825  31.303  0.00  0.00    -0.274 OA
ATOM     79  ND2 MOL d         -31.116  50.570  32.931  0.00  0.00    -0.370 N 
ATOM     80  H31 MOL d         -31.999  51.039  32.945  0.00  0.00     0.159 HD
ATOM     81  H32 MOL d         -30.934  49.828  33.576  0.00  0.00     0.159 HD
ENDBRANCH  74  77
ENDBRANCH  69  74
ENDBRANCH  67  69
ENDBRANCH  46  65
BRANCH  46  82
ATOM     82  CH3 MOL d         -30.052  45.882  35.642  0.00  0.00    -0.044 C 
ATOM     83  H18 MOL d         -30.983  46.458  35.536  0.00  0.00     0.031 H 
ATOM     84  H19 MOL d         -29.551  46.164  36.580  0.00  0.00     0.031 H 
ATOM     85  H20 MOL d         -30.286  44.807  35.660  0.00  0.00     0.031 H 
ENDBRANCH  46  82
ENDBRANCH   3  46
TORSDOF 21
ENDMDL
MODEL 4
REMARK VINA RESULT:      -5.3      1.914      3.176
REMARK  21 active torsions:
REMARK  status: ('A' for Active; 'I' for Inactive)
REMARK    1  A    between atoms: C12_6  and  C3_3 
REMARK    2  A    between atoms: O13_7  and  C12_6 
REMARK    3  A    between atoms: C16_8  and  O13_7 
REMARK    4  A    between atoms: C5_11  and  N11_10 
REMARK    5  A    between atoms: CA_13  and  N_12 
REMARK    6  A    between atoms: CA_13  and  CB_16 
REMARK    7  A    between atoms: C_14  and  CA_13 
REMARK       I    between atoms: N_28  and  C_14 
REMARK    8  A    between atoms: CB_16  and  CG_17 
REMARK    9  A    between atoms: CZ_22  and  OH_23 
REMARK   10  A    between atoms: OH_23  and  P_24 
REMARK   11  A    between atoms: CA_29  and  N_28 
REMARK   12  A    between atoms: CA_29  and  CB_33 
REMARK   13  A    between atoms: C_31  and  CA_29 
REMARK   14  A    between atoms: CA_29  and  CH3_30 
REMARK       I    between atoms: C_31  and  N_45 
REMARK   15  A    between atoms: CB_33  and  CG_34 
REMARK   16  A    between atoms: CZ_39  and  OH_40 
REMARK   17  A    between atoms: OH_40  and  P_41 
REMARK   18  A    between atoms: N_45  and  CA_46 
REMARK   19  A    between atoms: CA_46  and  C_47 
REMARK   20  A    between atoms: CA_46  and  CB_49 
REMARK   21  A    between atoms: CB_49  and  CG_50 
REMARK       I    between atoms: CG_50  and  ND2_52 
ROOT
ATOM      1  C   MOL d         -28.762  44.774  33.250  0.00  0.00     0.241 C 
ATOM      2  O   MOL d         -29.988  44.918  33.505  0.00  0.00    -0.271 OA
ATOM      3  N   MOL d         -27.842  45.677  33.410  0.00  0.00    -0.341 N 
ATOM      4  H17 MOL d         -26.887  45.432  33.247  0.00  0.00     0.163 HD
ENDROOT
BRANCH   1   5
ATOM      5  CA  MOL d         -28.131  43.473  32.880  0.00  0.00     0.094 C 
ATOM      6  H10 MOL d         -28.318  42.682  33.621  0.00  0.00     0.088 H 
BRANCH   5   7
ATOM      7  N   MOL d         -28.766  43.194  31.648  0.00  0.00    -0.335 N 
ATOM      8  C16 MOL d         -29.212  44.061  30.770  0.00  0.00     0.292 C 
ATOM      9  O18 MOL d         -28.559  45.261  30.605  0.00  0.00    -0.143 OA
ATOM     10  H9  MOL d         -28.888  42.228  31.420  0.00  0.00     0.164 HD
BRANCH   8  11
ATOM     11  O13 MOL d         -29.894  43.464  29.833  0.00  0.00    -0.310 OA
BRANCH  11  12
ATOM     12  C12 MOL d         -29.562  42.292  29.073  0.00  0.00     0.053 C 
ATOM     13  H5  MOL d         -30.385  42.146  28.357  0.00  0.00     0.082 H 
ATOM     14  H6  MOL d         -28.638  42.531  28.525  0.00  0.00     0.082 H 
BRANCH  12  15
ATOM     15  C3  MOL d         -29.334  40.973  29.717  0.00  0.00    -0.032 A 
ATOM     16  C2  MOL d         -30.205  40.451  30.689  0.00  0.00    -0.075 A 
ATOM     17  C1  MOL d         -29.928  39.164  31.236  0.00  0.00    -0.080 A 
ATOM     18  H2  MOL d         -31.070  41.015  31.016  0.00  0.00     0.084 H 
ATOM     19  C6  MOL d         -28.775  38.445  30.815  0.00  0.00    -0.058 A 
ATOM     20  H1  MOL d         -30.597  38.734  31.973  0.00  0.00     0.083 H 
ATOM     21  C5  MOL d         -27.914  39.002  29.851  0.00  0.00     0.026 A 
ATOM     22  H4  MOL d         -28.561  37.469  31.237  0.00  0.00     0.086 H 
ATOM     23  C4  MOL d         -28.199  40.258  29.300  0.00  0.00    -0.050 A 
ATOM     24  H3  MOL d         -27.540  40.679  28.549  0.00  0.00     0.087 H 
BRANCH  21  25
ATOM     25  N11 MOL d         -26.805  38.343  29.445  0.00  0.00    -0.399 N 
ATOM     26  H7  MOL d         -26.108  38.033  30.138  0.00  0.00     0.156 HD
ATOM     27  H8  MOL d         -26.656  38.152  28.444  0.00  0.00     0.156 HD
ENDBRANCH  21  25
ENDBRANCH  12  15
ENDBRANCH  11  12
ENDBRANCH   8  11
ENDBRANCH   5   7
BRANCH   5  28
ATOM     28  CB  MOL d         -26.603  43.730  32.731  0.00  0.00    -0.014 C 
ATOM     29  H11 MOL d         -26.266  44.358  33.570  0.00  0.00     0.043 H 
ATOM     30  H12 MOL d         -26.423  44.259  31.783  0.00  0.00     0.043 H 
BRANCH  28  31
ATOM     31  CG  MOL d         -25.796  42.435  32.732  0.00  0.00    -0.056 A 
ATOM     32  CD2 MOL d         -24.421  42.423  33.079  0.00  0.00    -0.074 A 
ATOM     33  CE2 MOL d         -23.690  41.210  33.090  0.00  0.00    -0.050 A 
ATOM     34  H14 MOL d         -23.925  43.351  33.339  0.00  0.00     0.084 H 
ATOM     35  CZ  MOL d         -24.420  40.030  32.753  0.00  0.00     0.082 A 
ATOM     36  H16 MOL d         -22.636  41.179  33.341  0.00  0.00     0.087 H 
ATOM     37  CE1 MOL d         -25.773  40.022  32.415  0.00  0.00    -0.050 A 
ATOM     38  CD1 MOL d         -26.459  41.224  32.402  0.00  0.00    -0.074 A 
ATOM     39  H15 MOL d         -26.277  39.094  32.169  0.00  0.00     0.087 H 
ATOM     40  H13 MOL d         -27.511  41.241  32.137  0.00  0.00     0.084 H 
BRANCH  35  41
ATOM     41  OH  MOL d         -23.741  38.801  32.754  0.00  0.00    -0.240 OA
BRANCH  41  42
ATOM     42  P   MOL d         -23.963  37.625  33.694  0.00  0.00     0.427 P 
ATOM     43  O3P MOL d         -25.491  37.395  33.844  0.00  0.00    -0.617 OA
ATOM     44  O2P MOL d         -23.304  36.404  33.261  0.00  0.00    -0.617 OA
ATOM     45  O1P MOL d         -23.436  38.024  34.976  0.00  0.00    -0.617 OA
ENDBRANCH  41  42
ENDBRANCH  35  41
ENDBRANCH  28  31
ENDBRANCH   5  28
ENDBRANCH   1   5
BRANCH   3  46
ATOM     46  CA  MOL d         -28.158  47.012  33.813  0.00  0.00     0.114 C 
BRANCH  46  47
ATOM     47  CB  MOL d         -26.743  47.586  34.177  0.00  0.00    -0.009 C 
ATOM     48  H21 MOL d         -26.211  47.798  33.238  0.00  0.00     0.044 H 
ATOM     49  H22 MOL d         -26.199  46.813  34.740  0.00  0.00     0.044 H 
BRANCH  47  50
ATOM     50  CG  MOL d         -26.744  48.869  35.018  0.00  0.00    -0.055 A 
ATOM     51  CD2 MOL d         -26.825  50.115  34.387  0.00  0.00    -0.074 A 
ATOM     52  CE2 MOL d         -26.844  51.331  35.122  0.00  0.00    -0.050 A 
ATOM     53  H24 MOL d         -26.877  50.154  33.305  0.00  0.00     0.084 H 
ATOM     54  CZ  MOL d         -26.775  51.208  36.516  0.00  0.00     0.082 A 
ATOM     55  H26 MOL d         -26.907  52.297  34.633  0.00  0.00     0.087 H 
ATOM     56  CE1 MOL d         -26.697  49.968  37.179  0.00  0.00    -0.050 A 
ATOM     57  CD1 MOL d         -26.679  48.789  36.432  0.00  0.00    -0.074 A 
ATOM     58  H25 MOL d         -26.653  49.930  38.262  0.00  0.00     0.087 H 
ATOM     59  H23 MOL d         -26.616  47.827  36.926  0.00  0.00     0.084 H 
BRANCH  54  60
ATOM     60  OH  MOL d         -26.787  52.413  37.245  0.00  0.00    -0.240 OA
BRANCH  60  61
ATOM     61  P   MOL d         -28.136  53.375  37.282  0.00  0.00     0.427 P 
ATOM     62  O3P MOL d         -27.961  54.536  36.363  0.00  0.00    -0.617 OA
ATOM     63  O2P MOL d         -29.304  52.590  36.816  0.00  0.00    -0.617 OA
ATOM     64  O1P MOL d         -28.230  53.845  38.676  0.00  0.00    -0.617 OA
ENDBRANCH  60  61
ENDBRANCH  54  60
ENDBRANCH  47  50
ENDBRANCH  46  47
BRANCH  46  65
ATOM     65  C   MOL d         -28.704  47.877  32.648  0.00  0.00     0.246 C 
ATOM     66  O   MOL d         -27.927  48.380  31.814  0.00  0.00    -0.271 OA
ATOM     67  N   MOL d         -30.002  48.111  32.601  0.00  0.00    -0.344 N 
ATOM     68  H27 MOL d         -30.612  47.725  33.294  0.00  0.00     0.163 HD
BRANCH  67  69
ATOM     69  CA  MOL d         -30.531  48.934  31.535  0.00  0.00     0.104 C 
ATOM     70  H28 MOL d         -29.763  49.045  30.755  0.00  0.00     0.090 H 
BRANCH  69  71
ATOM     71  C   MOL d         -30.886  50.310  32.100  0.00  0.00     0.197 C 
ATOM     72  OXT MOL d         -31.893  50.848  31.646  0.00  0.00    -0.646 OA
ATOM     73  O   MOL d         -30.162  50.871  32.982  0.00  0.00    -0.646 OA
ENDBRANCH  69  71
BRANCH  69  74
ATOM     74  CB  MOL d         -31.803  48.301  30.904  0.00  0.00     0.037 C 
ATOM     75  H29 MOL d         -31.968  48.758  29.918  0.00  0.00     0.051 H 
ATOM     76  H30 MOL d         -32.661  48.517  31.557  0.00  0.00     0.051 H 
BRANCH  74  77
ATOM     77  CG  MOL d         -31.690  46.739  30.721  0.00  0.00     0.217 C 
ATOM     78  OD1 MOL d         -31.911  45.995  31.629  0.00  0.00    -0.274 OA
ATOM     79  ND2 MOL d         -31.315  46.308  29.549  0.00  0.00    -0.370 N 
ATOM     80  H31 MOL d         -31.228  45.326  29.382  0.00  0.00     0.159 HD
ATOM     81  H32 MOL d         -31.113  46.960  28.818  0.00  0.00     0.159 HD
ENDBRANCH  74  77
ENDBRANCH  69  74
ENDBRANCH  67  69
ENDBRANCH  46  65
BRANCH  46  82
ATOM     82  CH3 MOL d         -28.882  47.014  35.187  0.00  0.00    -0.044 C 
ATOM     83  H18 MOL d         -29.968  46.943  35.029  0.00  0.00     0.031 H 
ATOM     84  H19 MOL d         -28.650  47.947  35.723  0.00  0.00     0.031 H 
ATOM     85  H20 MOL d         -28.542  46.155  35.782  0.00  0.00     0.031 H 
ENDBRANCH  46  82
ENDBRANCH   3  46
TORSDOF 21
ENDMDL
MODEL 5
REMARK VINA RESULT:      -5.2      3.072      8.886
REMARK  21 active torsions:
REMARK  status: ('A' for Active; 'I' for Inactive)
REMARK    1  A    between atoms: C12_6  and  C3_3 
REMARK    2  A    between atoms: O13_7  and  C12_6 
REMARK    3  A    between atoms: C16_8  and  O13_7 
REMARK    4  A    between atoms: C5_11  and  N11_10 
REMARK    5  A    between atoms: CA_13  and  N_12 
REMARK    6  A    between atoms: CA_13  and  CB_16 
REMARK    7  A    between atoms: C_14  and  CA_13 
REMARK       I    between atoms: N_28  and  C_14 
REMARK    8  A    between atoms: CB_16  and  CG_17 
REMARK    9  A    between atoms: CZ_22  and  OH_23 
REMARK   10  A    between atoms: OH_23  and  P_24 
REMARK   11  A    between atoms: CA_29  and  N_28 
REMARK   12  A    between atoms: CA_29  and  CB_33 
REMARK   13  A    between atoms: C_31  and  CA_29 
REMARK   14  A    between atoms: CA_29  and  CH3_30 
REMARK       I    between atoms: C_31  and  N_45 
REMARK   15  A    between atoms: CB_33  and  CG_34 
REMARK   16  A    between atoms: CZ_39  and  OH_40 
REMARK   17  A    between atoms: OH_40  and  P_41 
REMARK   18  A    between atoms: N_45  and  CA_46 
REMARK   19  A    between atoms: CA_46  and  C_47 
REMARK   20  A    between atoms: CA_46  and  CB_49 
REMARK   21  A    between atoms: CB_49  and  CG_50 
REMARK       I    between atoms: CG_50  and  ND2_52 
ROOT
ATOM      1  C   MOL d         -27.460  46.886  33.511  0.00  0.00     0.241 C 
ATOM      2  O   MOL d         -26.479  47.556  33.090  0.00  0.00    -0.271 OA
ATOM      3  N   MOL d         -28.066  45.936  32.865  0.00  0.00    -0.341 N 
ATOM      4  H17 MOL d         -28.787  45.419  33.324  0.00  0.00     0.163 HD
ENDROOT
BRANCH   1   5
ATOM      5  CA  MOL d         -27.984  46.959  34.907  0.00  0.00     0.094 C 
ATOM      6  H10 MOL d         -27.551  46.193  35.566  0.00  0.00     0.088 H 
BRANCH   5   7
ATOM      7  N   MOL d         -27.587  48.261  35.288  0.00  0.00    -0.335 N 
ATOM      8  C16 MOL d         -26.801  48.591  36.286  0.00  0.00     0.292 C 
ATOM      9  O18 MOL d         -25.774  47.752  36.650  0.00  0.00    -0.143 OA
ATOM     10  H9  MOL d         -27.945  49.014  34.736  0.00  0.00     0.164 HD
BRANCH   8  11
ATOM     11  O13 MOL d         -26.785  49.884  36.456  0.00  0.00    -0.310 OA
BRANCH  11  12
ATOM     12  C12 MOL d         -27.219  50.658  37.585  0.00  0.00     0.053 C 
ATOM     13  H5  MOL d         -27.578  49.936  38.334  0.00  0.00     0.082 H 
ATOM     14  H6  MOL d         -26.324  51.170  37.970  0.00  0.00     0.082 H 
BRANCH  12  15
ATOM     15  C3  MOL d         -28.274  51.696  37.471  0.00  0.00    -0.032 A 
ATOM     16  C2  MOL d         -28.138  52.973  38.043  0.00  0.00    -0.075 A 
ATOM     17  C1  MOL d         -29.186  53.921  37.861  0.00  0.00    -0.080 A 
ATOM     18  H2  MOL d         -27.253  53.232  38.612  0.00  0.00     0.084 H 
ATOM     19  C6  MOL d         -30.354  53.560  37.132  0.00  0.00    -0.058 A 
ATOM     20  H1  MOL d         -29.094  54.918  38.277  0.00  0.00     0.083 H 
ATOM     21  C5  MOL d         -30.467  52.269  36.584  0.00  0.00     0.026 A 
ATOM     22  H4  MOL d         -31.155  54.279  36.999  0.00  0.00     0.086 H 
ATOM     23  C4  MOL d         -29.427  51.345  36.747  0.00  0.00    -0.050 A 
ATOM     24  H3  MOL d         -29.511  50.355  36.314  0.00  0.00     0.087 H 
BRANCH  21  25
ATOM     25  N11 MOL d         -31.572  51.897  35.899  0.00  0.00    -0.399 N 
ATOM     26  H7  MOL d         -32.021  50.991  36.097  0.00  0.00     0.156 HD
ATOM     27  H8  MOL d         -31.966  52.521  35.179  0.00  0.00     0.156 HD
ENDBRANCH  21  25
ENDBRANCH  12  15
ENDBRANCH  11  12
ENDBRANCH   8  11
ENDBRANCH   5   7
BRANCH   5  28
ATOM     28  CB  MOL d         -29.530  46.795  34.825  0.00  0.00    -0.014 C 
ATOM     29  H11 MOL d         -29.870  47.133  33.835  0.00  0.00     0.043 H 
ATOM     30  H12 MOL d         -29.994  47.419  35.604  0.00  0.00     0.043 H 
BRANCH  28  31
ATOM     31  CG  MOL d         -29.969  45.348  35.028  0.00  0.00    -0.056 A 
ATOM     32  CD2 MOL d         -31.100  44.819  34.354  0.00  0.00    -0.074 A 
ATOM     33  CE2 MOL d         -31.486  43.469  34.541  0.00  0.00    -0.050 A 
ATOM     34  H14 MOL d         -31.674  45.454  33.689  0.00  0.00     0.084 H 
ATOM     35  CZ  MOL d         -30.668  42.695  35.419  0.00  0.00     0.082 A 
ATOM     36  H16 MOL d         -32.353  43.048  34.046  0.00  0.00     0.087 H 
ATOM     37  CE1 MOL d         -29.549  43.196  36.085  0.00  0.00    -0.050 A 
ATOM     38  CD1 MOL d         -29.203  44.522  35.891  0.00  0.00    -0.074 A 
ATOM     39  H15 MOL d         -28.963  42.560  36.740  0.00  0.00     0.087 H 
ATOM     40  H13 MOL d         -28.340  44.934  36.403  0.00  0.00     0.084 H 
BRANCH  35  41
ATOM     41  OH  MOL d         -31.005  41.349  35.634  0.00  0.00    -0.240 OA
BRANCH  41  42
ATOM     42  P   MOL d         -30.563  40.144  34.816  0.00  0.00     0.427 P 
ATOM     43  O3P MOL d         -31.423  40.082  33.525  0.00  0.00    -0.617 OA
ATOM     44  O2P MOL d         -29.147  40.157  34.486  0.00  0.00    -0.617 OA
ATOM     45  O1P MOL d         -30.857  38.980  35.615  0.00  0.00    -0.617 OA
ENDBRANCH  41  42
ENDBRANCH  35  41
ENDBRANCH  28  31
ENDBRANCH   5  28
ENDBRANCH   1   5
BRANCH   3  46
ATOM     46  CA  MOL d         -27.729  45.611  31.514  0.00  0.00     0.114 C 
BRANCH  46  47
ATOM     47  CB  MOL d         -28.503  44.261  31.301  0.00  0.00    -0.009 C 
ATOM     48  H21 MOL d         -28.805  44.206  30.245  0.00  0.00     0.044 H 
ATOM     49  H22 MOL d         -29.401  44.282  31.938  0.00  0.00     0.044 H 
BRANCH  47  50
ATOM     50  CG  MOL d         -27.718  42.987  31.635  0.00  0.00    -0.055 A 
ATOM     51  CD2 MOL d         -27.088  42.863  32.877  0.00  0.00    -0.074 A 
ATOM     52  CE2 MOL d         -26.360  41.697  33.239  0.00  0.00    -0.050 A 
ATOM     53  H24 MOL d         -27.156  43.680  33.586  0.00  0.00     0.084 H 
ATOM     54  CZ  MOL d         -26.312  40.679  32.277  0.00  0.00     0.082 A 
ATOM     55  H26 MOL d         -25.871  41.600  34.202  0.00  0.00     0.087 H 
ATOM     56  CE1 MOL d         -26.941  40.773  31.021  0.00  0.00    -0.050 A 
ATOM     57  CD1 MOL d         -27.647  41.931  30.691  0.00  0.00    -0.074 A 
ATOM     58  H25 MOL d         -26.878  39.953  30.315  0.00  0.00     0.087 H 
ATOM     59  H23 MOL d         -28.134  42.022  29.727  0.00  0.00     0.084 H 
BRANCH  54  60
ATOM     60  OH  MOL d         -25.586  39.525  32.632  0.00  0.00    -0.240 OA
BRANCH  60  61
ATOM     61  P   MOL d         -23.933  39.558  32.742  0.00  0.00     0.427 P 
ATOM     62  O3P MOL d         -23.365  38.249  32.311  0.00  0.00    -0.617 OA
ATOM     63  O2P MOL d         -23.408  40.609  31.838  0.00  0.00    -0.617 OA
ATOM     64  O1P MOL d         -23.652  39.783  34.172  0.00  0.00    -0.617 OA
ENDBRANCH  60  61
ENDBRANCH  54  60
ENDBRANCH  47  50
ENDBRANCH  46  47
BRANCH  46  65
ATOM     65  C   MOL d         -28.308  46.622  30.492  0.00  0.00     0.246 C 
ATOM     66  O   MOL d         -28.613  46.256  29.340  0.00  0.00    -0.271 OA
ATOM     67  N   MOL d         -28.410  47.887  30.856  0.00  0.00    -0.344 N 
ATOM     68  H27 MOL d         -28.134  48.173  31.774  0.00  0.00     0.163 HD
BRANCH  67  69
ATOM     69  CA  MOL d         -28.927  48.852  29.911  0.00  0.00     0.104 C 
ATOM     70  H28 MOL d         -29.402  48.316  29.076  0.00  0.00     0.090 H 
BRANCH  69  71
ATOM     71  C   MOL d         -27.768  49.696  29.379  0.00  0.00     0.197 C 
ATOM     72  OXT MOL d         -28.050  50.562  28.553  0.00  0.00    -0.646 OA
ATOM     73  O   MOL d         -26.572  49.497  29.764  0.00  0.00    -0.646 OA
ENDBRANCH  69  71
BRANCH  69  74
ATOM     74  CB  MOL d         -29.976  49.790  30.570  0.00  0.00     0.037 C 
ATOM     75  H29 MOL d         -30.973  49.344  30.443  0.00  0.00     0.051 H 
ATOM     76  H30 MOL d         -29.943  50.764  30.060  0.00  0.00     0.051 H 
BRANCH  74  77
ATOM     77  CG  MOL d         -29.720  50.020  32.109  0.00  0.00     0.217 C 
ATOM     78  OD1 MOL d         -28.612  50.022  32.556  0.00  0.00    -0.274 OA
ATOM     79  ND2 MOL d         -30.771  50.171  32.865  0.00  0.00    -0.370 N 
ATOM     80  H31 MOL d         -30.662  50.319  33.848  0.00  0.00     0.159 HD
ATOM     81  H32 MOL d         -31.686  50.139  32.462  0.00  0.00     0.159 HD
ENDBRANCH  74  77
ENDBRANCH  69  74
ENDBRANCH  67  69
ENDBRANCH  46  65
BRANCH  46  82
ATOM     82  CH3 MOL d         -26.246  45.164  31.409  0.00  0.00    -0.044 C 
ATOM     83  H18 MOL d         -25.608  46.045  31.247  0.00  0.00     0.031 H 
ATOM     84  H19 MOL d         -26.131  44.468  30.565  0.00  0.00     0.031 H 
ATOM     85  H20 MOL d         -25.947  44.663  32.341  0.00  0.00     0.031 H 
ENDBRANCH  46  82
ENDBRANCH   3  46
TORSDOF 21
ENDMDL
MODEL 6
REMARK VINA RESULT:      -4.8      3.389      8.820
REMARK  21 active torsions:
REMARK  status: ('A' for Active; 'I' for Inactive)
REMARK    1  A    between atoms: C12_6  and  C3_3 
REMARK    2  A    between atoms: O13_7  and  C12_6 
REMARK    3  A    between atoms: C16_8  and  O13_7 
REMARK    4  A    between atoms: C5_11  and  N11_10 
REMARK    5  A    between atoms: CA_13  and  N_12 
REMARK    6  A    between atoms: CA_13  and  CB_16 
REMARK    7  A    between atoms: C_14  and  CA_13 
REMARK       I    between atoms: N_28  and  C_14 
REMARK    8  A    between atoms: CB_16  and  CG_17 
REMARK    9  A    between atoms: CZ_22  and  OH_23 
REMARK   10  A    between atoms: OH_23  and  P_24 
REMARK   11  A    between atoms: CA_29  and  N_28 
REMARK   12  A    between atoms: CA_29  and  CB_33 
REMARK   13  A    between atoms: C_31  and  CA_29 
REMARK   14  A    between atoms: CA_29  and  CH3_30 
REMARK       I    between atoms: C_31  and  N_45 
REMARK   15  A    between atoms: CB_33  and  CG_34 
REMARK   16  A    between atoms: CZ_39  and  OH_40 
REMARK   17  A    between atoms: OH_40  and  P_41 
REMARK   18  A    between atoms: N_45  and  CA_46 
REMARK   19  A    between atoms: CA_46  and  C_47 
REMARK   20  A    between atoms: CA_46  and  CB_49 
REMARK   21  A    between atoms: CB_49  and  CG_50 
REMARK       I    between atoms: CG_50  and  ND2_52 
ROOT
ATOM      1  C   MOL d         -28.462  43.244  34.687  0.00  0.00     0.241 C 
ATOM      2  O   MOL d         -27.456  42.612  35.107  0.00  0.00    -0.271 OA
ATOM      3  N   MOL d         -28.643  43.663  33.470  0.00  0.00    -0.341 N 
ATOM      4  H17 MOL d         -29.514  44.089  33.228  0.00  0.00     0.163 HD
ENDROOT
BRANCH   1   5
ATOM      5  CA  MOL d         -29.702  43.469  35.486  0.00  0.00     0.094 C 
ATOM      6  H10 MOL d         -29.744  42.850  36.394  0.00  0.00     0.088 H 
BRANCH   5   7
ATOM      7  N   MOL d         -29.590  44.843  35.797  0.00  0.00    -0.335 N 
ATOM      8  C16 MOL d         -30.566  45.687  36.034  0.00  0.00     0.292 C 
ATOM      9  O18 MOL d         -31.714  45.245  36.649  0.00  0.00    -0.143 OA
ATOM     10  H9  MOL d         -28.661  45.214  35.843  0.00  0.00     0.164 HD
BRANCH   8  11
ATOM     11  O13 MOL d         -30.116  46.908  36.115  0.00  0.00    -0.310 OA
BRANCH  11  12
ATOM     12  C12 MOL d         -28.780  47.400  35.921  0.00  0.00     0.053 C 
ATOM     13  H5  MOL d         -28.106  46.610  36.286  0.00  0.00     0.082 H 
ATOM     14  H6  MOL d         -28.650  47.520  34.835  0.00  0.00     0.082 H 
BRANCH  12  15
ATOM     15  C3  MOL d         -28.310  48.666  36.538  0.00  0.00    -0.032 A 
ATOM     16  C2  MOL d         -26.952  49.030  36.564  0.00  0.00    -0.075 A 
ATOM     17  C1  MOL d         -26.588  50.277  37.149  0.00  0.00    -0.080 A 
ATOM     18  H2  MOL d         -26.196  48.375  36.146  0.00  0.00     0.084 H 
ATOM     19  C6  MOL d         -27.588  51.116  37.716  0.00  0.00    -0.058 A 
ATOM     20  H1  MOL d         -25.549  50.587  37.163  0.00  0.00     0.083 H 
ATOM     21  C5  MOL d         -28.937  50.716  37.688  0.00  0.00     0.026 A 
ATOM     22  H4  MOL d         -27.311  52.062  38.168  0.00  0.00     0.086 H 
ATOM     23  C4  MOL d         -29.295  49.499  37.094  0.00  0.00    -0.050 A 
ATOM     24  H3  MOL d         -30.336  49.199  37.063  0.00  0.00     0.087 H 
BRANCH  21  25
ATOM     25  N11 MOL d         -29.904  51.489  38.232  0.00  0.00    -0.399 N 
ATOM     26  H7  MOL d         -29.716  52.482  38.437  0.00  0.00     0.156 HD
ATOM     27  H8  MOL d         -30.829  51.087  38.442  0.00  0.00     0.156 HD
ENDBRANCH  21  25
ENDBRANCH  12  15
ENDBRANCH  11  12
ENDBRANCH   8  11
ENDBRANCH   5   7
BRANCH   5  28
ATOM     28  CB  MOL d         -30.911  43.154  34.556  0.00  0.00    -0.014 C 
ATOM     29  H11 MOL d         -30.735  43.622  33.576  0.00  0.00     0.043 H 
ATOM     30  H12 MOL d         -31.822  43.576  35.005  0.00  0.00     0.043 H 
BRANCH  28  31
ATOM     31  CG  MOL d         -31.110  41.655  34.356  0.00  0.00    -0.056 A 
ATOM     32  CD2 MOL d         -31.347  41.108  33.068  0.00  0.00    -0.074 A 
ATOM     33  CE2 MOL d         -31.514  39.712  32.897  0.00  0.00    -0.050 A 
ATOM     34  H14 MOL d         -31.400  41.765  32.208  0.00  0.00     0.084 H 
ATOM     35  CZ  MOL d         -31.412  38.914  34.077  0.00  0.00     0.082 A 
ATOM     36  H16 MOL d         -31.709  39.274  31.925  0.00  0.00     0.087 H 
ATOM     37  CE1 MOL d         -31.173  39.433  35.350  0.00  0.00    -0.050 A 
ATOM     38  CD1 MOL d         -31.025  40.803  35.488  0.00  0.00    -0.074 A 
ATOM     39  H15 MOL d         -31.104  38.779  36.211  0.00  0.00     0.087 H 
ATOM     40  H13 MOL d         -30.844  41.228  36.469  0.00  0.00     0.084 H 
BRANCH  35  41
ATOM     41  OH  MOL d         -31.566  37.524  33.959  0.00  0.00    -0.240 OA
BRANCH  41  42
ATOM     42  P   MOL d         -30.531  36.518  33.476  0.00  0.00     0.427 P 
ATOM     43  O3P MOL d         -30.018  36.969  32.082  0.00  0.00    -0.617 OA
ATOM     44  O2P MOL d         -29.419  36.344  34.396  0.00  0.00    -0.617 OA
ATOM     45  O1P MOL d         -31.224  35.263  33.320  0.00  0.00    -0.617 OA
ENDBRANCH  41  42
ENDBRANCH  35  41
ENDBRANCH  28  31
ENDBRANCH   5  28
ENDBRANCH   1   5
BRANCH   3  46
ATOM     46  CA  MOL d         -27.631  43.530  32.469  0.00  0.00     0.114 C 
BRANCH  46  47
ATOM     47  CB  MOL d         -28.111  42.255  31.688  0.00  0.00    -0.009 C 
ATOM     48  H21 MOL d         -28.036  42.469  30.611  0.00  0.00     0.044 H 
ATOM     49  H22 MOL d         -29.163  42.072  31.953  0.00  0.00     0.044 H 
BRANCH  47  50
ATOM     50  CG  MOL d         -27.324  40.969  31.969  0.00  0.00    -0.055 A 
ATOM     51  CD2 MOL d         -27.892  39.965  32.761  0.00  0.00    -0.074 A 
ATOM     52  CE2 MOL d         -27.209  38.750  33.039  0.00  0.00    -0.050 A 
ATOM     53  H24 MOL d         -28.882  40.117  33.175  0.00  0.00     0.084 H 
ATOM     54  CZ  MOL d         -25.934  38.617  32.473  0.00  0.00     0.082 A 
ATOM     55  H26 MOL d         -27.648  37.971  33.652  0.00  0.00     0.087 H 
ATOM     56  CE1 MOL d         -25.340  39.608  31.668  0.00  0.00    -0.050 A 
ATOM     57  CD1 MOL d         -26.032  40.793  31.413  0.00  0.00    -0.074 A 
ATOM     58  H25 MOL d         -24.352  39.452  31.249  0.00  0.00     0.087 H 
ATOM     59  H23 MOL d         -25.588  41.567  30.798  0.00  0.00     0.084 H 
BRANCH  54  60
ATOM     60  OH  MOL d         -25.254  37.416  32.753  0.00  0.00    -0.240 OA
BRANCH  60  61
ATOM     61  P   MOL d         -24.000  37.378  33.835  0.00  0.00     0.427 P 
ATOM     62  O3P MOL d         -22.702  37.257  33.112  0.00  0.00    -0.617 OA
ATOM     63  O2P MOL d         -23.983  38.647  34.602  0.00  0.00    -0.617 OA
ATOM     64  O1P MOL d         -24.238  36.173  34.651  0.00  0.00    -0.617 OA
ENDBRANCH  60  61
ENDBRANCH  54  60
ENDBRANCH  47  50
ENDBRANCH  46  47
BRANCH  46  65
ATOM     65  C   MOL d         -27.633  44.701  31.455  0.00  0.00     0.246 C 
ATOM     66  O   MOL d         -28.298  44.629  30.403  0.00  0.00    -0.271 OA
ATOM     67  N   MOL d         -26.869  45.747  31.709  0.00  0.00    -0.344 N 
ATOM     68  H27 MOL d         -26.317  45.780  32.542  0.00  0.00     0.163 HD
BRANCH  67  69
ATOM     69  CA  MOL d         -26.838  46.843  30.765  0.00  0.00     0.104 C 
ATOM     70  H28 MOL d         -27.094  46.461  29.765  0.00  0.00     0.090 H 
BRANCH  69  71
ATOM     71  C   MOL d         -25.429  47.435  30.737  0.00  0.00     0.197 C 
ATOM     72  OXT MOL d         -25.210  48.371  31.503  0.00  0.00    -0.646 OA
ATOM     73  O   MOL d         -24.538  46.989  29.946  0.00  0.00    -0.646 OA
ENDBRANCH  69  71
BRANCH  69  74
ATOM     74  CB  MOL d         -27.849  47.958  31.153  0.00  0.00     0.037 C 
ATOM     75  H29 MOL d         -27.305  48.757  31.676  0.00  0.00     0.051 H 
ATOM     76  H30 MOL d         -28.604  47.526  31.826  0.00  0.00     0.051 H 
BRANCH  74  77
ATOM     77  CG  MOL d         -28.586  48.583  29.907  0.00  0.00     0.217 C 
ATOM     78  OD1 MOL d         -28.034  49.366  29.193  0.00  0.00    -0.274 OA
ATOM     79  ND2 MOL d         -29.828  48.232  29.719  0.00  0.00    -0.370 N 
ATOM     80  H31 MOL d         -30.340  48.602  28.944  0.00  0.00     0.159 HD
ATOM     81  H32 MOL d         -30.269  47.594  30.351  0.00  0.00     0.159 HD
ENDBRANCH  74  77
ENDBRANCH  69  74
ENDBRANCH  67  69
ENDBRANCH  46  65
BRANCH  46  82
ATOM     82  CH3 MOL d         -26.294  43.051  33.099  0.00  0.00    -0.044 C 
ATOM     83  H18 MOL d         -26.197  41.963  32.968  0.00  0.00     0.031 H 
ATOM     84  H19 MOL d         -26.286  43.293  34.172  0.00  0.00     0.031 H 
ATOM     85  H20 MOL d         -25.453  43.556  32.602  0.00  0.00     0.031 H 
ENDBRANCH  46  82
ENDBRANCH   3  46
TORSDOF 21
ENDMDL
MODEL 7
REMARK VINA RESULT:      -4.7      2.365      8.084
REMARK  21 active torsions:
REMARK  status: ('A' for Active; 'I' for Inactive)
REMARK    1  A    between atoms: C12_6  and  C3_3 
REMARK    2  A    between atoms: O13_7  and  C12_6 
REMARK    3  A    between atoms: C16_8  and  O13_7 
REMARK    4  A    between atoms: C5_11  and  N11_10 
REMARK    5  A    between atoms: CA_13  and  N_12 
REMARK    6  A    between atoms: CA_13  and  CB_16 
REMARK    7  A    between atoms: C_14  and  CA_13 
REMARK       I    between atoms: N_28  and  C_14 
REMARK    8  A    between atoms: CB_16  and  CG_17 
REMARK    9  A    between atoms: CZ_22  and  OH_23 
REMARK   10  A    between atoms: OH_23  and  P_24 
REMARK   11  A    between atoms: CA_29  and  N_28 
REMARK   12  A    between atoms: CA_29  and  CB_33 
REMARK   13  A    between atoms: C_31  and  CA_29 
REMARK   14  A    between atoms: CA_29  and  CH3_30 
REMARK       I    between atoms: C_31  and  N_45 
REMARK   15  A    between atoms: CB_33  and  CG_34 
REMARK   16  A    between atoms: CZ_39  and  OH_40 
REMARK   17  A    between atoms: OH_40  and  P_41 
REMARK   18  A    between atoms: N_45  and  CA_46 
REMARK   19  A    between atoms: CA_46  and  C_47 
REMARK   20  A    between atoms: CA_46  and  CB_49 
REMARK   21  A    between atoms: CB_49  and  CG_50 
REMARK       I    between atoms: CG_50  and  ND2_52 
ROOT
ATOM      1  C   MOL d         -30.184  44.080  31.424  0.00  0.00     0.241 C 
ATOM      2  O   MOL d         -31.425  44.236  31.573  0.00  0.00    -0.271 OA
ATOM      3  N   MOL d         -29.294  44.122  32.369  0.00  0.00    -0.341 N 
ATOM      4  H17 MOL d         -28.342  43.909  32.150  0.00  0.00     0.163 HD
ENDROOT
BRANCH   1   5
ATOM      5  CA  MOL d         -29.542  43.644  30.148  0.00  0.00     0.094 C 
ATOM      6  H10 MOL d         -28.445  43.620  30.209  0.00  0.00     0.088 H 
BRANCH   5   7
ATOM      7  N   MOL d         -30.083  42.348  29.991  0.00  0.00    -0.335 N 
ATOM      8  C16 MOL d         -29.558  41.342  29.332  0.00  0.00     0.292 C 
ATOM      9  O18 MOL d         -28.191  41.198  29.287  0.00  0.00    -0.143 OA
ATOM     10  H9  MOL d         -30.965  42.178  30.432  0.00  0.00     0.164 HD
BRANCH   8  11
ATOM     11  O13 MOL d         -30.402  40.352  29.246  0.00  0.00    -0.310 OA
BRANCH  11  12
ATOM     12  C12 MOL d         -31.031  39.598  30.295  0.00  0.00     0.053 C 
ATOM     13  H5  MOL d         -31.628  40.318  30.874  0.00  0.00     0.082 H 
ATOM     14  H6  MOL d         -31.701  38.880  29.799  0.00  0.00     0.082 H 
BRANCH  12  15
ATOM     15  C3  MOL d         -30.246  38.818  31.285  0.00  0.00    -0.032 A 
ATOM     16  C2  MOL d         -30.591  38.768  32.647  0.00  0.00    -0.075 A 
ATOM     17  C1  MOL d         -29.801  37.971  33.525  0.00  0.00    -0.080 A 
ATOM     18  H2  MOL d         -31.442  39.324  33.022  0.00  0.00     0.084 H 
ATOM     19  C6  MOL d         -28.672  37.265  33.023  0.00  0.00    -0.058 A 
ATOM     20  H1  MOL d         -30.060  37.902  34.575  0.00  0.00     0.083 H 
ATOM     21  C5  MOL d         -28.343  37.348  31.657  0.00  0.00     0.026 A 
ATOM     22  H4  MOL d         -28.066  36.665  33.693  0.00  0.00     0.086 H 
ATOM     23  C4  MOL d         -29.133  38.116  30.792  0.00  0.00    -0.050 A 
ATOM     24  H3  MOL d         -28.885  38.168  29.738  0.00  0.00     0.087 H 
BRANCH  21  25
ATOM     25  N11 MOL d         -27.267  36.698  31.160  0.00  0.00    -0.399 N 
ATOM     26  H7  MOL d         -26.611  37.189  30.536  0.00  0.00     0.156 HD
ATOM     27  H8  MOL d         -27.103  35.710  31.404  0.00  0.00     0.156 HD
ENDBRANCH  21  25
ENDBRANCH  12  15
ENDBRANCH  11  12
ENDBRANCH   8  11
ENDBRANCH   5   7
BRANCH   5  28
ATOM     28  CB  MOL d         -30.006  44.634  29.040  0.00  0.00    -0.014 C 
ATOM     29  H11 MOL d         -31.055  44.417  28.788  0.00  0.00     0.043 H 
ATOM     30  H12 MOL d         -29.377  44.488  28.149  0.00  0.00     0.043 H 
BRANCH  28  31
ATOM     31  CG  MOL d         -29.899  46.090  29.484  0.00  0.00    -0.056 A 
ATOM     32  CD2 MOL d         -28.695  46.607  30.029  0.00  0.00    -0.074 A 
ATOM     33  CE2 MOL d         -28.606  47.965  30.422  0.00  0.00    -0.050 A 
ATOM     34  H14 MOL d         -27.835  45.957  30.145  0.00  0.00     0.084 H 
ATOM     35  CZ  MOL d         -29.776  48.758  30.221  0.00  0.00     0.082 A 
ATOM     36  H16 MOL d         -27.701  48.378  30.852  0.00  0.00     0.087 H 
ATOM     37  CE1 MOL d         -30.966  48.268  29.681  0.00  0.00    -0.050 A 
ATOM     38  CD1 MOL d         -31.027  46.935  29.316  0.00  0.00    -0.074 A 
ATOM     39  H15 MOL d         -31.824  48.918  29.550  0.00  0.00     0.087 H 
ATOM     40  H13 MOL d         -31.943  46.531  28.899  0.00  0.00     0.084 H 
BRANCH  35  41
ATOM     41  OH  MOL d         -29.738  50.112  30.590  0.00  0.00    -0.240 OA
BRANCH  41  42
ATOM     42  P   MOL d         -30.278  50.735  31.870  0.00  0.00     0.427 P 
ATOM     43  O3P MOL d         -31.349  49.784  32.468  0.00  0.00    -0.617 OA
ATOM     44  O2P MOL d         -29.247  51.025  32.853  0.00  0.00    -0.617 OA
ATOM     45  O1P MOL d         -30.927  51.963  31.482  0.00  0.00    -0.617 OA
ENDBRANCH  41  42
ENDBRANCH  35  41
ENDBRANCH  28  31
ENDBRANCH   5  28
ENDBRANCH   1   5
BRANCH   3  46
ATOM     46  CA  MOL d         -29.638  44.465  33.714  0.00  0.00     0.114 C 
BRANCH  46  47
ATOM     47  CB  MOL d         -28.503  43.753  34.533  0.00  0.00    -0.009 C 
ATOM     48  H21 MOL d         -28.979  43.172  35.337  0.00  0.00     0.044 H 
ATOM     49  H22 MOL d         -27.863  44.532  34.972  0.00  0.00     0.044 H 
BRANCH  47  50
ATOM     50  CG  MOL d         -27.605  42.802  33.733  0.00  0.00    -0.055 A 
ATOM     51  CD2 MOL d         -26.300  43.187  33.405  0.00  0.00    -0.074 A 
ATOM     52  CE2 MOL d         -25.425  42.336  32.677  0.00  0.00    -0.050 A 
ATOM     53  H24 MOL d         -25.946  44.163  33.715  0.00  0.00     0.084 H 
ATOM     54  CZ  MOL d         -25.946  41.089  32.308  0.00  0.00     0.082 A 
ATOM     55  H26 MOL d         -24.414  42.634  32.423  0.00  0.00     0.087 H 
ATOM     56  CE1 MOL d         -27.252  40.672  32.628  0.00  0.00    -0.050 A 
ATOM     57  CD1 MOL d         -28.092  41.529  33.342  0.00  0.00    -0.074 A 
ATOM     58  H25 MOL d         -27.603  39.693  32.322  0.00  0.00     0.087 H 
ATOM     59  H23 MOL d         -29.101  41.225  33.593  0.00  0.00     0.084 H 
BRANCH  54  60
ATOM     60  OH  MOL d         -25.081  40.247  31.581  0.00  0.00    -0.240 OA
BRANCH  60  61
ATOM     61  P   MOL d         -24.090  39.168  32.356  0.00  0.00     0.427 P 
ATOM     62  O3P MOL d         -23.031  38.685  31.425  0.00  0.00    -0.617 OA
ATOM     63  O2P MOL d         -23.429  39.849  33.495  0.00  0.00    -0.617 OA
ATOM     64  O1P MOL d         -24.973  38.051  32.740  0.00  0.00    -0.617 OA
ENDBRANCH  60  61
ENDBRANCH  54  60
ENDBRANCH  47  50
ENDBRANCH  46  47
BRANCH  46  65
ATOM     65  C   MOL d         -29.507  45.983  33.997  0.00  0.00     0.246 C 
ATOM     66  O   MOL d         -30.496  46.735  33.895  0.00  0.00    -0.271 OA
ATOM     67  N   MOL d         -28.312  46.461  34.290  0.00  0.00    -0.344 N 
ATOM     68  H27 MOL d         -27.521  45.851  34.340  0.00  0.00     0.163 HD
BRANCH  67  69
ATOM     69  CA  MOL d         -28.162  47.879  34.537  0.00  0.00     0.104 C 
ATOM     70  H28 MOL d         -28.857  48.430  33.886  0.00  0.00     0.090 H 
BRANCH  69  71
ATOM     71  C   MOL d         -26.725  48.290  34.212  0.00  0.00     0.197 C 
ATOM     72  OXT MOL d         -25.933  48.311  35.151  0.00  0.00    -0.646 OA
ATOM     73  O   MOL d         -26.379  48.609  33.031  0.00  0.00    -0.646 OA
ENDBRANCH  69  71
BRANCH  69  74
ATOM     74  CB  MOL d         -28.469  48.235  36.018  0.00  0.00     0.037 C 
ATOM     75  H29 MOL d         -27.523  48.487  36.521  0.00  0.00     0.051 H 
ATOM     76  H30 MOL d         -28.920  47.357  36.503  0.00  0.00     0.051 H 
BRANCH  74  77
ATOM     77  CG  MOL d         -29.457  49.455  36.168  0.00  0.00     0.217 C 
ATOM     78  OD1 MOL d         -29.265  50.308  36.982  0.00  0.00    -0.274 OA
ATOM     79  ND2 MOL d         -30.502  49.466  35.388  0.00  0.00    -0.370 N 
ATOM     80  H31 MOL d         -31.159  50.218  35.444  0.00  0.00     0.159 HD
ATOM     81  H32 MOL d         -30.646  48.724  34.734  0.00  0.00     0.159 HD
ENDBRANCH  74  77
ENDBRANCH  69  74
ENDBRANCH  67  69
ENDBRANCH  46  65
BRANCH  46  82
ATOM     82  CH3 MOL d         -30.909  43.697  34.169  0.00  0.00    -0.044 C 
ATOM     83  H18 MOL d         -30.735  42.615  34.078  0.00  0.00     0.031 H 
ATOM     84  H19 MOL d         -31.760  43.987  33.534  0.00  0.00     0.031 H 
ATOM     85  H20 MOL d         -31.132  43.946  35.216  0.00  0.00     0.031 H 
ENDBRANCH  46  82
ENDBRANCH   3  46
TORSDOF 21
ENDMDL
MODEL 8
REMARK VINA RESULT:      -4.6      1.647      2.420
REMARK  21 active torsions:
REMARK  status: ('A' for Active; 'I' for Inactive)
REMARK    1  A    between atoms: C12_6  and  C3_3 
REMARK    2  A    between atoms: O13_7  and  C12_6 
REMARK    3  A    between atoms: C16_8  and  O13_7 
REMARK    4  A    between atoms: C5_11  and  N11_10 
REMARK    5  A    between atoms: CA_13  and  N_12 
REMARK    6  A    between atoms: CA_13  and  CB_16 
REMARK    7  A    between atoms: C_14  and  CA_13 
REMARK       I    between atoms: N_28  and  C_14 
REMARK    8  A    between atoms: CB_16  and  CG_17 
REMARK    9  A    between atoms: CZ_22  and  OH_23 
REMARK   10  A    between atoms: OH_23  and  P_24 
REMARK   11  A    between atoms: CA_29  and  N_28 
REMARK   12  A    between atoms: CA_29  and  CB_33 
REMARK   13  A    between atoms: C_31  and  CA_29 
REMARK   14  A    between atoms: CA_29  and  CH3_30 
REMARK       I    between atoms: C_31  and  N_45 
REMARK   15  A    between atoms: CB_33  and  CG_34 
REMARK   16  A    between atoms: CZ_39  and  OH_40 
REMARK   17  A    between atoms: OH_40  and  P_41 
REMARK   18  A    between atoms: N_45  and  CA_46 
REMARK   19  A    between atoms: CA_46  and  C_47 
REMARK   20  A    between atoms: CA_46  and  CB_49 
REMARK   21  A    between atoms: CB_49  and  CG_50 
REMARK       I    between atoms: CG_50  and  ND2_52 
ROOT
ATOM      1  C   MOL d         -29.776  44.129  33.306  0.00  0.00     0.241 C 
ATOM      2  O   MOL d         -30.928  44.087  33.814  0.00  0.00    -0.271 OA
ATOM      3  N   MOL d         -29.016  45.181  33.234  0.00  0.00    -0.341 N 
ATOM      4  H17 MOL d         -28.087  45.085  32.877  0.00  0.00     0.163 HD
ENDROOT
BRANCH   1   5
ATOM      5  CA  MOL d         -29.016  42.927  32.852  0.00  0.00     0.094 C 
ATOM      6  H10 MOL d         -28.862  42.191  33.654  0.00  0.00     0.088 H 
BRANCH   5   7
ATOM      7  N   MOL d         -29.866  42.425  31.840  0.00  0.00    -0.335 N 
ATOM      8  C16 MOL d         -30.300  43.062  30.778  0.00  0.00     0.292 C 
ATOM      9  O18 MOL d         -29.502  44.008  30.178  0.00  0.00    -0.143 OA
ATOM     10  H9  MOL d         -30.169  41.478  31.945  0.00  0.00     0.164 HD
BRANCH   8  11
ATOM     11  O13 MOL d         -31.200  42.359  30.150  0.00  0.00    -0.310 OA
BRANCH  11  12
ATOM     12  C12 MOL d         -31.026  41.261  29.241  0.00  0.00     0.053 C 
ATOM     13  H5  MOL d         -32.033  40.872  29.032  0.00  0.00     0.082 H 
ATOM     14  H6  MOL d         -30.599  41.688  28.321  0.00  0.00     0.082 H 
BRANCH  12  15
ATOM     15  C3  MOL d         -30.188  40.083  29.580  0.00  0.00    -0.032 A 
ATOM     16  C2  MOL d         -30.604  39.104  30.501  0.00  0.00    -0.075 A 
ATOM     17  C1  MOL d         -29.752  37.990  30.747  0.00  0.00    -0.080 A 
ATOM     18  H2  MOL d         -31.555  39.197  31.013  0.00  0.00     0.084 H 
ATOM     19  C6  MOL d         -28.495  37.894  30.086  0.00  0.00    -0.058 A 
ATOM     20  H1  MOL d         -30.061  37.214  31.439  0.00  0.00     0.083 H 
ATOM     21  C5  MOL d         -28.101  38.897  29.182  0.00  0.00     0.026 A 
ATOM     22  H4  MOL d         -27.843  37.049  30.279  0.00  0.00     0.086 H 
ATOM     23  C4  MOL d         -28.949  39.982  28.925  0.00  0.00    -0.050 A 
ATOM     24  H3  MOL d         -28.647  40.748  28.219  0.00  0.00     0.087 H 
BRANCH  21  25
ATOM     25  N11 MOL d         -26.906  38.836  28.552  0.00  0.00    -0.399 N 
ATOM     26  H7  MOL d         -26.201  39.570  28.711  0.00  0.00     0.156 HD
ATOM     27  H8  MOL d         -26.700  38.054  27.912  0.00  0.00     0.156 HD
ENDBRANCH  21  25
ENDBRANCH  12  15
ENDBRANCH  11  12
ENDBRANCH   8  11
ENDBRANCH   5   7
BRANCH   5  28
ATOM     28  CB  MOL d         -27.649  43.429  32.303  0.00  0.00    -0.014 C 
ATOM     29  H11 MOL d         -27.325  44.297  32.897  0.00  0.00     0.043 H 
ATOM     30  H12 MOL d         -27.778  43.732  31.253  0.00  0.00     0.043 H 
BRANCH  28  31
ATOM     31  CG  MOL d         -26.568  42.355  32.376  0.00  0.00    -0.056 A 
ATOM     32  CD2 MOL d         -25.347  42.583  33.061  0.00  0.00    -0.074 A 
ATOM     33  CE2 MOL d         -24.359  41.569  33.133  0.00  0.00    -0.050 A 
ATOM     34  H14 MOL d         -25.167  43.541  33.534  0.00  0.00     0.084 H 
ATOM     35  CZ  MOL d         -24.679  40.330  32.499  0.00  0.00     0.082 A 
ATOM     36  H16 MOL d         -23.415  41.726  33.640  0.00  0.00     0.087 H 
ATOM     37  CE1 MOL d         -25.877  40.086  31.827  0.00  0.00    -0.050 A 
ATOM     38  CD1 MOL d         -26.818  41.099  31.763  0.00  0.00    -0.074 A 
ATOM     39  H15 MOL d         -26.067  39.124  31.365  0.00  0.00     0.087 H 
ATOM     40  H13 MOL d         -27.754  40.933  31.242  0.00  0.00     0.084 H 
BRANCH  35  41
ATOM     41  OH  MOL d         -23.735  39.292  32.546  0.00  0.00    -0.240 OA
BRANCH  41  42
ATOM     42  P   MOL d         -23.764  38.059  33.438  0.00  0.00     0.427 P 
ATOM     43  O3P MOL d         -23.737  38.520  34.920  0.00  0.00    -0.617 OA
ATOM     44  O2P MOL d         -24.906  37.194  33.193  0.00  0.00    -0.617 OA
ATOM     45  O1P MOL d         -22.547  37.332  33.166  0.00  0.00    -0.617 OA
ENDBRANCH  41  42
ENDBRANCH  35  41
ENDBRANCH  28  31
ENDBRANCH   5  28
ENDBRANCH   1   5
BRANCH   3  46
ATOM     46  CA  MOL d         -29.472  46.470  33.651  0.00  0.00     0.114 C 
BRANCH  46  47
ATOM     47  CB  MOL d         -28.362  46.890  34.681  0.00  0.00    -0.009 C 
ATOM     48  H21 MOL d         -27.383  46.728  34.208  0.00  0.00     0.044 H 
ATOM     49  H22 MOL d         -28.456  46.239  35.563  0.00  0.00     0.044 H 
BRANCH  47  50
ATOM     50  CG  MOL d         -28.420  48.345  35.161  0.00  0.00    -0.055 A 
ATOM     51  CD2 MOL d         -29.592  49.090  34.987  0.00  0.00    -0.074 A 
ATOM     52  CE2 MOL d         -29.700  50.437  35.427  0.00  0.00    -0.050 A 
ATOM     53  H24 MOL d         -30.443  48.625  34.503  0.00  0.00     0.084 H 
ATOM     54  CZ  MOL d         -28.563  50.975  36.044  0.00  0.00     0.082 A 
ATOM     55  H26 MOL d         -30.607  51.014  35.292  0.00  0.00     0.087 H 
ATOM     56  CE1 MOL d         -27.372  50.249  36.238  0.00  0.00    -0.050 A 
ATOM     57  CD1 MOL d         -27.293  48.928  35.794  0.00  0.00    -0.074 A 
ATOM     58  H25 MOL d         -26.523  50.712  36.728  0.00  0.00     0.087 H 
ATOM     59  H23 MOL d         -26.383  48.355  35.931  0.00  0.00     0.084 H 
BRANCH  54  60
ATOM     60  OH  MOL d         -28.667  52.312  36.475  0.00  0.00    -0.240 OA
BRANCH  60  61
ATOM     61  P   MOL d         -27.354  53.323  36.440  0.00  0.00     0.427 P 
ATOM     62  O3P MOL d         -26.232  52.681  35.699  0.00  0.00    -0.617 OA
ATOM     63  O2P MOL d         -27.722  54.571  35.729  0.00  0.00    -0.617 OA
ATOM     64  O1P MOL d         -26.982  53.512  37.855  0.00  0.00    -0.617 OA
ENDBRANCH  60  61
ENDBRANCH  54  60
ENDBRANCH  47  50
ENDBRANCH  46  47
BRANCH  46  65
ATOM     65  C   MOL d         -29.439  47.516  32.508  0.00  0.00     0.246 C 
ATOM     66  O   MOL d         -30.416  48.262  32.302  0.00  0.00    -0.271 OA
ATOM     67  N   MOL d         -28.375  47.553  31.728  0.00  0.00    -0.344 N 
ATOM     68  H27 MOL d         -27.609  46.929  31.886  0.00  0.00     0.163 HD
BRANCH  67  69
ATOM     69  CA  MOL d         -28.332  48.507  30.641  0.00  0.00     0.104 C 
ATOM     70  H28 MOL d         -29.107  49.271  30.805  0.00  0.00     0.090 H 
BRANCH  69  71
ATOM     71  C   MOL d         -28.608  47.775  29.327  0.00  0.00     0.197 C 
ATOM     72  OXT MOL d         -29.398  48.312  28.553  0.00  0.00    -0.646 OA
ATOM     73  O   MOL d         -28.058  46.660  29.061  0.00  0.00    -0.646 OA
ENDBRANCH  69  71
BRANCH  69  74
ATOM     74  CB  MOL d         -26.946  49.206  30.550  0.00  0.00     0.037 C 
ATOM     75  H29 MOL d         -27.100  50.294  30.591  0.00  0.00     0.051 H 
ATOM     76  H30 MOL d         -26.481  48.937  29.591  0.00  0.00     0.051 H 
BRANCH  74  77
ATOM     77  CG  MOL d         -25.968  48.792  31.716  0.00  0.00     0.217 C 
ATOM     78  OD1 MOL d         -25.387  47.749  31.692  0.00  0.00    -0.274 OA
ATOM     79  ND2 MOL d         -25.854  49.624  32.713  0.00  0.00    -0.370 N 
ATOM     80  H31 MOL d         -25.247  49.408  33.477  0.00  0.00     0.159 HD
ATOM     81  H32 MOL d         -26.375  50.478  32.714  0.00  0.00     0.159 HD
ENDBRANCH  74  77
ENDBRANCH  69  74
ENDBRANCH  67  69
ENDBRANCH  46  65
BRANCH  46  82
ATOM     82  CH3 MOL d         -30.731  46.343  34.552  0.00  0.00    -0.044 C 
ATOM     83  H18 MOL d         -31.488  47.072  34.227  0.00  0.00     0.031 H 
ATOM     84  H19 MOL d         -30.455  46.541  35.598  0.00  0.00     0.031 H 
ATOM     85  H20 MOL d         -31.141  45.326  34.467  0.00  0.00     0.031 H 
ENDBRANCH  46  82
ENDBRANCH   3  46
TORSDOF 21
ENDMDL
MODEL 9
REMARK VINA RESULT:      -4.5      1.725      2.355
REMARK  21 active torsions:
REMARK  status: ('A' for Active; 'I' for Inactive)
REMARK    1  A    between atoms: C12_6  and  C3_3 
REMARK    2  A    between atoms: O13_7  and  C12_6 
REMARK    3  A    between atoms: C16_8  and  O13_7 
REMARK    4  A    between atoms: C5_11  and  N11_10 
REMARK    5  A    between atoms: CA_13  and  N_12 
REMARK    6  A    between atoms: CA_13  and  CB_16 
REMARK    7  A    between atoms: C_14  and  CA_13 
REMARK       I    between atoms: N_28  and  C_14 
REMARK    8  A    between atoms: CB_16  and  CG_17 
REMARK    9  A    between atoms: CZ_22  and  OH_23 
REMARK   10  A    between atoms: OH_23  and  P_24 
REMARK   11  A    between atoms: CA_29  and  N_28 
REMARK   12  A    between atoms: CA_29  and  CB_33 
REMARK   13  A    between atoms: C_31  and  CA_29 
REMARK   14  A    between atoms: CA_29  and  CH3_30 
REMARK       I    between atoms: C_31  and  N_45 
REMARK   15  A    between atoms: CB_33  and  CG_34 
REMARK   16  A    between atoms: CZ_39  and  OH_40 
REMARK   17  A    between atoms: OH_40  and  P_41 
REMARK   18  A    between atoms: N_45  and  CA_46 
REMARK   19  A    between atoms: CA_46  and  C_47 
REMARK   20  A    between atoms: CA_46  and  CB_49 
REMARK   21  A    between atoms: CB_49  and  CG_50 
REMARK       I    between atoms: CG_50  and  ND2_52 
ROOT
ATOM      1  C   MOL d         -29.126  44.864  33.426  0.00  0.00     0.241 C 
ATOM      2  O   MOL d         -29.761  44.841  32.338  0.00  0.00    -0.271 OA
ATOM      3  N   MOL d         -29.383  45.634  34.440  0.00  0.00    -0.341 N 
ATOM      4  H17 MOL d         -28.861  45.517  35.284  0.00  0.00     0.163 HD
ENDROOT
BRANCH   1   5
ATOM      5  CA  MOL d         -28.069  43.878  33.798  0.00  0.00     0.094 C 
ATOM      6  H10 MOL d         -27.574  44.122  34.749  0.00  0.00     0.088 H 
BRANCH   5   7
ATOM      7  N   MOL d         -28.821  42.684  33.894  0.00  0.00    -0.335 N 
ATOM      8  C16 MOL d         -29.240  42.094  34.989  0.00  0.00     0.292 C 
ATOM      9  O18 MOL d         -29.581  42.854  36.083  0.00  0.00    -0.143 OA
ATOM     10  H9  MOL d         -29.060  42.240  33.030  0.00  0.00     0.164 HD
BRANCH   8  11
ATOM     11  O13 MOL d         -29.752  40.926  34.719  0.00  0.00    -0.310 OA
BRANCH  11  12
ATOM     12  C12 MOL d         -29.335  39.950  33.751  0.00  0.00     0.053 C 
ATOM     13  H5  MOL d         -29.772  40.263  32.792  0.00  0.00     0.082 H 
ATOM     14  H6  MOL d         -28.238  40.022  33.695  0.00  0.00     0.082 H 
BRANCH  12  15
ATOM     15  C3  MOL d         -29.649  38.507  33.902  0.00  0.00    -0.032 A 
ATOM     16  C2  MOL d         -30.635  37.868  33.129  0.00  0.00    -0.075 A 
ATOM     17  C1  MOL d         -30.854  36.473  33.316  0.00  0.00    -0.080 A 
ATOM     18  H2  MOL d         -31.218  38.427  32.405  0.00  0.00     0.084 H 
ATOM     19  C6  MOL d         -30.099  35.757  34.286  0.00  0.00    -0.058 A 
ATOM     20  H1  MOL d         -31.596  35.956  32.717  0.00  0.00     0.083 H 
ATOM     21  C5  MOL d         -29.130  36.428  35.055  0.00  0.00     0.026 A 
ATOM     22  H4  MOL d         -30.271  34.697  34.433  0.00  0.00     0.086 H 
ATOM     23  C4  MOL d         -28.902  37.796  34.856  0.00  0.00    -0.050 A 
ATOM     24  H3  MOL d         -28.146  38.308  35.441  0.00  0.00     0.087 H 
BRANCH  21  25
ATOM     25  N11 MOL d         -28.410  35.773  35.993  0.00  0.00    -0.399 N 
ATOM     26  H7  MOL d         -27.973  36.296  36.766  0.00  0.00     0.156 HD
ATOM     27  H8  MOL d         -28.297  34.751  35.936  0.00  0.00     0.156 HD
ENDBRANCH  21  25
ENDBRANCH  12  15
ENDBRANCH  11  12
ENDBRANCH   8  11
ENDBRANCH   5   7
BRANCH   5  28
ATOM     28  CB  MOL d         -27.034  43.853  32.636  0.00  0.00    -0.014 C 
ATOM     29  H11 MOL d         -26.071  44.230  33.011  0.00  0.00     0.043 H 
ATOM     30  H12 MOL d         -27.394  44.506  31.827  0.00  0.00     0.043 H 
BRANCH  28  31
ATOM     31  CG  MOL d         -26.828  42.448  32.077  0.00  0.00    -0.056 A 
ATOM     32  CD2 MOL d         -25.891  41.554  32.658  0.00  0.00    -0.074 A 
ATOM     33  CE2 MOL d         -25.722  40.247  32.137  0.00  0.00    -0.050 A 
ATOM     34  H14 MOL d         -25.300  41.874  33.508  0.00  0.00     0.084 H 
ATOM     35  CZ  MOL d         -26.551  39.898  31.028  0.00  0.00     0.082 A 
ATOM     36  H16 MOL d         -25.004  39.553  32.557  0.00  0.00     0.087 H 
ATOM     37  CE1 MOL d         -27.481  40.761  30.448  0.00  0.00    -0.050 A 
ATOM     38  CD1 MOL d         -27.616  42.035  30.971  0.00  0.00    -0.074 A 
ATOM     39  H15 MOL d         -28.086  40.440  29.607  0.00  0.00     0.087 H 
ATOM     40  H13 MOL d         -28.330  42.724  30.533  0.00  0.00     0.084 H 
BRANCH  35  41
ATOM     41  OH  MOL d         -26.425  38.612  30.478  0.00  0.00    -0.240 OA
BRANCH  41  42
ATOM     42  P   MOL d         -27.413  37.460  30.590  0.00  0.00     0.427 P 
ATOM     43  O3P MOL d         -27.243  36.798  31.984  0.00  0.00    -0.617 OA
ATOM     44  O2P MOL d         -28.794  37.858  30.379  0.00  0.00    -0.617 OA
ATOM     45  O1P MOL d         -27.033  36.499  29.583  0.00  0.00    -0.617 OA
ENDBRANCH  41  42
ENDBRANCH  35  41
ENDBRANCH  28  31
ENDBRANCH   5  28
ENDBRANCH   1   5
BRANCH   3  46
ATOM     46  CA  MOL d         -30.391  46.646  34.380  0.00  0.00     0.114 C 
BRANCH  46  47
ATOM     47  CB  MOL d         -30.535  47.051  35.891  0.00  0.00    -0.009 C 
ATOM     48  H21 MOL d         -30.246  46.184  36.503  0.00  0.00     0.044 H 
ATOM     49  H22 MOL d         -31.592  47.295  36.077  0.00  0.00     0.044 H 
BRANCH  47  50
ATOM     50  CG  MOL d         -29.689  48.249  36.340  0.00  0.00    -0.055 A 
ATOM     51  CD2 MOL d         -30.317  49.403  36.822  0.00  0.00    -0.074 A 
ATOM     52  CE2 MOL d         -29.577  50.533  37.263  0.00  0.00    -0.050 A 
ATOM     53  H24 MOL d         -31.400  49.435  36.861  0.00  0.00     0.084 H 
ATOM     54  CZ  MOL d         -28.183  50.423  37.186  0.00  0.00     0.082 A 
ATOM     55  H26 MOL d         -30.063  51.427  37.637  0.00  0.00     0.087 H 
ATOM     56  CE1 MOL d         -27.523  49.274  36.710  0.00  0.00    -0.050 A 
ATOM     57  CD1 MOL d         -28.274  48.178  36.282  0.00  0.00    -0.074 A 
ATOM     58  H25 MOL d         -26.440  49.239  36.678  0.00  0.00     0.087 H 
ATOM     59  H23 MOL d         -27.784  47.287  35.910  0.00  0.00     0.084 H 
BRANCH  54  60
ATOM     60  OH  MOL d         -27.448  51.546  37.617  0.00  0.00    -0.240 OA
BRANCH  60  61
ATOM     61  P   MOL d         -27.017  52.743  36.554  0.00  0.00     0.427 P 
ATOM     62  O3P MOL d         -27.450  54.070  37.076  0.00  0.00    -0.617 OA
ATOM     63  O2P MOL d         -25.541  52.760  36.417  0.00  0.00    -0.617 OA
ATOM     64  O1P MOL d         -27.744  52.427  35.311  0.00  0.00    -0.617 OA
ENDBRANCH  60  61
ENDBRANCH  54  60
ENDBRANCH  47  50
ENDBRANCH  46  47
BRANCH  46  65
ATOM     65  C   MOL d         -29.924  47.914  33.622  0.00  0.00     0.246 C 
ATOM     66  O   MOL d         -30.647  48.929  33.576  0.00  0.00    -0.271 OA
ATOM     67  N   MOL d         -28.773  47.867  32.979  0.00  0.00    -0.344 N 
ATOM     68  H27 MOL d         -28.215  47.036  32.999  0.00  0.00     0.163 HD
BRANCH  67  69
ATOM     69  CA  MOL d         -28.327  49.031  32.246  0.00  0.00     0.104 C 
ATOM     70  H28 MOL d         -28.900  49.908  32.584  0.00  0.00     0.090 H 
BRANCH  69  71
ATOM     71  C   MOL d         -28.577  48.805  30.754  0.00  0.00     0.197 C 
ATOM     72  OXT MOL d         -28.738  47.641  30.393  0.00  0.00    -0.646 OA
ATOM     73  O   MOL d         -28.599  49.774  29.931  0.00  0.00    -0.646 OA
ENDBRANCH  69  71
BRANCH  69  74
ATOM     74  CB  MOL d         -26.813  49.302  32.470  0.00  0.00     0.037 C 
ATOM     75  H29 MOL d         -26.705  50.023  33.294  0.00  0.00     0.051 H 
ATOM     76  H30 MOL d         -26.394  49.733  31.549  0.00  0.00     0.051 H 
BRANCH  74  77
ATOM     77  CG  MOL d         -25.999  48.001  32.831  0.00  0.00     0.217 C 
ATOM     78  OD1 MOL d         -25.801  47.152  32.014  0.00  0.00    -0.274 OA
ATOM     79  ND2 MOL d         -25.588  47.885  34.063  0.00  0.00    -0.370 N 
ATOM     80  H31 MOL d         -25.067  47.078  34.342  0.00  0.00     0.159 HD
ATOM     81  H32 MOL d         -25.792  48.604  34.728  0.00  0.00     0.159 HD
ENDBRANCH  74  77
ENDBRANCH  69  74
ENDBRANCH  67  69
ENDBRANCH  46  65
BRANCH  46  82
ATOM     82  CH3 MOL d         -31.779  46.022  34.069  0.00  0.00    -0.044 C 
ATOM     83  H18 MOL d         -32.453  46.801  33.684  0.00  0.00     0.031 H 
ATOM     84  H19 MOL d         -32.203  45.592  34.989  0.00  0.00     0.031 H 
ATOM     85  H20 MOL d         -31.664  45.231  33.314  0.00  0.00     0.031 H 
ENDBRANCH  46  82
ENDBRANCH   3  46
TORSDOF 21
ENDMDL
MODEL 10
REMARK VINA RESULT:      -4.2      1.954      2.797
REMARK  21 active torsions:
REMARK  status: ('A' for Active; 'I' for Inactive)
REMARK    1  A    between atoms: C12_6  and  C3_3 
REMARK    2  A    between atoms: O13_7  and  C12_6 
REMARK    3  A    between atoms: C16_8  and  O13_7 
REMARK    4  A    between atoms: C5_11  and  N11_10 
REMARK    5  A    between atoms: CA_13  and  N_12 
REMARK    6  A    between atoms: CA_13  and  CB_16 
REMARK    7  A    between atoms: C_14  and  CA_13 
REMARK       I    between atoms: N_28  and  C_14 
REMARK    8  A    between atoms: CB_16  and  CG_17 
REMARK    9  A    between atoms: CZ_22  and  OH_23 
REMARK   10  A    between atoms: OH_23  and  P_24 
REMARK   11  A    between atoms: CA_29  and  N_28 
REMARK   12  A    between atoms: CA_29  and  CB_33 
REMARK   13  A    between atoms: C_31  and  CA_29 
REMARK   14  A    between atoms: CA_29  and  CH3_30 
REMARK       I    between atoms: C_31  and  N_45 
REMARK   15  A    between atoms: CB_33  and  CG_34 
REMARK   16  A    between atoms: CZ_39  and  OH_40 
REMARK   17  A    between atoms: OH_40  and  P_41 
REMARK   18  A    between atoms: N_45  and  CA_46 
REMARK   19  A    between atoms: CA_46  and  C_47 
REMARK   20  A    between atoms: CA_46  and  CB_49 
REMARK   21  A    between atoms: CB_49  and  CG_50 
REMARK       I    between atoms: CG_50  and  ND2_52 
ROOT
ATOM      1  C   MOL d         -30.206  44.047  32.720  0.00  0.00     0.241 C 
ATOM      2  O   MOL d         -31.373  43.909  33.173  0.00  0.00    -0.271 OA
ATOM      3  N   MOL d         -29.549  45.165  32.639  0.00  0.00    -0.341 N 
ATOM      4  H17 MOL d         -28.598  45.149  32.332  0.00  0.00     0.163 HD
ENDROOT
BRANCH   1   5
ATOM      5  CA  MOL d         -29.309  42.910  32.356  0.00  0.00     0.094 C 
ATOM      6  H10 MOL d         -29.262  42.137  33.137  0.00  0.00     0.088 H 
BRANCH   5   7
ATOM      7  N   MOL d         -29.931  42.428  31.182  0.00  0.00    -0.335 N 
ATOM      8  C16 MOL d         -30.168  43.095  30.077  0.00  0.00     0.292 C 
ATOM      9  O18 MOL d         -29.295  44.078  29.675  0.00  0.00    -0.143 OA
ATOM     10  H9  MOL d         -30.223  41.471  31.195  0.00  0.00     0.164 HD
BRANCH   8  11
ATOM     11  O13 MOL d         -30.910  42.396  29.263  0.00  0.00    -0.310 OA
BRANCH  11  12
ATOM     12  C12 MOL d         -31.489  41.095  29.450  0.00  0.00     0.053 C 
ATOM     13  H5  MOL d         -32.046  41.139  30.397  0.00  0.00     0.082 H 
ATOM     14  H6  MOL d         -32.193  40.949  28.617  0.00  0.00     0.082 H 
BRANCH  12  15
ATOM     15  C3  MOL d         -30.660  39.865  29.513  0.00  0.00    -0.032 A 
ATOM     16  C2  MOL d         -29.662  39.581  28.563  0.00  0.00    -0.075 A 
ATOM     17  C1  MOL d         -28.891  38.393  28.713  0.00  0.00    -0.080 A 
ATOM     18  H2  MOL d         -29.484  40.254  27.732  0.00  0.00     0.084 H 
ATOM     19  C6  MOL d         -29.153  37.506  29.795  0.00  0.00    -0.058 A 
ATOM     20  H1  MOL d         -28.104  38.163  28.004  0.00  0.00     0.083 H 
ATOM     21  C5  MOL d         -30.168  37.811  30.721  0.00  0.00     0.026 A 
ATOM     22  H4  MOL d         -28.571  36.598  29.906  0.00  0.00     0.086 H 
ATOM     23  C4  MOL d         -30.912  38.990  30.583  0.00  0.00    -0.050 A 
ATOM     24  H3  MOL d         -31.685  39.228  31.305  0.00  0.00     0.087 H 
BRANCH  21  25
ATOM     25  N11 MOL d         -30.445  36.978  31.750  0.00  0.00    -0.399 N 
ATOM     26  H7  MOL d         -31.237  36.322  31.683  0.00  0.00     0.156 HD
ATOM     27  H8  MOL d         -29.864  36.998  32.600  0.00  0.00     0.156 HD
ENDBRANCH  21  25
ENDBRANCH  12  15
ENDBRANCH  11  12
ENDBRANCH   8  11
ENDBRANCH   5   7
BRANCH   5  28
ATOM     28  CB  MOL d         -27.895  43.506  32.093  0.00  0.00    -0.014 C 
ATOM     29  H11 MOL d         -27.709  44.310  32.821  0.00  0.00     0.043 H 
ATOM     30  H12 MOL d         -27.870  43.921  31.075  0.00  0.00     0.043 H 
BRANCH  28  31
ATOM     31  CG  MOL d         -26.794  42.459  32.225  0.00  0.00    -0.056 A 
ATOM     32  CD2 MOL d         -26.915  41.181  31.620  0.00  0.00    -0.074 A 
ATOM     33  CE2 MOL d         -25.877  40.225  31.739  0.00  0.00    -0.050 A 
ATOM     34  H14 MOL d         -27.811  40.934  31.063  0.00  0.00     0.084 H 
ATOM     35  CZ  MOL d         -24.723  40.634  32.474  0.00  0.00     0.082 A 
ATOM     36  H16 MOL d         -25.953  39.239  31.296  0.00  0.00     0.087 H 
ATOM     37  CE1 MOL d         -24.583  41.888  33.069  0.00  0.00    -0.050 A 
ATOM     38  CD1 MOL d         -25.619  42.797  32.947  0.00  0.00    -0.074 A 
ATOM     39  H15 MOL d         -23.683  42.144  33.616  0.00  0.00     0.087 H 
ATOM     40  H13 MOL d         -25.534  43.776  33.406  0.00  0.00     0.084 H 
BRANCH  35  41
ATOM     41  OH  MOL d         -23.664  39.724  32.616  0.00  0.00    -0.240 OA
BRANCH  41  42
ATOM     42  P   MOL d         -23.670  38.414  33.391  0.00  0.00     0.427 P 
ATOM     43  O3P MOL d         -22.367  37.637  33.059  0.00  0.00    -0.617 OA
ATOM     44  O2P MOL d         -23.806  38.591  34.827  0.00  0.00    -0.617 OA
ATOM     45  O1P MOL d         -24.791  37.653  32.894  0.00  0.00    -0.617 OA
ENDBRANCH  41  42
ENDBRANCH  35  41
ENDBRANCH  28  31
ENDBRANCH   5  28
ENDBRANCH   1   5
BRANCH   3  46
ATOM     46  CA  MOL d         -30.150  46.417  32.978  0.00  0.00     0.114 C 
BRANCH  46  47
ATOM     47  CB  MOL d         -30.378  46.262  34.524  0.00  0.00    -0.009 C 
ATOM     48  H21 MOL d         -29.502  45.748  34.946  0.00  0.00     0.044 H 
ATOM     49  H22 MOL d         -31.274  45.641  34.673  0.00  0.00     0.044 H 
BRANCH  47  50
ATOM     50  CG  MOL d         -30.575  47.570  35.299  0.00  0.00    -0.055 A 
ATOM     51  CD2 MOL d         -29.727  47.881  36.368  0.00  0.00    -0.074 A 
ATOM     52  CE2 MOL d         -29.861  49.086  37.109  0.00  0.00    -0.050 A 
ATOM     53  H24 MOL d         -28.944  47.181  36.639  0.00  0.00     0.084 H 
ATOM     54  CZ  MOL d         -30.892  49.944  36.706  0.00  0.00     0.082 A 
ATOM     55  H26 MOL d         -29.203  49.327  37.937  0.00  0.00     0.087 H 
ATOM     56  CE1 MOL d         -31.757  49.661  35.632  0.00  0.00    -0.050 A 
ATOM     57  CD1 MOL d         -31.605  48.469  34.923  0.00  0.00    -0.074 A 
ATOM     58  H25 MOL d         -32.536  50.364  35.358  0.00  0.00     0.087 H 
ATOM     59  H23 MOL d         -32.265  48.233  34.096  0.00  0.00     0.084 H 
BRANCH  54  60
ATOM     60  OH  MOL d         -31.029  51.136  37.444  0.00  0.00    -0.240 OA
BRANCH  60  61
ATOM     61  P   MOL d         -30.433  52.571  36.865  0.00  0.00     0.427 P 
ATOM     62  O3P MOL d         -30.047  53.459  37.999  0.00  0.00    -0.617 OA
ATOM     63  O2P MOL d         -29.220  52.301  36.057  0.00  0.00    -0.617 OA
ATOM     64  O1P MOL d         -31.551  53.170  36.113  0.00  0.00    -0.617 OA
ENDBRANCH  60  61
ENDBRANCH  54  60
ENDBRANCH  47  50
ENDBRANCH  46  47
BRANCH  46  65
ATOM     65  C   MOL d         -29.185  47.615  32.788  0.00  0.00     0.246 C 
ATOM     66  O   MOL d         -29.616  48.725  32.416  0.00  0.00    -0.271 OA
ATOM     67  N   MOL d         -27.894  47.411  32.972  0.00  0.00    -0.344 N 
ATOM     68  H27 MOL d         -27.558  46.509  33.241  0.00  0.00     0.163 HD
BRANCH  67  69
ATOM     69  CA  MOL d         -26.973  48.510  32.778  0.00  0.00     0.104 C 
ATOM     70  H28 MOL d         -27.538  49.454  32.775  0.00  0.00     0.090 H 
BRANCH  69  71
ATOM     71  C   MOL d         -26.266  48.335  31.433  0.00  0.00     0.197 C 
ATOM     72  OXT MOL d         -25.038  48.330  31.453  0.00  0.00    -0.646 OA
ATOM     73  O   MOL d         -26.923  48.217  30.351  0.00  0.00    -0.646 OA
ENDBRANCH  69  71
BRANCH  69  74
ATOM     74  CB  MOL d         -25.906  48.565  33.907  0.00  0.00     0.037 C 
ATOM     75  H29 MOL d         -25.092  49.232  33.588  0.00  0.00     0.051 H 
ATOM     76  H30 MOL d         -25.509  47.551  34.064  0.00  0.00     0.051 H 
BRANCH  74  77
ATOM     77  CG  MOL d         -26.482  49.096  35.276  0.00  0.00     0.217 C 
ATOM     78  OD1 MOL d         -26.372  48.458  36.280  0.00  0.00    -0.274 OA
ATOM     79  ND2 MOL d         -27.109  50.239  35.248  0.00  0.00    -0.370 N 
ATOM     80  H31 MOL d         -27.492  50.619  36.090  0.00  0.00     0.159 HD
ATOM     81  H32 MOL d         -27.205  50.736  34.386  0.00  0.00     0.159 HD
ENDBRANCH  74  77
ENDBRANCH  69  74
ENDBRANCH  67  69
ENDBRANCH  46  65
BRANCH  46  82
ATOM     82  CH3 MOL d         -31.602  46.496  32.433  0.00  0.00    -0.044 C 
ATOM     83  H18 MOL d         -32.067  45.501  32.485  0.00  0.00     0.031 H 
ATOM     84  H19 MOL d         -31.584  46.837  31.387  0.00  0.00     0.031 H 
ATOM     85  H20 MOL d         -32.183  47.205  33.040  0.00  0.00     0.031 H 
ENDBRANCH  46  82
ENDBRANCH   3  46
TORSDOF 21
ENDMDL
