MODEL 1
REMARK VINA RESULT:      -6.0      0.000      0.000
REMARK  7 active torsions:
REMARK  status: ('A' for Active; 'I' for Inactive)
REMARK    1  A    between atoms: C1_1  and  O2_2 
REMARK    2  A    between atoms: O2_2  and  C12_16 
REMARK    3  A    between atoms: C4_7  and  C7_10 
REMARK    4  A    between atoms: C7_10  and  C8_12 
REMARK    5  A    between atoms: C8_12  and  C9_13 
REMARK    6  A    between atoms: C9_13  and  C10_14 
REMARK    7  A    between atoms: C12_16  and  C13_17 
ROOT
ATOM      1  C1  EAA d           8.949   2.164  27.466  0.00  0.00     0.092 A 
ATOM      2  C2  EAA d           8.201   3.316  27.780  0.00  0.00     0.090 A 
ATOM      3 CL1  EAA d           8.594   4.774  26.956  0.00  0.00    -0.080 Cl
ATOM      4  C3  EAA d           7.185   3.263  28.676  0.00  0.00     0.072 A 
ATOM      5 CL2  EAA d           6.299   4.714  29.053  0.00  0.00    -0.081 Cl
ATOM      6  C4  EAA d           6.858   2.080  29.344  0.00  0.00     0.038 A 
ATOM      7  C5  EAA d           7.615   0.945  29.037  0.00  0.00    -0.065 A 
ATOM      8  C6  EAA d           8.638   0.990  28.130  0.00  0.00    -0.048 A 
ATOM      9  H1  EAA d           7.386   0.008  29.529  0.00  0.00     0.085 H 
ATOM     10  H2  EAA d           9.213   0.094  27.928  0.00  0.00     0.087 H 
ENDROOT
BRANCH   6  11
ATOM     11  C7  EAA d           5.657   1.970  30.232  0.00  0.00     0.189 C 
ATOM     12  O1  EAA d           4.567   1.762  29.759  0.00  0.00    -0.287 OA
BRANCH  11  13
ATOM     13  C8  EAA d           5.796   2.082  31.707  0.00  0.00    -0.017 C 
ATOM     14  C11 EAA d           6.085   1.017  32.397  0.00  0.00    -0.112 C 
ATOM     15  H8  EAA d           6.174   0.052  31.899  0.00  0.00     0.067 H 
ATOM     16  H9  EAA d           6.239   1.089  33.473  0.00  0.00     0.067 H 
BRANCH  13  17
ATOM     17  C9  EAA d           5.649   3.447  32.274  0.00  0.00    -0.041 C 
ATOM     18  H3  EAA d           6.368   4.094  31.751  0.00  0.00     0.039 H 
ATOM     19  H4  EAA d           5.917   3.385  33.339  0.00  0.00     0.039 H 
BRANCH  17  20
ATOM     20  C10 EAA d           4.350   4.098  32.196  0.00  0.00    -0.073 C 
ATOM     21  H5  EAA d           3.557   3.355  32.363  0.00  0.00     0.028 H 
ATOM     22  H6  EAA d           4.226   4.551  31.201  0.00  0.00     0.028 H 
ATOM     23  H7  EAA d           4.286   4.881  32.966  0.00  0.00     0.028 H 
ENDBRANCH  17  20
ENDBRANCH  13  17
ENDBRANCH  11  13
ENDBRANCH   6  11
BRANCH   1  24
ATOM     24  O2  EAA d           9.943   2.316  26.553  0.00  0.00    -0.339 OA
BRANCH  24  25
ATOM     25  C12 EAA d          10.077   1.333  25.550  0.00  0.00     0.106 C 
ATOM     26  H10 EAA d           9.223   0.643  25.599  0.00  0.00     0.091 H 
ATOM     27  H11 EAA d          11.011   0.774  25.710  0.00  0.00     0.091 H 
BRANCH  25  28
ATOM     28  C13 EAA d          10.112   1.978  24.215  0.00  0.00     0.198 C 
ATOM     29  O   EAA d          10.074   3.241  24.226  0.00  0.00    -0.646 OA
ATOM     30  OXT EAA d          10.207   1.294  23.157  0.00  0.00    -0.646 OA
ENDBRANCH  25  28
ENDBRANCH  24  25
ENDBRANCH   1  24
TORSDOF 7
ENDMDL
MODEL 2
REMARK VINA RESULT:      -5.4      1.922      6.728
REMARK  7 active torsions:
REMARK  status: ('A' for Active; 'I' for Inactive)
REMARK    1  A    between atoms: C1_1  and  O2_2 
REMARK    2  A    between atoms: O2_2  and  C12_16 
REMARK    3  A    between atoms: C4_7  and  C7_10 
REMARK    4  A    between atoms: C7_10  and  C8_12 
REMARK    5  A    between atoms: C8_12  and  C9_13 
REMARK    6  A    between atoms: C9_13  and  C10_14 
REMARK    7  A    between atoms: C12_16  and  C13_17 
ROOT
ATOM      1  C1  EAA d           6.414   1.690  28.452  0.00  0.00     0.092 A 
ATOM      2  C2  EAA d           6.108   2.663  27.482  0.00  0.00     0.090 A 
ATOM      3 CL1  EAA d           4.468   3.165  27.340  0.00  0.00    -0.080 Cl
ATOM      4  C3  EAA d           7.082   3.208  26.711  0.00  0.00     0.072 A 
ATOM      5 CL2  EAA d           6.659   4.392  25.507  0.00  0.00    -0.081 Cl
ATOM      6  C4  EAA d           8.416   2.808  26.824  0.00  0.00     0.038 A 
ATOM      7  C5  EAA d           8.708   1.831  27.781  0.00  0.00    -0.065 A 
ATOM      8  C6  EAA d           7.732   1.281  28.566  0.00  0.00    -0.048 A 
ATOM      9  H1  EAA d           9.733   1.502  27.904  0.00  0.00     0.085 H 
ATOM     10  H2  EAA d           7.994   0.515  29.286  0.00  0.00     0.087 H 
ENDROOT
BRANCH   6  11
ATOM     11  C7  EAA d           9.521   3.493  26.081  0.00  0.00     0.189 C 
ATOM     12  O1  EAA d          10.189   4.337  26.624  0.00  0.00    -0.287 OA
BRANCH  11  13
ATOM     13  C8  EAA d           9.831   3.118  24.677  0.00  0.00    -0.017 C 
ATOM     14  C11 EAA d           9.809   4.040  23.758  0.00  0.00    -0.112 C 
ATOM     15  H8  EAA d           9.519   5.058  24.014  0.00  0.00     0.067 H 
ATOM     16  H9  EAA d          10.080   3.793  22.732  0.00  0.00     0.067 H 
BRANCH  13  17
ATOM     17  C9  EAA d          10.207   1.700  24.448  0.00  0.00    -0.041 C 
ATOM     18  H3  EAA d           9.520   1.082  25.044  0.00  0.00     0.039 H 
ATOM     19  H4  EAA d          11.234   1.573  24.823  0.00  0.00     0.039 H 
BRANCH  17  20
ATOM     20  C10 EAA d          10.181   1.182  23.088  0.00  0.00    -0.073 C 
ATOM     21  H5  EAA d          10.324   0.092  23.109  0.00  0.00     0.028 H 
ATOM     22  H6  EAA d          10.988   1.647  22.503  0.00  0.00     0.028 H 
ATOM     23  H7  EAA d           9.211   1.416  22.626  0.00  0.00     0.028 H 
ENDBRANCH  17  20
ENDBRANCH  13  17
ENDBRANCH  11  13
ENDBRANCH   6  11
BRANCH   1  24
ATOM     24  O2  EAA d           5.373   1.207  29.178  0.00  0.00    -0.339 OA
BRANCH  24  25
ATOM     25  C12 EAA d           5.593   0.918  30.541  0.00  0.00     0.106 C 
ATOM     26  H10 EAA d           6.671   0.799  30.719  0.00  0.00     0.091 H 
ATOM     27  H11 EAA d           5.072  -0.015  30.804  0.00  0.00     0.091 H 
BRANCH  25  28
ATOM     28  C13 EAA d           5.074   2.025  31.381  0.00  0.00     0.198 C 
ATOM     29  O   EAA d           5.763   2.293  32.404  0.00  0.00    -0.646 OA
ATOM     30  OXT EAA d           4.032   2.662  31.057  0.00  0.00    -0.646 OA
ENDBRANCH  25  28
ENDBRANCH  24  25
ENDBRANCH   1  24
TORSDOF 7
ENDMDL
MODEL 3
REMARK VINA RESULT:      -5.3      1.324      1.934
REMARK  7 active torsions:
REMARK  status: ('A' for Active; 'I' for Inactive)
REMARK    1  A    between atoms: C1_1  and  O2_2 
REMARK    2  A    between atoms: O2_2  and  C12_16 
REMARK    3  A    between atoms: C4_7  and  C7_10 
REMARK    4  A    between atoms: C7_10  and  C8_12 
REMARK    5  A    between atoms: C8_12  and  C9_13 
REMARK    6  A    between atoms: C9_13  and  C10_14 
REMARK    7  A    between atoms: C12_16  and  C13_17 
ROOT
ATOM      1  C1  EAA d           8.508   2.284  27.629  0.00  0.00     0.092 A 
ATOM      2  C2  EAA d           7.758   3.369  28.124  0.00  0.00     0.090 A 
ATOM      3 CL1  EAA d           7.939   4.891  27.343  0.00  0.00    -0.080 Cl
ATOM      4  C3  EAA d           6.898   3.205  29.160  0.00  0.00     0.072 A 
ATOM      5 CL2  EAA d           6.006   4.575  29.758  0.00  0.00    -0.081 Cl
ATOM      6  C4  EAA d           6.743   1.970  29.795  0.00  0.00     0.038 A 
ATOM      7  C5  EAA d           7.502   0.903  29.306  0.00  0.00    -0.065 A 
ATOM      8  C6  EAA d           8.367   1.059  28.258  0.00  0.00    -0.048 A 
ATOM      9  H1  EAA d           7.402  -0.073  29.768  0.00  0.00     0.085 H 
ATOM     10  H2  EAA d           8.951   0.213  27.915  0.00  0.00     0.087 H 
ENDROOT
BRANCH   6  11
ATOM     11  C7  EAA d           5.702   1.738  30.848  0.00  0.00     0.189 C 
ATOM     12  O1  EAA d           6.016   1.669  32.010  0.00  0.00    -0.287 OA
BRANCH  11  13
ATOM     13  C8  EAA d           4.269   1.621  30.477  0.00  0.00    -0.017 C 
ATOM     14  C11 EAA d           3.396   2.374  31.082  0.00  0.00    -0.112 C 
ATOM     15  H8  EAA d           3.715   3.043  31.881  0.00  0.00     0.067 H 
ATOM     16  H9  EAA d           2.348   2.337  30.790  0.00  0.00     0.067 H 
BRANCH  13  17
ATOM     17  C9  EAA d           3.954   0.673  29.378  0.00  0.00    -0.041 C 
ATOM     18  H3  EAA d           3.102   0.063  29.710  0.00  0.00     0.039 H 
ATOM     19  H4  EAA d           4.836   0.029  29.243  0.00  0.00     0.039 H 
BRANCH  17  20
ATOM     20  C10 EAA d           3.612   1.211  28.069  0.00  0.00    -0.073 C 
ATOM     21  H5  EAA d           3.959   2.252  27.999  0.00  0.00     0.028 H 
ATOM     22  H6  EAA d           2.521   1.177  27.933  0.00  0.00     0.028 H 
ATOM     23  H7  EAA d           4.098   0.609  27.288  0.00  0.00     0.028 H 
ENDBRANCH  17  20
ENDBRANCH  13  17
ENDBRANCH  11  13
ENDBRANCH   6  11
BRANCH   1  24
ATOM     24  O2  EAA d           9.338   2.546  26.587  0.00  0.00    -0.339 OA
BRANCH  24  25
ATOM     25  C12 EAA d           9.918   1.452  25.910  0.00  0.00     0.106 C 
ATOM     26  H10 EAA d           9.287   0.563  26.047  0.00  0.00     0.091 H 
ATOM     27  H11 EAA d          10.919   1.259  26.322  0.00  0.00     0.091 H 
BRANCH  25  28
ATOM     28  C13 EAA d          10.031   1.758  24.463  0.00  0.00     0.198 C 
ATOM     29  O   EAA d          10.207   2.976  24.182  0.00  0.00    -0.646 OA
ATOM     30  OXT EAA d           9.985   0.842  23.594  0.00  0.00    -0.646 OA
ENDBRANCH  25  28
ENDBRANCH  24  25
ENDBRANCH   1  24
TORSDOF 7
ENDMDL
MODEL 4
REMARK VINA RESULT:      -5.3      1.988      6.270
REMARK  7 active torsions:
REMARK  status: ('A' for Active; 'I' for Inactive)
REMARK    1  A    between atoms: C1_1  and  O2_2 
REMARK    2  A    between atoms: O2_2  and  C12_16 
REMARK    3  A    between atoms: C4_7  and  C7_10 
REMARK    4  A    between atoms: C7_10  and  C8_12 
REMARK    5  A    between atoms: C8_12  and  C9_13 
REMARK    6  A    between atoms: C9_13  and  C10_14 
REMARK    7  A    between atoms: C12_16  and  C13_17 
ROOT
ATOM      1  C1  EAA d           6.914   1.500  28.785  0.00  0.00     0.092 A 
ATOM      2  C2  EAA d           6.437   2.455  27.866  0.00  0.00     0.090 A 
ATOM      3 CL1  EAA d           4.830   3.033  28.074  0.00  0.00    -0.080 Cl
ATOM      4  C3  EAA d           7.234   2.923  26.873  0.00  0.00     0.072 A 
ATOM      5 CL2  EAA d           6.599   4.086  25.744  0.00  0.00    -0.081 Cl
ATOM      6  C4  EAA d           8.541   2.461  26.703  0.00  0.00     0.038 A 
ATOM      7  C5  EAA d           9.001   1.503  27.612  0.00  0.00    -0.065 A 
ATOM      8  C6  EAA d           8.205   1.029  28.619  0.00  0.00    -0.048 A 
ATOM      9  H1  EAA d          10.013   1.126  27.516  0.00  0.00     0.085 H 
ATOM     10  H2  EAA d           8.591   0.275  29.295  0.00  0.00     0.087 H 
ENDROOT
BRANCH   6  11
ATOM     11  C7  EAA d           9.477   3.063  25.701  0.00  0.00     0.189 C 
ATOM     12  O1  EAA d           9.791   2.447  24.713  0.00  0.00    -0.287 OA
BRANCH  11  13
ATOM     13  C8  EAA d          10.006   4.438  25.894  0.00  0.00    -0.017 C 
ATOM     14  C11 EAA d          10.207   5.191  24.851  0.00  0.00    -0.112 C 
ATOM     15  H8  EAA d          10.034   4.793  23.852  0.00  0.00     0.067 H 
ATOM     16  H9  EAA d          10.548   6.217  24.977  0.00  0.00     0.067 H 
BRANCH  13  17
ATOM     17  C9  EAA d          10.207   4.868  27.301  0.00  0.00    -0.041 C 
ATOM     18  H3  EAA d          11.270   5.127  27.412  0.00  0.00     0.039 H 
ATOM     19  H4  EAA d           9.971   4.004  27.941  0.00  0.00     0.039 H 
BRANCH  17  20
ATOM     20  C10 EAA d           9.437   5.995  27.804  0.00  0.00    -0.073 C 
ATOM     21  H5  EAA d           8.365   5.810  27.639  0.00  0.00     0.028 H 
ATOM     22  H6  EAA d           9.737   6.911  27.273  0.00  0.00     0.028 H 
ATOM     23  H7  EAA d           9.625   6.117  28.881  0.00  0.00     0.028 H 
ENDBRANCH  17  20
ENDBRANCH  13  17
ENDBRANCH  11  13
ENDBRANCH   6  11
BRANCH   1  24
ATOM     24  O2  EAA d           6.044   1.095  29.746  0.00  0.00    -0.339 OA
BRANCH  24  25
ATOM     25  C12 EAA d           6.421   1.265  31.095  0.00  0.00     0.106 C 
ATOM     26  H10 EAA d           7.378   1.805  31.141  0.00  0.00     0.091 H 
ATOM     27  H11 EAA d           6.533   0.279  31.569  0.00  0.00     0.091 H 
BRANCH  25  28
ATOM     28  C13 EAA d           5.382   2.042  31.814  0.00  0.00     0.198 C 
ATOM     29  O   EAA d           4.196   1.842  31.427  0.00  0.00    -0.646 OA
ATOM     30  OXT EAA d           5.683   2.817  32.765  0.00  0.00    -0.646 OA
ENDBRANCH  25  28
ENDBRANCH  24  25
ENDBRANCH   1  24
TORSDOF 7
ENDMDL
MODEL 5
REMARK VINA RESULT:      -5.0      1.989      2.573
REMARK  7 active torsions:
REMARK  status: ('A' for Active; 'I' for Inactive)
REMARK    1  A    between atoms: C1_1  and  O2_2 
REMARK    2  A    between atoms: O2_2  and  C12_16 
REMARK    3  A    between atoms: C4_7  and  C7_10 
REMARK    4  A    between atoms: C7_10  and  C8_12 
REMARK    5  A    between atoms: C8_12  and  C9_13 
REMARK    6  A    between atoms: C9_13  and  C10_14 
REMARK    7  A    between atoms: C12_16  and  C13_17 
ROOT
ATOM      1  C1  EAA d           8.468   4.387  27.427  0.00  0.00     0.092 A 
ATOM      2  C2  EAA d           8.555   3.012  27.723  0.00  0.00     0.090 A 
ATOM      3 CL1  EAA d           9.944   2.161  27.170  0.00  0.00    -0.080 Cl
ATOM      4  C3  EAA d           7.591   2.394  28.449  0.00  0.00     0.072 A 
ATOM      5 CL2  EAA d           7.725   0.689  28.775  0.00  0.00    -0.081 Cl
ATOM      6  C4  EAA d           6.463   3.081  28.905  0.00  0.00     0.038 A 
ATOM      7  C5  EAA d           6.378   4.442  28.594  0.00  0.00    -0.065 A 
ATOM      8  C6  EAA d           7.349   5.074  27.867  0.00  0.00    -0.048 A 
ATOM      9  H1  EAA d           5.522   5.010  28.938  0.00  0.00     0.085 H 
ATOM     10  H2  EAA d           7.242   6.126  27.632  0.00  0.00     0.087 H 
ENDROOT
BRANCH   6  11
ATOM     11  C7  EAA d           5.459   2.451  29.821  0.00  0.00     0.189 C 
ATOM     12  O1  EAA d           4.427   2.010  29.381  0.00  0.00    -0.287 OA
BRANCH  11  13
ATOM     13  C8  EAA d           5.736   2.331  31.275  0.00  0.00    -0.017 C 
ATOM     14  C11 EAA d           6.133   1.186  31.751  0.00  0.00    -0.112 C 
ATOM     15  H8  EAA d           6.212   0.321  31.093  0.00  0.00     0.067 H 
ATOM     16  H9  EAA d           6.387   1.092  32.806  0.00  0.00     0.067 H 
BRANCH  13  17
ATOM     17  C9  EAA d           5.590   3.576  32.072  0.00  0.00    -0.041 C 
ATOM     18  H3  EAA d           6.497   4.175  31.904  0.00  0.00     0.039 H 
ATOM     19  H4  EAA d           5.536   3.279  33.130  0.00  0.00     0.039 H 
BRANCH  17  20
ATOM     20  C10 EAA d           4.450   4.441  31.811  0.00  0.00    -0.073 C 
ATOM     21  H5  EAA d           4.750   5.492  31.940  0.00  0.00     0.028 H 
ATOM     22  H6  EAA d           3.640   4.202  32.517  0.00  0.00     0.028 H 
ATOM     23  H7  EAA d           4.097   4.284  30.782  0.00  0.00     0.028 H 
ENDBRANCH  17  20
ENDBRANCH  13  17
ENDBRANCH  11  13
ENDBRANCH   6  11
BRANCH   1  24
ATOM     24  O2  EAA d           9.484   4.917  26.698  0.00  0.00    -0.339 OA
BRANCH  24  25
ATOM     25  C12 EAA d           9.154   5.684  25.561  0.00  0.00     0.106 C 
ATOM     26  H10 EAA d          10.022   6.292  25.268  0.00  0.00     0.091 H 
ATOM     27  H11 EAA d           8.307   6.343  25.800  0.00  0.00     0.091 H 
BRANCH  25  28
ATOM     28  C13 EAA d           8.780   4.787  24.441  0.00  0.00     0.198 C 
ATOM     29  O   EAA d           9.673   3.968  24.084  0.00  0.00    -0.646 OA
ATOM     30  OXT EAA d           7.631   4.835  23.918  0.00  0.00    -0.646 OA
ENDBRANCH  25  28
ENDBRANCH  24  25
ENDBRANCH   1  24
TORSDOF 7
ENDMDL
MODEL 6
REMARK VINA RESULT:      -4.9      2.487      6.602
REMARK  7 active torsions:
REMARK  status: ('A' for Active; 'I' for Inactive)
REMARK    1  A    between atoms: C1_1  and  O2_2 
REMARK    2  A    between atoms: O2_2  and  C12_16 
REMARK    3  A    between atoms: C4_7  and  C7_10 
REMARK    4  A    between atoms: C7_10  and  C8_12 
REMARK    5  A    between atoms: C8_12  and  C9_13 
REMARK    6  A    between atoms: C9_13  and  C10_14 
REMARK    7  A    between atoms: C12_16  and  C13_17 
ROOT
ATOM      1  C1  EAA d           6.640   3.187  29.317  0.00  0.00     0.092 A 
ATOM      2  C2  EAA d           7.551   2.345  28.649  0.00  0.00     0.090 A 
ATOM      3 CL1  EAA d           7.562   0.678  29.077  0.00  0.00    -0.080 Cl
ATOM      4  C3  EAA d           8.365   2.830  27.679  0.00  0.00     0.072 A 
ATOM      5 CL2  EAA d           9.492   1.762  26.894  0.00  0.00    -0.081 Cl
ATOM      6  C4  EAA d           8.357   4.182  27.325  0.00  0.00     0.038 A 
ATOM      7  C5  EAA d           7.459   5.013  28.003  0.00  0.00    -0.065 A 
ATOM      8  C6  EAA d           6.631   4.529  28.978  0.00  0.00    -0.048 A 
ATOM      9  H1  EAA d           7.419   6.066  27.749  0.00  0.00     0.085 H 
ATOM     10  H2  EAA d           5.959   5.206  29.493  0.00  0.00     0.087 H 
ENDROOT
BRANCH   6  11
ATOM     11  C7  EAA d           9.148   4.709  26.167  0.00  0.00     0.189 C 
ATOM     12  O1  EAA d          10.207   5.255  26.351  0.00  0.00    -0.287 OA
BRANCH  11  13
ATOM     13  C8  EAA d           8.654   4.538  24.777  0.00  0.00    -0.017 C 
ATOM     14  C11 EAA d           7.403   4.788  24.515  0.00  0.00    -0.112 C 
ATOM     15  H8  EAA d           6.725   5.070  25.319  0.00  0.00     0.067 H 
ATOM     16  H9  EAA d           7.035   4.714  23.493  0.00  0.00     0.067 H 
BRANCH  13  17
ATOM     17  C9  EAA d           9.669   4.145  23.767  0.00  0.00    -0.041 C 
ATOM     18  H3  EAA d          10.640   4.522  24.121  0.00  0.00     0.039 H 
ATOM     19  H4  EAA d           9.402   4.647  22.826  0.00  0.00     0.039 H 
BRANCH  17  20
ATOM     20  C10 EAA d           9.842   2.732  23.464  0.00  0.00    -0.073 C 
ATOM     21  H5  EAA d           9.029   2.396  22.805  0.00  0.00     0.028 H 
ATOM     22  H6  EAA d           9.821   2.151  24.399  0.00  0.00     0.028 H 
ATOM     23  H7  EAA d          10.808   2.581  22.960  0.00  0.00     0.028 H 
ENDBRANCH  17  20
ENDBRANCH  13  17
ENDBRANCH  11  13
ENDBRANCH   6  11
BRANCH   1  24
ATOM     24  O2  EAA d           5.864   2.608  30.269  0.00  0.00    -0.339 OA
BRANCH  24  25
ATOM     25  C12 EAA d           4.469   2.806  30.198  0.00  0.00     0.106 C 
ATOM     26  H10 EAA d           4.262   3.856  29.945  0.00  0.00     0.091 H 
ATOM     27  H11 EAA d           4.016   2.566  31.171  0.00  0.00     0.091 H 
BRANCH  25  28
ATOM     28  C13 EAA d           3.888   1.926  29.155  0.00  0.00     0.198 C 
ATOM     29  O   EAA d           4.102   0.691  29.312  0.00  0.00    -0.646 OA
ATOM     30  OXT EAA d           3.203   2.397  28.204  0.00  0.00    -0.646 OA
ENDBRANCH  25  28
ENDBRANCH  24  25
ENDBRANCH   1  24
TORSDOF 7
ENDMDL
MODEL 7
REMARK VINA RESULT:      -4.9      2.625      6.777
REMARK  7 active torsions:
REMARK  status: ('A' for Active; 'I' for Inactive)
REMARK    1  A    between atoms: C1_1  and  O2_2 
REMARK    2  A    between atoms: O2_2  and  C12_16 
REMARK    3  A    between atoms: C4_7  and  C7_10 
REMARK    4  A    between atoms: C7_10  and  C8_12 
REMARK    5  A    between atoms: C8_12  and  C9_13 
REMARK    6  A    between atoms: C9_13  and  C10_14 
REMARK    7  A    between atoms: C12_16  and  C13_17 
ROOT
ATOM      1  C1  EAA d           6.926   3.040  28.937  0.00  0.00     0.092 A 
ATOM      2  C2  EAA d           7.889   2.357  28.168  0.00  0.00     0.090 A 
ATOM      3 CL1  EAA d           8.067   0.666  28.427  0.00  0.00    -0.080 Cl
ATOM      4  C3  EAA d           8.623   3.010  27.233  0.00  0.00     0.072 A 
ATOM      5 CL2  EAA d           9.819   2.134  26.320  0.00  0.00    -0.081 Cl
ATOM      6  C4  EAA d           8.480   4.382  27.015  0.00  0.00     0.038 A 
ATOM      7  C5  EAA d           7.531   5.054  27.793  0.00  0.00    -0.065 A 
ATOM      8  C6  EAA d           6.783   4.402  28.734  0.00  0.00    -0.048 A 
ATOM      9  H1  EAA d           7.385   6.118  27.646  0.00  0.00     0.085 H 
ATOM     10  H2  EAA d           6.068   4.958  29.328  0.00  0.00     0.087 H 
ENDROOT
BRANCH   6  11
ATOM     11  C7  EAA d           9.181   5.092  25.898  0.00  0.00     0.189 C 
ATOM     12  O1  EAA d          10.127   5.803  26.127  0.00  0.00    -0.287 OA
BRANCH  11  13
ATOM     13  C8  EAA d           8.741   4.904  24.492  0.00  0.00    -0.017 C 
ATOM     14  C11 EAA d           9.376   4.051  23.739  0.00  0.00    -0.112 C 
ATOM     15  H8  EAA d          10.246   3.524  24.128  0.00  0.00     0.067 H 
ATOM     16  H9  EAA d           9.037   3.865  22.721  0.00  0.00     0.067 H 
BRANCH  13  17
ATOM     17  C9  EAA d           7.546   5.680  24.073  0.00  0.00    -0.041 C 
ATOM     18  H3  EAA d           7.588   5.773  22.977  0.00  0.00     0.039 H 
ATOM     19  H4  EAA d           7.632   6.678  24.529  0.00  0.00     0.039 H 
BRANCH  17  20
ATOM     20  C10 EAA d           6.227   5.167  24.409  0.00  0.00    -0.073 C 
ATOM     21  H5  EAA d           6.273   4.072  24.504  0.00  0.00     0.028 H 
ATOM     22  H6  EAA d           5.515   5.437  23.615  0.00  0.00     0.028 H 
ATOM     23  H7  EAA d           5.896   5.604  25.362  0.00  0.00     0.028 H 
ENDBRANCH  17  20
ENDBRANCH  13  17
ENDBRANCH  11  13
ENDBRANCH   6  11
BRANCH   1  24
ATOM     24  O2  EAA d           6.238   2.300  29.844  0.00  0.00    -0.339 OA
BRANCH  24  25
ATOM     25  C12 EAA d           6.108   2.810  31.153  0.00  0.00     0.106 C 
ATOM     26  H10 EAA d           5.415   3.664  31.145  0.00  0.00     0.091 H 
ATOM     27  H11 EAA d           7.092   3.140  31.515  0.00  0.00     0.091 H 
BRANCH  25  28
ATOM     28  C13 EAA d           5.580   1.756  32.053  0.00  0.00     0.198 C 
ATOM     29  O   EAA d           4.431   1.323  31.759  0.00  0.00    -0.646 OA
ATOM     30  OXT EAA d           6.263   1.316  33.020  0.00  0.00    -0.646 OA
ENDBRANCH  25  28
ENDBRANCH  24  25
ENDBRANCH   1  24
TORSDOF 7
ENDMDL
MODEL 8
REMARK VINA RESULT:      -4.6      2.436      2.728
REMARK  7 active torsions:
REMARK  status: ('A' for Active; 'I' for Inactive)
REMARK    1  A    between atoms: C1_1  and  O2_2 
REMARK    2  A    between atoms: O2_2  and  C12_16 
REMARK    3  A    between atoms: C4_7  and  C7_10 
REMARK    4  A    between atoms: C7_10  and  C8_12 
REMARK    5  A    between atoms: C8_12  and  C9_13 
REMARK    6  A    between atoms: C9_13  and  C10_14 
REMARK    7  A    between atoms: C12_16  and  C13_17 
ROOT
ATOM      1  C1  EAA d           7.246   4.288  26.308  0.00  0.00     0.092 A 
ATOM      2  C2  EAA d           5.861   4.076  26.454  0.00  0.00     0.090 A 
ATOM      3 CL1  EAA d           4.813   4.818  25.308  0.00  0.00    -0.080 Cl
ATOM      4  C3  EAA d           5.379   3.285  27.444  0.00  0.00     0.072 A 
ATOM      5 CL2  EAA d           3.659   3.066  27.603  0.00  0.00    -0.081 Cl
ATOM      6  C4  EAA d           6.225   2.676  28.374  0.00  0.00     0.038 A 
ATOM      7  C5  EAA d           7.597   2.904  28.230  0.00  0.00    -0.065 A 
ATOM      8  C6  EAA d           8.092   3.696  27.230  0.00  0.00    -0.048 A 
ATOM      9  H1  EAA d           8.286   2.441  28.928  0.00  0.00     0.085 H 
ATOM     10  H2  EAA d           9.161   3.862  27.159  0.00  0.00     0.087 H 
ENDROOT
BRANCH   6  11
ATOM     11  C7  EAA d           5.724   1.694  29.387  0.00  0.00     0.189 C 
ATOM     12  O1  EAA d           5.202   0.666  29.033  0.00  0.00    -0.287 OA
BRANCH  11  13
ATOM     13  C8  EAA d           5.892   1.956  30.840  0.00  0.00    -0.017 C 
ATOM     14  C11 EAA d           6.415   1.032  31.593  0.00  0.00    -0.112 C 
ATOM     15  H8  EAA d           6.677   0.065  31.165  0.00  0.00     0.067 H 
ATOM     16  H9  EAA d           6.590   1.225  32.650  0.00  0.00     0.067 H 
BRANCH  13  17
ATOM     17  C9  EAA d           5.495   3.308  31.308  0.00  0.00    -0.041 C 
ATOM     18  H3  EAA d           4.497   3.515  30.893  0.00  0.00     0.039 H 
ATOM     19  H4  EAA d           6.221   4.022  30.891  0.00  0.00     0.039 H 
BRANCH  17  20
ATOM     20  C10 EAA d           5.423   3.558  32.740  0.00  0.00    -0.073 C 
ATOM     21  H5  EAA d           5.585   4.628  32.934  0.00  0.00     0.028 H 
ATOM     22  H6  EAA d           6.198   2.970  33.254  0.00  0.00     0.028 H 
ATOM     23  H7  EAA d           4.431   3.263  33.114  0.00  0.00     0.028 H 
ENDBRANCH  17  20
ENDBRANCH  13  17
ENDBRANCH  11  13
ENDBRANCH   6  11
BRANCH   1  24
ATOM     24  O2  EAA d           7.633   5.091  25.284  0.00  0.00    -0.339 OA
BRANCH  24  25
ATOM     25  C12 EAA d           8.547   4.571  24.343  0.00  0.00     0.106 C 
ATOM     26  H10 EAA d           8.055   4.492  23.363  0.00  0.00     0.091 H 
ATOM     27  H11 EAA d           8.879   3.575  24.670  0.00  0.00     0.091 H 
BRANCH  25  28
ATOM     28  C13 EAA d           9.722   5.470  24.233  0.00  0.00     0.198 C 
ATOM     29  O   EAA d          10.206   5.861  25.332  0.00  0.00    -0.646 OA
ATOM     30  OXT EAA d          10.207   5.781  23.109  0.00  0.00    -0.646 OA
ENDBRANCH  25  28
ENDBRANCH  24  25
ENDBRANCH   1  24
TORSDOF 7
ENDMDL
MODEL 9
REMARK VINA RESULT:      -4.6      2.624      3.366
REMARK  7 active torsions:
REMARK  status: ('A' for Active; 'I' for Inactive)
REMARK    1  A    between atoms: C1_1  and  O2_2 
REMARK    2  A    between atoms: O2_2  and  C12_16 
REMARK    3  A    between atoms: C4_7  and  C7_10 
REMARK    4  A    between atoms: C7_10  and  C8_12 
REMARK    5  A    between atoms: C8_12  and  C9_13 
REMARK    6  A    between atoms: C9_13  and  C10_14 
REMARK    7  A    between atoms: C12_16  and  C13_17 
ROOT
ATOM      1  C1  EAA d           6.997   4.151  25.528  0.00  0.00     0.092 A 
ATOM      2  C2  EAA d           7.729   3.263  26.340  0.00  0.00     0.090 A 
ATOM      3 CL1  EAA d           9.350   2.911  25.882  0.00  0.00    -0.080 Cl
ATOM      4  C3  EAA d           7.182   2.733  27.462  0.00  0.00     0.072 A 
ATOM      5 CL2  EAA d           8.112   1.621  28.426  0.00  0.00    -0.081 Cl
ATOM      6  C4  EAA d           5.868   3.018  27.841  0.00  0.00     0.038 A 
ATOM      7  C5  EAA d           5.144   3.890  27.021  0.00  0.00    -0.065 A 
ATOM      8  C6  EAA d           5.691   4.433  25.891  0.00  0.00    -0.048 A 
ATOM      9  H1  EAA d           4.124   4.142  27.288  0.00  0.00     0.085 H 
ATOM     10  H2  EAA d           5.095   5.093  25.272  0.00  0.00     0.087 H 
ENDROOT
BRANCH   6  11
ATOM     11  C7  EAA d           5.293   2.553  29.144  0.00  0.00     0.189 C 
ATOM     12  O1  EAA d           4.644   1.538  29.195  0.00  0.00    -0.287 OA
BRANCH  11  13
ATOM     13  C8  EAA d           5.542   3.317  30.393  0.00  0.00    -0.017 C 
ATOM     14  C11 EAA d           5.710   4.606  30.323  0.00  0.00    -0.112 C 
ATOM     15  H8  EAA d           5.715   5.102  29.353  0.00  0.00     0.067 H 
ATOM     16  H9  EAA d           5.845   5.188  31.233  0.00  0.00     0.067 H 
BRANCH  13  17
ATOM     17  C9  EAA d           5.517   2.532  31.653  0.00  0.00    -0.041 C 
ATOM     18  H3  EAA d           6.313   1.777  31.581  0.00  0.00     0.039 H 
ATOM     19  H4  EAA d           4.539   2.030  31.703  0.00  0.00     0.039 H 
BRANCH  17  20
ATOM     20  C10 EAA d           5.704   3.232  32.915  0.00  0.00    -0.073 C 
ATOM     21  H5  EAA d           5.673   2.509  33.744  0.00  0.00     0.028 H 
ATOM     22  H6  EAA d           4.901   3.973  33.046  0.00  0.00     0.028 H 
ATOM     23  H7  EAA d           6.677   3.743  32.911  0.00  0.00     0.028 H 
ENDBRANCH  17  20
ENDBRANCH  13  17
ENDBRANCH  11  13
ENDBRANCH   6  11
BRANCH   1  24
ATOM     24  O2  EAA d           7.632   4.633  24.429  0.00  0.00    -0.339 OA
BRANCH  24  25
ATOM     25  C12 EAA d           7.834   6.026  24.338  0.00  0.00     0.106 C 
ATOM     26  H10 EAA d           7.099   6.543  24.971  0.00  0.00     0.091 H 
ATOM     27  H11 EAA d           7.708   6.345  23.293  0.00  0.00     0.091 H 
BRANCH  25  28
ATOM     28  C13 EAA d           9.204   6.367  24.795  0.00  0.00     0.198 C 
ATOM     29  O   EAA d           9.305   6.664  26.018  0.00  0.00    -0.646 OA
ATOM     30  OXT EAA d          10.189   6.323  24.005  0.00  0.00    -0.646 OA
ENDBRANCH  25  28
ENDBRANCH  24  25
ENDBRANCH   1  24
TORSDOF 7
ENDMDL
MODEL 10
REMARK VINA RESULT:      -4.6      2.254      6.728
REMARK  7 active torsions:
REMARK  status: ('A' for Active; 'I' for Inactive)
REMARK    1  A    between atoms: C1_1  and  O2_2 
REMARK    2  A    between atoms: O2_2  and  C12_16 
REMARK    3  A    between atoms: C4_7  and  C7_10 
REMARK    4  A    between atoms: C7_10  and  C8_12 
REMARK    5  A    between atoms: C8_12  and  C9_13 
REMARK    6  A    between atoms: C9_13  and  C10_14 
REMARK    7  A    between atoms: C12_16  and  C13_17 
ROOT
ATOM      1  C1  EAA d           5.785   4.492  28.272  0.00  0.00     0.092 A 
ATOM      2  C2  EAA d           6.982   5.230  28.349  0.00  0.00     0.090 A 
ATOM      3 CL1  EAA d           6.989   6.645  29.328  0.00  0.00    -0.080 Cl
ATOM      4  C3  EAA d           8.097   4.816  27.699  0.00  0.00     0.072 A 
ATOM      5 CL2  EAA d           9.551   5.769  27.800  0.00  0.00    -0.081 Cl
ATOM      6  C4  EAA d           8.099   3.666  26.906  0.00  0.00     0.038 A 
ATOM      7  C5  EAA d           6.902   2.948  26.824  0.00  0.00    -0.065 A 
ATOM      8  C6  EAA d           5.774   3.356  27.482  0.00  0.00    -0.048 A 
ATOM      9  H1  EAA d           6.867   2.045  26.225  0.00  0.00     0.085 H 
ATOM     10  H2  EAA d           4.860   2.782  27.383  0.00  0.00     0.087 H 
ENDROOT
BRANCH   6  11
ATOM     11  C7  EAA d           9.352   3.120  26.292  0.00  0.00     0.189 C 
ATOM     12  O1  EAA d          10.207   2.632  26.987  0.00  0.00    -0.287 OA
BRANCH  11  13
ATOM     13  C8  EAA d           9.542   3.143  24.819  0.00  0.00    -0.017 C 
ATOM     14  C11 EAA d           9.968   2.068  24.220  0.00  0.00    -0.112 C 
ATOM     15  H8  EAA d          10.225   1.185  24.804  0.00  0.00     0.067 H 
ATOM     16  H9  EAA d          10.067   2.052  23.136  0.00  0.00     0.067 H 
BRANCH  13  17
ATOM     17  C9  EAA d           9.163   4.404  24.132  0.00  0.00    -0.041 C 
ATOM     18  H3  EAA d           8.438   4.919  24.778  0.00  0.00     0.039 H 
ATOM     19  H4  EAA d           8.677   4.123  23.186  0.00  0.00     0.039 H 
BRANCH  17  20
ATOM     20  C10 EAA d          10.207   5.364  23.808  0.00  0.00    -0.073 C 
ATOM     21  H5  EAA d           9.858   6.379  24.046  0.00  0.00     0.028 H 
ATOM     22  H6  EAA d          10.446   5.299  22.736  0.00  0.00     0.028 H 
ATOM     23  H7  EAA d          11.108   5.139  24.398  0.00  0.00     0.028 H 
ENDBRANCH  17  20
ENDBRANCH  13  17
ENDBRANCH  11  13
ENDBRANCH   6  11
BRANCH   1  24
ATOM     24  O2  EAA d           4.723   4.984  28.962  0.00  0.00    -0.339 OA
BRANCH  24  25
ATOM     25  C12 EAA d           3.850   4.064  29.578  0.00  0.00     0.106 C 
ATOM     26  H10 EAA d           3.805   3.144  28.977  0.00  0.00     0.091 H 
ATOM     27  H11 EAA d           2.845   4.505  29.648  0.00  0.00     0.091 H 
BRANCH  25  28
ATOM     28  C13 EAA d           4.340   3.739  30.940  0.00  0.00     0.198 C 
ATOM     29  O   EAA d           4.241   4.672  31.785  0.00  0.00    -0.646 OA
ATOM     30  OXT EAA d           4.789   2.592  31.220  0.00  0.00    -0.646 OA
ENDBRANCH  25  28
ENDBRANCH  24  25
ENDBRANCH   1  24
TORSDOF 7
ENDMDL
