MODEL 1
REMARK VINA RESULT:      -6.4      0.000      0.000
REMARK  6 active torsions:
REMARK  status: ('A' for Active; 'I' for Inactive)
REMARK    1  A    between atoms: CA_1  and  C_2 
REMARK    2  A    between atoms: C6_6  and  CA_1 
REMARK    3  A    between atoms: CA_1  and  N_8 
REMARK    4  A    between atoms: C7_7  and  C3_3 
REMARK    5  A    between atoms: C4_4  and  N4_11 
REMARK    6  A    between atoms: C6_6  and  C7_7 
ROOT
ATOM      1  C7  Z70 d         -20.605  14.123  -5.148  0.00  0.00    -0.023 C 
ATOM      2  H5  Z70 d         -20.985  14.173  -4.117  0.00  0.00     0.042 H 
ATOM      3  H6  Z70 d         -21.332  14.589  -5.830  0.00  0.00     0.042 H 
ENDROOT
BRANCH   1   4
ATOM      4  C3  Z70 d         -20.453  12.656  -5.536  0.00  0.00     0.029 A 
ATOM      5  C5  Z70 d         -19.311  12.226  -6.366  0.00  0.00     0.028 A 
ATOM      6  N3  Z70 d         -19.519  10.857  -6.516  0.00  0.00    -0.226 NA
ATOM      7  H2  Z70 d         -18.501  12.833  -6.767  0.00  0.00     0.117 H 
ATOM      8  C4  Z70 d         -20.688  10.519  -5.827  0.00  0.00     0.199 A 
ATOM      9  N2  Z70 d         -21.264  11.585  -5.231  0.00  0.00    -0.329 N 
ATOM     10  H10 Z70 d         -22.127  11.595  -4.668  0.00  0.00     0.169 HD
BRANCH   8  11
ATOM     11  N4  Z70 d         -21.203   9.236  -5.764  0.00  0.00    -0.369 N 
ATOM     12  H11 Z70 d         -20.921   8.533  -6.462  0.00  0.00     0.159 HD
ATOM     13  H12 Z70 d         -21.867   8.983  -5.019  0.00  0.00     0.159 HD
ENDBRANCH   8  11
ENDBRANCH   1   4
BRANCH   1  14
ATOM     14  C6  Z70 d         -19.299  14.912  -5.220  0.00  0.00    -0.024 C 
ATOM     15  H3  Z70 d         -18.579  14.451  -4.529  0.00  0.00     0.037 H 
ATOM     16  H4  Z70 d         -18.914  14.846  -6.249  0.00  0.00     0.037 H 
BRANCH  14  17
ATOM     17  CA  Z70 d         -19.437  16.410  -4.849  0.00  0.00     0.182 C 
ATOM     18  H1  Z70 d         -18.518  16.934  -5.152  0.00  0.00     0.101 H 
BRANCH  17  19
ATOM     19  C   Z70 d         -20.642  17.136  -5.489  0.00  0.00     0.204 C 
ATOM     20  OXT Z70 d         -21.676  17.457  -4.783  0.00  0.00    -0.646 OA
ATOM     21  O   Z70 d         -20.631  17.424  -6.739  0.00  0.00    -0.646 OA
ENDBRANCH  17  19
BRANCH  17  22
ATOM     22  N   Z70 d         -19.579  16.456  -3.434  0.00  0.00    -0.065 N 
ATOM     23  H7  Z70 d         -20.536  16.257  -3.186  0.00  0.00     0.275 HD
ATOM     24  H8  Z70 d         -19.329  17.374  -3.101  0.00  0.00     0.275 HD
ATOM     25  H9  Z70 d         -18.973  15.769  -3.013  0.00  0.00     0.275 HD
ENDBRANCH  17  22
ENDBRANCH  14  17
ENDBRANCH   1  14
TORSDOF 6
ENDMDL
MODEL 2
REMARK VINA RESULT:      -5.5      1.805      2.100
REMARK  6 active torsions:
REMARK  status: ('A' for Active; 'I' for Inactive)
REMARK    1  A    between atoms: CA_1  and  C_2 
REMARK    2  A    between atoms: C6_6  and  CA_1 
REMARK    3  A    between atoms: CA_1  and  N_8 
REMARK    4  A    between atoms: C7_7  and  C3_3 
REMARK    5  A    between atoms: C4_4  and  N4_11 
REMARK    6  A    between atoms: C6_6  and  C7_7 
ROOT
ATOM      1  C7  Z70 d         -21.215  15.186  -6.048  0.00  0.00    -0.023 C 
ATOM      2  H5  Z70 d         -21.690  15.391  -5.077  0.00  0.00     0.042 H 
ATOM      3  H6  Z70 d         -21.976  15.216  -6.842  0.00  0.00     0.042 H 
ENDROOT
BRANCH   1   4
ATOM      4  C3  Z70 d         -20.615  13.785  -6.006  0.00  0.00     0.029 A 
ATOM      5  C5  Z70 d         -19.378  13.488  -6.754  0.00  0.00     0.028 A 
ATOM      6  N3  Z70 d         -19.157  12.139  -6.488  0.00  0.00    -0.226 NA
ATOM      7  H2  Z70 d         -18.782  14.161  -7.367  0.00  0.00     0.117 H 
ATOM      8  C4  Z70 d         -20.184  11.689  -5.652  0.00  0.00     0.199 A 
ATOM      9  N2  Z70 d         -21.070  12.661  -5.350  0.00  0.00    -0.329 N 
ATOM     10  H10 Z70 d         -21.907  12.581  -4.756  0.00  0.00     0.169 HD
BRANCH   8  11
ATOM     11  N4  Z70 d         -20.286  10.390  -5.186  0.00  0.00    -0.369 N 
ATOM     12  H11 Z70 d         -21.198   9.911  -5.190  0.00  0.00     0.159 HD
ATOM     13  H12 Z70 d         -19.450   9.900  -4.836  0.00  0.00     0.159 HD
ENDBRANCH   8  11
ENDBRANCH   1   4
BRANCH   1  14
ATOM     14  C6  Z70 d         -20.187  16.282  -6.323  0.00  0.00    -0.024 C 
ATOM     15  H3  Z70 d         -19.314  15.821  -6.808  0.00  0.00     0.037 H 
ATOM     16  H4  Z70 d         -20.640  17.015  -7.006  0.00  0.00     0.037 H 
BRANCH  14  17
ATOM     17  CA  Z70 d         -19.699  17.033  -5.059  0.00  0.00     0.182 C 
ATOM     18  H1  Z70 d         -20.333  17.920  -4.910  0.00  0.00     0.101 H 
BRANCH  17  19
ATOM     19  C   Z70 d         -19.714  16.202  -3.756  0.00  0.00     0.204 C 
ATOM     20  OXT Z70 d         -18.612  15.809  -3.206  0.00  0.00    -0.646 OA
ATOM     21  O   Z70 d         -20.829  15.886  -3.207  0.00  0.00    -0.646 OA
ENDBRANCH  17  19
BRANCH  17  22
ATOM     22  N   Z70 d         -18.360  17.432  -5.327  0.00  0.00    -0.065 N 
ATOM     23  H7  Z70 d         -17.939  17.787  -4.482  0.00  0.00     0.275 HD
ATOM     24  H8  Z70 d         -18.359  18.153  -6.032  0.00  0.00     0.275 HD
ATOM     25  H9  Z70 d         -17.833  16.639  -5.658  0.00  0.00     0.275 HD
ENDBRANCH  17  22
ENDBRANCH  14  17
ENDBRANCH   1  14
TORSDOF 6
ENDMDL
MODEL 3
REMARK VINA RESULT:      -5.4      3.492      5.847
REMARK  6 active torsions:
REMARK  status: ('A' for Active; 'I' for Inactive)
REMARK    1  A    between atoms: CA_1  and  C_2 
REMARK    2  A    between atoms: C6_6  and  CA_1 
REMARK    3  A    between atoms: CA_1  and  N_8 
REMARK    4  A    between atoms: C7_7  and  C3_3 
REMARK    5  A    between atoms: C4_4  and  N4_11 
REMARK    6  A    between atoms: C6_6  and  C7_7 
ROOT
ATOM      1  C7  Z70 d         -19.441  14.096  -6.824  0.00  0.00    -0.023 C 
ATOM      2  H5  Z70 d         -18.448  14.420  -7.170  0.00  0.00     0.042 H 
ATOM      3  H6  Z70 d         -20.067  13.842  -7.693  0.00  0.00     0.042 H 
ENDROOT
BRANCH   1   4
ATOM      4  C3  Z70 d         -20.096  15.254  -6.080  0.00  0.00     0.029 A 
ATOM      5  C5  Z70 d         -20.062  15.298  -4.605  0.00  0.00     0.028 A 
ATOM      6  N3  Z70 d         -20.756  16.467  -4.302  0.00  0.00    -0.226 NA
ATOM      7  H2  Z70 d         -19.604  14.587  -3.919  0.00  0.00     0.117 H 
ATOM      8  C4  Z70 d         -21.161  17.054  -5.504  0.00  0.00     0.199 A 
ATOM      9  N2  Z70 d         -20.774  16.342  -6.584  0.00  0.00    -0.329 N 
ATOM     10  H10 Z70 d         -20.949  16.565  -7.575  0.00  0.00     0.169 HD
BRANCH   8  11
ATOM     11  N4  Z70 d         -21.882  18.233  -5.583  0.00  0.00    -0.369 N 
ATOM     12  H11 Z70 d         -21.395  19.125  -5.749  0.00  0.00     0.159 HD
ATOM     13  H12 Z70 d         -22.906  18.218  -5.475  0.00  0.00     0.159 HD
ENDBRANCH   8  11
ENDBRANCH   1   4
BRANCH   1  14
ATOM     14  C6  Z70 d         -19.268  12.841  -5.970  0.00  0.00    -0.024 C 
ATOM     15  H3  Z70 d         -18.320  12.361  -6.251  0.00  0.00     0.037 H 
ATOM     16  H4  Z70 d         -19.226  13.147  -4.914  0.00  0.00     0.037 H 
BRANCH  14  17
ATOM     17  CA  Z70 d         -20.404  11.799  -6.129  0.00  0.00     0.182 C 
ATOM     18  H1  Z70 d         -20.800  11.862  -7.153  0.00  0.00     0.101 H 
BRANCH  17  19
ATOM     19  C   Z70 d         -19.992  10.334  -5.859  0.00  0.00     0.204 C 
ATOM     20  OXT Z70 d         -19.672   9.544  -6.831  0.00  0.00    -0.646 OA
ATOM     21  O   Z70 d         -19.972   9.881  -4.659  0.00  0.00    -0.646 OA
ENDBRANCH  17  19
BRANCH  17  22
ATOM     22  N   Z70 d         -21.412  12.167  -5.194  0.00  0.00    -0.065 N 
ATOM     23  H7  Z70 d         -21.468  13.172  -5.139  0.00  0.00     0.275 HD
ATOM     24  H8  Z70 d         -21.181  11.792  -4.286  0.00  0.00     0.275 HD
ATOM     25  H9  Z70 d         -22.300  11.796  -5.494  0.00  0.00     0.275 HD
ENDBRANCH  17  22
ENDBRANCH  14  17
ENDBRANCH   1  14
TORSDOF 6
ENDMDL
MODEL 4
REMARK VINA RESULT:      -5.0      2.668      5.599
REMARK  6 active torsions:
REMARK  status: ('A' for Active; 'I' for Inactive)
REMARK    1  A    between atoms: CA_1  and  C_2 
REMARK    2  A    between atoms: C6_6  and  CA_1 
REMARK    3  A    between atoms: CA_1  and  N_8 
REMARK    4  A    between atoms: C7_7  and  C3_3 
REMARK    5  A    between atoms: C4_4  and  N4_11 
REMARK    6  A    between atoms: C6_6  and  C7_7 
ROOT
ATOM      1  C7  Z70 d         -19.081  14.917  -4.406  0.00  0.00    -0.023 C 
ATOM      2  H5  Z70 d         -18.624  15.078  -3.418  0.00  0.00     0.042 H 
ATOM      3  H6  Z70 d         -18.318  14.541  -5.106  0.00  0.00     0.042 H 
ENDROOT
BRANCH   1   4
ATOM      4  C3  Z70 d         -19.594  16.255  -4.926  0.00  0.00     0.029 A 
ATOM      5  C5  Z70 d         -18.652  17.235  -5.501  0.00  0.00     0.028 A 
ATOM      6  N3  Z70 d         -19.472  18.308  -5.842  0.00  0.00    -0.226 NA
ATOM      7  H2  Z70 d         -17.575  17.141  -5.629  0.00  0.00     0.117 H 
ATOM      8  C4  Z70 d         -20.785  17.978  -5.492  0.00  0.00     0.199 A 
ATOM      9  N2  Z70 d         -20.880  16.749  -4.940  0.00  0.00    -0.329 N 
ATOM     10  H10 Z70 d         -21.733  16.281  -4.602  0.00  0.00     0.169 HD
BRANCH   8  11
ATOM     11  N4  Z70 d         -21.868  18.817  -5.684  0.00  0.00    -0.369 N 
ATOM     12  H11 Z70 d         -22.452  18.720  -6.527  0.00  0.00     0.159 HD
ATOM     13  H12 Z70 d         -22.092  19.539  -4.984  0.00  0.00     0.159 HD
ENDBRANCH   8  11
ENDBRANCH   1   4
BRANCH   1  14
ATOM     14  C6  Z70 d         -20.172  13.857  -4.267  0.00  0.00    -0.024 C 
ATOM     15  H3  Z70 d         -19.828  13.100  -3.547  0.00  0.00     0.037 H 
ATOM     16  H4  Z70 d         -21.079  14.345  -3.880  0.00  0.00     0.037 H 
BRANCH  14  17
ATOM     17  CA  Z70 d         -20.536  13.137  -5.590  0.00  0.00     0.182 C 
ATOM     18  H1  Z70 d         -21.134  13.820  -6.210  0.00  0.00     0.101 H 
BRANCH  17  19
ATOM     19  C   Z70 d         -19.329  12.654  -6.427  0.00  0.00     0.204 C 
ATOM     20  OXT Z70 d         -18.483  13.498  -6.919  0.00  0.00    -0.646 OA
ATOM     21  O   Z70 d         -19.160  11.403  -6.651  0.00  0.00    -0.646 OA
ENDBRANCH  17  19
BRANCH  17  22
ATOM     22  N   Z70 d         -21.315  12.004  -5.223  0.00  0.00    -0.065 N 
ATOM     23  H7  Z70 d         -22.237  12.306  -4.948  0.00  0.00     0.275 HD
ATOM     24  H8  Z70 d         -20.873  11.528  -4.452  0.00  0.00     0.275 HD
ATOM     25  H9  Z70 d         -21.387  11.377  -6.009  0.00  0.00     0.275 HD
ENDBRANCH  17  22
ENDBRANCH  14  17
ENDBRANCH   1  14
TORSDOF 6
ENDMDL
MODEL 5
REMARK VINA RESULT:      -4.6      2.517      5.046
REMARK  6 active torsions:
REMARK  status: ('A' for Active; 'I' for Inactive)
REMARK    1  A    between atoms: CA_1  and  C_2 
REMARK    2  A    between atoms: C6_6  and  CA_1 
REMARK    3  A    between atoms: CA_1  and  N_8 
REMARK    4  A    between atoms: C7_7  and  C3_3 
REMARK    5  A    between atoms: C4_4  and  N4_11 
REMARK    6  A    between atoms: C6_6  and  C7_7 
ROOT
ATOM      1  C7  Z70 d         -19.667  14.246  -7.329  0.00  0.00    -0.023 C 
ATOM      2  H5  Z70 d         -19.155  14.130  -8.297  0.00  0.00     0.042 H 
ATOM      3  H6  Z70 d         -20.709  13.904  -7.422  0.00  0.00     0.042 H 
ENDROOT
BRANCH   1   4
ATOM      4  C3  Z70 d         -19.675  15.726  -6.963  0.00  0.00     0.029 A 
ATOM      5  C5  Z70 d         -18.442  16.527  -7.093  0.00  0.00     0.028 A 
ATOM      6  N3  Z70 d         -18.833  17.793  -6.663  0.00  0.00    -0.226 NA
ATOM      7  H2  Z70 d         -17.461  16.205  -7.440  0.00  0.00     0.117 H 
ATOM      8  C4  Z70 d         -20.186  17.732  -6.313  0.00  0.00     0.199 A 
ATOM      9  N2  Z70 d         -20.711  16.501  -6.486  0.00  0.00    -0.329 N 
ATOM     10  H10 Z70 d         -21.679  16.202  -6.301  0.00  0.00     0.169 HD
BRANCH   8  11
ATOM     11  N4  Z70 d         -20.908  18.812  -5.837  0.00  0.00    -0.369 N 
ATOM     12  H11 Z70 d         -21.410  19.426  -6.494  0.00  0.00     0.159 HD
ATOM     13  H12 Z70 d         -20.944  19.003  -4.825  0.00  0.00     0.159 HD
ENDBRANCH   8  11
ENDBRANCH   1   4
BRANCH   1  14
ATOM     14  C6  Z70 d         -18.960  13.367  -6.300  0.00  0.00    -0.024 C 
ATOM     15  H3  Z70 d         -18.798  12.375  -6.747  0.00  0.00     0.037 H 
ATOM     16  H4  Z70 d         -17.988  13.826  -6.065  0.00  0.00     0.037 H 
BRANCH  14  17
ATOM     17  CA  Z70 d         -19.741  13.180  -4.975  0.00  0.00     0.182 C 
ATOM     18  H1  Z70 d         -19.266  12.373  -4.397  0.00  0.00     0.101 H 
BRANCH  17  19
ATOM     19  C   Z70 d         -19.821  14.436  -4.078  0.00  0.00     0.204 C 
ATOM     20  OXT Z70 d         -18.748  15.005  -3.635  0.00  0.00    -0.646 OA
ATOM     21  O   Z70 d         -20.962  14.926  -3.756  0.00  0.00    -0.646 OA
ENDBRANCH  17  19
BRANCH  17  22
ATOM     22  N   Z70 d         -21.062  12.801  -5.344  0.00  0.00    -0.065 N 
ATOM     23  H7  Z70 d         -21.700  13.042  -4.602  0.00  0.00     0.275 HD
ATOM     24  H8  Z70 d         -21.093  11.806  -5.505  0.00  0.00     0.275 HD
ATOM     25  H9  Z70 d         -21.327  13.286  -6.187  0.00  0.00     0.275 HD
ENDBRANCH  17  22
ENDBRANCH  14  17
ENDBRANCH   1  14
TORSDOF 6
ENDMDL
MODEL 6
REMARK VINA RESULT:      -4.4      3.580      5.836
REMARK  6 active torsions:
REMARK  status: ('A' for Active; 'I' for Inactive)
REMARK    1  A    between atoms: CA_1  and  C_2 
REMARK    2  A    between atoms: C6_6  and  CA_1 
REMARK    3  A    between atoms: CA_1  and  N_8 
REMARK    4  A    between atoms: C7_7  and  C3_3 
REMARK    5  A    between atoms: C4_4  and  N4_11 
REMARK    6  A    between atoms: C6_6  and  C7_7 
ROOT
ATOM      1  C7  Z70 d         -21.082  13.368  -5.958  0.00  0.00    -0.023 C 
ATOM      2  H5  Z70 d         -20.686  13.137  -6.958  0.00  0.00     0.042 H 
ATOM      3  H6  Z70 d         -22.145  13.642  -6.038  0.00  0.00     0.042 H 
ENDROOT
BRANCH   1   4
ATOM      4  C3  Z70 d         -20.317  14.564  -5.400  0.00  0.00     0.029 A 
ATOM      5  C5  Z70 d         -20.269  15.829  -6.159  0.00  0.00     0.028 A 
ATOM      6  N3  Z70 d         -19.487  16.656  -5.356  0.00  0.00    -0.226 NA
ATOM      7  H2  Z70 d         -20.732  16.060  -7.117  0.00  0.00     0.117 H 
ATOM      8  C4  Z70 d         -19.112  15.930  -4.222  0.00  0.00     0.199 A 
ATOM      9  N2  Z70 d         -19.600  14.671  -4.228  0.00  0.00    -0.329 N 
ATOM     10  H10 Z70 d         -19.465  13.945  -3.510  0.00  0.00     0.169 HD
BRANCH   8  11
ATOM     11  N4  Z70 d         -18.324  16.440  -3.205  0.00  0.00    -0.369 N 
ATOM     12  H11 Z70 d         -18.747  16.681  -2.297  0.00  0.00     0.159 HD
ATOM     13  H12 Z70 d         -17.315  16.578  -3.355  0.00  0.00     0.159 HD
ENDBRANCH   8  11
ENDBRANCH   1   4
BRANCH   1  14
ATOM     14  C6  Z70 d         -20.969  12.114  -5.092  0.00  0.00    -0.024 C 
ATOM     15  H3  Z70 d         -20.756  12.427  -4.060  0.00  0.00     0.037 H 
ATOM     16  H4  Z70 d         -21.934  11.587  -5.124  0.00  0.00     0.037 H 
BRANCH  14  17
ATOM     17  CA  Z70 d         -19.861  11.127  -5.538  0.00  0.00     0.182 C 
ATOM     18  H1  Z70 d         -19.168  10.973  -4.698  0.00  0.00     0.101 H 
BRANCH  17  19
ATOM     19  C   Z70 d         -20.366   9.745  -6.010  0.00  0.00     0.204 C 
ATOM     20  OXT Z70 d         -19.812   9.142  -7.010  0.00  0.00    -0.646 OA
ATOM     21  O   Z70 d         -21.352   9.181  -5.414  0.00  0.00    -0.646 OA
ENDBRANCH  17  19
BRANCH  17  22
ATOM     22  N   Z70 d         -19.183  11.756  -6.620  0.00  0.00    -0.065 N 
ATOM     23  H7  Z70 d         -18.614  12.510  -6.267  0.00  0.00     0.275 HD
ATOM     24  H8  Z70 d         -19.859  12.121  -7.273  0.00  0.00     0.275 HD
ATOM     25  H9  Z70 d         -18.596  11.082  -7.086  0.00  0.00     0.275 HD
ENDBRANCH  17  22
ENDBRANCH  14  17
ENDBRANCH   1  14
TORSDOF 6
ENDMDL
MODEL 7
REMARK VINA RESULT:      -4.3      1.681      2.160
REMARK  6 active torsions:
REMARK  status: ('A' for Active; 'I' for Inactive)
REMARK    1  A    between atoms: CA_1  and  C_2 
REMARK    2  A    between atoms: C6_6  and  CA_1 
REMARK    3  A    between atoms: CA_1  and  N_8 
REMARK    4  A    between atoms: C7_7  and  C3_3 
REMARK    5  A    between atoms: C4_4  and  N4_11 
REMARK    6  A    between atoms: C6_6  and  C7_7 
ROOT
ATOM      1  C7  Z70 d         -18.730  13.865  -7.193  0.00  0.00    -0.023 C 
ATOM      2  H5  Z70 d         -18.961  13.816  -8.268  0.00  0.00     0.042 H 
ATOM      3  H6  Z70 d         -17.641  13.790  -7.049  0.00  0.00     0.042 H 
ENDROOT
BRANCH   1   4
ATOM      4  C3  Z70 d         -19.391  12.678  -6.501  0.00  0.00     0.029 A 
ATOM      5  C5  Z70 d         -19.873  12.807  -5.113  0.00  0.00     0.028 A 
ATOM      6  N3  Z70 d         -20.389  11.544  -4.832  0.00  0.00    -0.226 NA
ATOM      7  H2  Z70 d         -19.835  13.680  -4.463  0.00  0.00     0.117 H 
ATOM      8  C4  Z70 d         -20.219  10.745  -5.968  0.00  0.00     0.199 A 
ATOM      9  N2  Z70 d         -19.622  11.407  -6.982  0.00  0.00    -0.329 N 
ATOM     10  H10 Z70 d         -19.389  11.041  -7.916  0.00  0.00     0.169 HD
BRANCH   8  11
ATOM     11  N4  Z70 d         -20.615   9.422  -6.046  0.00  0.00    -0.369 N 
ATOM     12  H11 Z70 d         -20.921   8.924  -5.198  0.00  0.00     0.159 HD
ATOM     13  H12 Z70 d         -20.603   8.933  -6.953  0.00  0.00     0.159 HD
ENDBRANCH   8  11
ENDBRANCH   1   4
BRANCH   1  14
ATOM     14  C6  Z70 d         -19.195  15.219  -6.660  0.00  0.00    -0.024 C 
ATOM     15  H3  Z70 d         -18.573  15.480  -5.793  0.00  0.00     0.037 H 
ATOM     16  H4  Z70 d         -19.052  15.968  -7.453  0.00  0.00     0.037 H 
BRANCH  14  17
ATOM     17  CA  Z70 d         -20.680  15.256  -6.220  0.00  0.00     0.182 C 
ATOM     18  H1  Z70 d         -21.006  14.229  -5.995  0.00  0.00     0.101 H 
BRANCH  17  19
ATOM     19  C   Z70 d         -20.977  16.139  -4.986  0.00  0.00     0.204 C 
ATOM     20  OXT Z70 d         -21.838  17.101  -5.050  0.00  0.00    -0.646 OA
ATOM     21  O   Z70 d         -20.361  15.930  -3.881  0.00  0.00    -0.646 OA
ENDBRANCH  17  19
BRANCH  17  22
ATOM     22  N   Z70 d         -21.410  15.766  -7.329  0.00  0.00    -0.065 N 
ATOM     23  H7  Z70 d         -21.316  16.770  -7.361  0.00  0.00     0.275 HD
ATOM     24  H8  Z70 d         -22.384  15.522  -7.232  0.00  0.00     0.275 HD
ATOM     25  H9  Z70 d         -21.048  15.368  -8.182  0.00  0.00     0.275 HD
ENDBRANCH  17  22
ENDBRANCH  14  17
ENDBRANCH   1  14
TORSDOF 6
ENDMDL
MODEL 8
REMARK VINA RESULT:      -3.4      1.819      2.188
REMARK  6 active torsions:
REMARK  status: ('A' for Active; 'I' for Inactive)
REMARK    1  A    between atoms: CA_1  and  C_2 
REMARK    2  A    between atoms: C6_6  and  CA_1 
REMARK    3  A    between atoms: CA_1  and  N_8 
REMARK    4  A    between atoms: C7_7  and  C3_3 
REMARK    5  A    between atoms: C4_4  and  N4_11 
REMARK    6  A    between atoms: C6_6  and  C7_7 
ROOT
ATOM      1  C7  Z70 d         -20.258  13.672  -5.621  0.00  0.00    -0.023 C 
ATOM      2  H5  Z70 d         -20.149  13.865  -4.544  0.00  0.00     0.042 H 
ATOM      3  H6  Z70 d         -21.223  14.071  -5.969  0.00  0.00     0.042 H 
ENDROOT
BRANCH   1   4
ATOM      4  C3  Z70 d         -20.250  12.164  -5.846  0.00  0.00     0.029 A 
ATOM      5  C5  Z70 d         -21.036  11.281  -4.962  0.00  0.00     0.028 A 
ATOM      6  N3  Z70 d         -20.771  10.008  -5.461  0.00  0.00    -0.226 NA
ATOM      7  H2  Z70 d         -21.669  11.558  -4.121  0.00  0.00     0.117 H 
ATOM      8  C4  Z70 d         -19.901  10.141  -6.548  0.00  0.00     0.199 A 
ATOM      9  N2  Z70 d         -19.576  11.428  -6.796  0.00  0.00    -0.329 N 
ATOM     10  H10 Z70 d         -18.957  11.784  -7.538  0.00  0.00     0.169 HD
BRANCH   8  11
ATOM     11  N4  Z70 d         -19.421   9.074  -7.287  0.00  0.00    -0.369 N 
ATOM     12  H11 Z70 d         -20.078   8.401  -7.706  0.00  0.00     0.159 HD
ATOM     13  H12 Z70 d         -18.407   8.953  -7.418  0.00  0.00     0.159 HD
ENDBRANCH   8  11
ENDBRANCH   1   4
BRANCH   1  14
ATOM     14  C6  Z70 d         -19.139  14.405  -6.359  0.00  0.00    -0.024 C 
ATOM     15  H3  Z70 d         -18.183  14.138  -5.887  0.00  0.00     0.037 H 
ATOM     16  H4  Z70 d         -19.139  14.068  -7.406  0.00  0.00     0.037 H 
BRANCH  14  17
ATOM     17  CA  Z70 d         -19.271  15.949  -6.347  0.00  0.00     0.182 C 
ATOM     18  H1  Z70 d         -20.205  16.227  -6.857  0.00  0.00     0.101 H 
BRANCH  17  19
ATOM     19  C   Z70 d         -19.275  16.596  -4.943  0.00  0.00     0.204 C 
ATOM     20  OXT Z70 d         -18.234  16.530  -4.179  0.00  0.00    -0.646 OA
ATOM     21  O   Z70 d         -20.321  17.202  -4.516  0.00  0.00    -0.646 OA
ENDBRANCH  17  19
BRANCH  17  22
ATOM     22  N   Z70 d         -18.153  16.447  -7.073  0.00  0.00    -0.065 N 
ATOM     23  H7  Z70 d         -17.990  15.866  -7.880  0.00  0.00     0.275 HD
ATOM     24  H8  Z70 d         -17.337  16.438  -6.480  0.00  0.00     0.275 HD
ATOM     25  H9  Z70 d         -18.340  17.392  -7.371  0.00  0.00     0.275 HD
ENDBRANCH  17  22
ENDBRANCH  14  17
ENDBRANCH   1  14
TORSDOF 6
ENDMDL
