MODEL 1
REMARK VINA RESULT:      -8.0      0.000      0.000
REMARK  12 active torsions:
REMARK  status: ('A' for Active; 'I' for Inactive)
REMARK    1  A    between atoms: O4_1  and  C4_2 
REMARK    2  A    between atoms: C3_6  and  O3_7 
REMARK    3  A    between atoms: C2_8  and  O2_9 
REMARK    4  A    between atoms: C1_10  and  O1_11 
REMARK    5  A    between atoms: N2_14  and  C8_15 
REMARK    6  A    between atoms: C8_15  and  C9_16 
REMARK    7  A    between atoms: C9_16  and  C10_17 
REMARK    8  A    between atoms: C10_17  and  C11_18 
REMARK    9  A    between atoms: C11_18  and  C12_19 
REMARK   10  A    between atoms: C12_19  and  C13_20 
REMARK   11  A    between atoms: C13_20  and  C14_21 
REMARK   12  A    between atoms: C14_21  and  C15_22 
ROOT
ATOM      1  C4  LGS d           1.636   6.668  13.400  0.00  0.00     0.084 C 
ATOM      2  C5  LGS d           1.004   6.255  12.066  0.00  0.00     0.066 C 
ATOM      3  C6  LGS d           0.571   7.378  11.126  0.00  0.00     0.050 C 
ATOM      4  O6  LGS d           1.034   6.957   9.817  0.00  0.00    -0.319 OA
ATOM      5  C3  LGS d           1.906   5.366  14.162  0.00  0.00     0.091 C 
ATOM      6  C2  LGS d           3.023   4.553  13.488  0.00  0.00     0.104 C 
ATOM      7  C1  LGS d           2.872   4.484  11.948  0.00  0.00     0.133 C 
ATOM      8  N1  LGS d           2.016   5.509  11.304  0.00  0.00    -0.307 N 
ATOM      9  C7  LGS d           1.953   5.944   9.995  0.00  0.00     0.241 C 
ATOM     10  N2  LGS d           2.640   5.430   8.970  0.00  0.00    -0.251 NA
ATOM     11  H2  LGS d           2.574   7.218  13.230  0.00  0.00     0.090 H 
ATOM     12  H3  LGS d           0.133   5.618  12.283  0.00  0.00     0.080 H 
ATOM     13  H4  LGS d           1.040   8.330  11.416  0.00  0.00     0.078 H 
ATOM     14  H5  LGS d          -0.524   7.491  11.132  0.00  0.00     0.078 H 
ATOM     15  H6  LGS d           0.982   4.770  14.200  0.00  0.00     0.091 H 
ATOM     16  H8  LGS d           3.975   5.055  13.715  0.00  0.00     0.093 H 
ATOM     17  H10 LGS d           2.471   3.490  11.701  0.00  0.00     0.122 H 
ENDROOT
BRANCH  10  18
ATOM     18  C8  LGS d           2.462   5.692   7.536  0.00  0.00     0.019 C 
ATOM     19  H12 LGS d           2.367   6.776   7.378  0.00  0.00     0.067 H 
ATOM     20  H13 LGS d           1.548   5.189   7.188  0.00  0.00     0.067 H 
BRANCH  18  21
ATOM     21  C9  LGS d           3.651   5.175   6.734  0.00  0.00    -0.048 C 
ATOM     22  H14 LGS d           4.539   5.772   6.987  0.00  0.00     0.035 H 
ATOM     23  H15 LGS d           3.430   5.280   5.662  0.00  0.00     0.035 H 
BRANCH  21  24
ATOM     24  C10 LGS d           3.943   3.698   7.038  0.00  0.00    -0.064 C 
ATOM     25  H16 LGS d           3.117   3.088   6.643  0.00  0.00     0.033 H 
ATOM     26  H17 LGS d           4.006   3.569   8.129  0.00  0.00     0.033 H 
BRANCH  24  27
ATOM     27  C11 LGS d           5.266   3.204   6.405  0.00  0.00    -0.065 C 
ATOM     28  H18 LGS d           5.424   3.686   5.429  0.00  0.00     0.033 H 
ATOM     29  H19 LGS d           5.241   2.112   6.275  0.00  0.00     0.033 H 
BRANCH  27  30
ATOM     30  C12 LGS d           6.392   3.597   7.379  0.00  0.00    -0.065 C 
ATOM     31  H20 LGS d           6.811   2.679   7.818  0.00  0.00     0.033 H 
ATOM     32  H21 LGS d           5.964   4.223   8.176  0.00  0.00     0.033 H 
BRANCH  30  33
ATOM     33  C13 LGS d           7.534   4.381   6.699  0.00  0.00    -0.065 C 
ATOM     34  H22 LGS d           7.140   4.896   5.810  0.00  0.00     0.033 H 
ATOM     35  H23 LGS d           8.324   3.679   6.395  0.00  0.00     0.033 H 
BRANCH  33  36
ATOM     36  C14 LGS d           8.126   5.422   7.667  0.00  0.00    -0.069 C 
ATOM     37  H24 LGS d           8.488   6.286   7.091  0.00  0.00     0.032 H 
ATOM     38  H25 LGS d           8.965   4.968   8.215  0.00  0.00     0.032 H 
BRANCH  36  39
ATOM     39  C15 LGS d           7.069   5.894   8.670  0.00  0.00    -0.077 C 
ATOM     40  H26 LGS d           6.742   5.044   9.285  0.00  0.00     0.027 H 
ATOM     41  H27 LGS d           6.207   6.307   8.126  0.00  0.00     0.027 H 
ATOM     42  H28 LGS d           7.501   6.671   9.318  0.00  0.00     0.027 H 
ENDBRANCH  36  39
ENDBRANCH  33  36
ENDBRANCH  30  33
ENDBRANCH  27  30
ENDBRANCH  24  27
ENDBRANCH  21  24
ENDBRANCH  18  21
ENDBRANCH  10  18
BRANCH   7  43
ATOM     43  O1  LGS d           4.160   4.663  11.329  0.00  0.00    -0.374 OA
ATOM     44  H11 LGS d           4.044   4.817  10.399  0.00  0.00     0.212 HD
ENDBRANCH   7  43
BRANCH   1  45
ATOM     45  O4  LGS d           0.733   7.477  14.134  0.00  0.00    -0.391 OA
ATOM     46  H1  LGS d           1.072   8.363  14.185  0.00  0.00     0.210 HD
ENDBRANCH   1  45
BRANCH   6  47
ATOM     47  O2  LGS d           3.093   3.213  13.988  0.00  0.00    -0.389 OA
ATOM     48  H9  LGS d           2.666   3.170  14.836  0.00  0.00     0.210 HD
ENDBRANCH   6  47
BRANCH   5  49
ATOM     49  O3  LGS d           2.355   5.659  15.487  0.00  0.00    -0.390 OA
ATOM     50  H7  LGS d           1.709   5.353  16.114  0.00  0.00     0.210 HD
ENDBRANCH   5  49
TORSDOF 12
ENDMDL
MODEL 2
REMARK VINA RESULT:      -7.8      1.726      2.357
REMARK  12 active torsions:
REMARK  status: ('A' for Active; 'I' for Inactive)
REMARK    1  A    between atoms: O4_1  and  C4_2 
REMARK    2  A    between atoms: C3_6  and  O3_7 
REMARK    3  A    between atoms: C2_8  and  O2_9 
REMARK    4  A    between atoms: C1_10  and  O1_11 
REMARK    5  A    between atoms: N2_14  and  C8_15 
REMARK    6  A    between atoms: C8_15  and  C9_16 
REMARK    7  A    between atoms: C9_16  and  C10_17 
REMARK    8  A    between atoms: C10_17  and  C11_18 
REMARK    9  A    between atoms: C11_18  and  C12_19 
REMARK   10  A    between atoms: C12_19  and  C13_20 
REMARK   11  A    between atoms: C13_20  and  C14_21 
REMARK   12  A    between atoms: C14_21  and  C15_22 
ROOT
ATOM      1  C4  LGS d           1.617   6.674  13.398  0.00  0.00     0.084 C 
ATOM      2  C5  LGS d           1.014   6.251  12.053  0.00  0.00     0.066 C 
ATOM      3  C6  LGS d           0.596   7.369  11.099  0.00  0.00     0.050 C 
ATOM      4  O6  LGS d           1.088   6.944   9.803  0.00  0.00    -0.319 OA
ATOM      5  C3  LGS d           1.875   5.375  14.172  0.00  0.00     0.091 C 
ATOM      6  C2  LGS d           3.009   4.564  13.524  0.00  0.00     0.104 C 
ATOM      7  C1  LGS d           2.891   4.488  11.983  0.00  0.00     0.133 C 
ATOM      8  N1  LGS d           2.045   5.506  11.316  0.00  0.00    -0.307 N 
ATOM      9  C7  LGS d           2.007   5.936  10.004  0.00  0.00     0.241 C 
ATOM     10  N2  LGS d           2.717   5.420   8.996  0.00  0.00    -0.251 NA
ATOM     11  H2  LGS d           2.555   7.227  13.245  0.00  0.00     0.090 H 
ATOM     12  H3  LGS d           0.141   5.612  12.254  0.00  0.00     0.080 H 
ATOM     13  H4  LGS d           1.055   8.324  11.395  0.00  0.00     0.078 H 
ATOM     14  H5  LGS d          -0.499   7.477  11.082  0.00  0.00     0.078 H 
ATOM     15  H6  LGS d           0.953   4.776  14.193  0.00  0.00     0.091 H 
ATOM     16  H8  LGS d           3.954   5.071  13.769  0.00  0.00     0.093 H 
ATOM     17  H10 LGS d           2.499   3.491  11.731  0.00  0.00     0.122 H 
ENDROOT
BRANCH  10  18
ATOM     18  C8  LGS d           2.569   5.675   7.557  0.00  0.00     0.019 C 
ATOM     19  H12 LGS d           2.510   6.760   7.389  0.00  0.00     0.067 H 
ATOM     20  H13 LGS d           1.643   5.198   7.201  0.00  0.00     0.067 H 
BRANCH  18  21
ATOM     21  C9  LGS d           3.751   5.113   6.777  0.00  0.00    -0.048 C 
ATOM     22  H14 LGS d           4.546   4.836   7.485  0.00  0.00     0.035 H 
ATOM     23  H15 LGS d           4.125   5.887   6.090  0.00  0.00     0.035 H 
BRANCH  21  24
ATOM     24  C10 LGS d           3.358   3.873   5.961  0.00  0.00    -0.064 C 
ATOM     25  H16 LGS d           2.728   3.224   6.589  0.00  0.00     0.033 H 
ATOM     26  H17 LGS d           4.274   3.333   5.679  0.00  0.00     0.033 H 
BRANCH  24  27
ATOM     27  C11 LGS d           2.575   4.223   4.673  0.00  0.00    -0.065 C 
ATOM     28  H18 LGS d           1.799   4.972   4.893  0.00  0.00     0.033 H 
ATOM     29  H19 LGS d           2.105   3.320   4.256  0.00  0.00     0.033 H 
BRANCH  27  30
ATOM     30  C12 LGS d           3.600   4.797   3.678  0.00  0.00    -0.065 C 
ATOM     31  H20 LGS d           3.451   4.310   2.703  0.00  0.00     0.033 H 
ATOM     32  H21 LGS d           4.611   4.574   4.049  0.00  0.00     0.033 H 
BRANCH  30  33
ATOM     33  C13 LGS d           3.471   6.324   3.489  0.00  0.00    -0.065 C 
ATOM     34  H22 LGS d           2.720   6.713   4.192  0.00  0.00     0.033 H 
ATOM     35  H23 LGS d           3.153   6.535   2.458  0.00  0.00     0.033 H 
BRANCH  33  36
ATOM     36  C14 LGS d           4.820   7.016   3.755  0.00  0.00    -0.069 C 
ATOM     37  H24 LGS d           4.827   7.412   4.781  0.00  0.00     0.032 H 
ATOM     38  H25 LGS d           4.948   7.843   3.041  0.00  0.00     0.032 H 
BRANCH  36  39
ATOM     39  C15 LGS d           5.979   6.029   3.591  0.00  0.00    -0.077 C 
ATOM     40  H26 LGS d           5.982   5.634   2.565  0.00  0.00     0.027 H 
ATOM     41  H27 LGS d           5.858   5.199   4.303  0.00  0.00     0.027 H 
ATOM     42  H28 LGS d           6.931   6.544   3.788  0.00  0.00     0.027 H 
ENDBRANCH  36  39
ENDBRANCH  33  36
ENDBRANCH  30  33
ENDBRANCH  27  30
ENDBRANCH  24  27
ENDBRANCH  21  24
ENDBRANCH  18  21
ENDBRANCH  10  18
BRANCH   7  43
ATOM     43  O1  LGS d           4.191   4.670  11.389  0.00  0.00    -0.374 OA
ATOM     44  H11 LGS d           4.265   5.557  11.057  0.00  0.00     0.212 HD
ENDBRANCH   7  43
BRANCH   1  45
ATOM     45  O4  LGS d           0.694   7.482  14.109  0.00  0.00    -0.391 OA
ATOM     46  H1  LGS d          -0.075   6.968  14.325  0.00  0.00     0.210 HD
ENDBRANCH   1  45
BRANCH   6  47
ATOM     47  O2  LGS d           3.074   3.227  14.032  0.00  0.00    -0.389 OA
ATOM     48  H9  LGS d           3.306   2.633  13.327  0.00  0.00     0.210 HD
ENDBRANCH   6  47
BRANCH   5  49
ATOM     49  O3  LGS d           2.295   5.676  15.505  0.00  0.00    -0.390 OA
ATOM     50  H7  LGS d           1.944   5.024  16.100  0.00  0.00     0.210 HD
ENDBRANCH   5  49
TORSDOF 12
ENDMDL
MODEL 3
REMARK VINA RESULT:      -7.7      0.915      1.456
REMARK  12 active torsions:
REMARK  status: ('A' for Active; 'I' for Inactive)
REMARK    1  A    between atoms: O4_1  and  C4_2 
REMARK    2  A    between atoms: C3_6  and  O3_7 
REMARK    3  A    between atoms: C2_8  and  O2_9 
REMARK    4  A    between atoms: C1_10  and  O1_11 
REMARK    5  A    between atoms: N2_14  and  C8_15 
REMARK    6  A    between atoms: C8_15  and  C9_16 
REMARK    7  A    between atoms: C9_16  and  C10_17 
REMARK    8  A    between atoms: C10_17  and  C11_18 
REMARK    9  A    between atoms: C11_18  and  C12_19 
REMARK   10  A    between atoms: C12_19  and  C13_20 
REMARK   11  A    between atoms: C13_20  and  C14_21 
REMARK   12  A    between atoms: C14_21  and  C15_22 
ROOT
ATOM      1  C4  LGS d           1.647   6.679  13.409  0.00  0.00     0.084 C 
ATOM      2  C5  LGS d           1.039   6.238  12.072  0.00  0.00     0.066 C 
ATOM      3  C6  LGS d           0.606   7.342  11.109  0.00  0.00     0.050 C 
ATOM      4  O6  LGS d           1.093   6.907   9.814  0.00  0.00    -0.319 OA
ATOM      5  C3  LGS d           1.921   5.391  14.195  0.00  0.00     0.091 C 
ATOM      6  C2  LGS d           3.057   4.582  13.548  0.00  0.00     0.104 C 
ATOM      7  C1  LGS d           2.929   4.488  12.008  0.00  0.00     0.133 C 
ATOM      8  N1  LGS d           2.071   5.493  11.336  0.00  0.00    -0.307 N 
ATOM      9  C7  LGS d           2.022   5.908  10.020  0.00  0.00     0.241 C 
ATOM     10  N2  LGS d           2.729   5.387   9.013  0.00  0.00    -0.251 NA
ATOM     11  H2  LGS d           2.581   7.238  13.244  0.00  0.00     0.090 H 
ATOM     12  H3  LGS d           0.172   5.595  12.286  0.00  0.00     0.080 H 
ATOM     13  H4  LGS d           1.060   8.304  11.392  0.00  0.00     0.078 H 
ATOM     14  H5  LGS d          -0.489   7.442  11.098  0.00  0.00     0.078 H 
ATOM     15  H6  LGS d           1.003   4.786  14.227  0.00  0.00     0.091 H 
ATOM     16  H8  LGS d           3.999   5.099  13.782  0.00  0.00     0.093 H 
ATOM     17  H10 LGS d           2.543   3.486  11.770  0.00  0.00     0.122 H 
ENDROOT
BRANCH  10  18
ATOM     18  C8  LGS d           2.569   5.626   7.572  0.00  0.00     0.019 C 
ATOM     19  H12 LGS d           2.220   6.657   7.415  0.00  0.00     0.067 H 
ATOM     20  H13 LGS d           1.825   4.921   7.171  0.00  0.00     0.067 H 
BRANCH  18  21
ATOM     21  C9  LGS d           3.889   5.429   6.836  0.00  0.00    -0.048 C 
ATOM     22  H14 LGS d           4.330   6.415   6.626  0.00  0.00     0.035 H 
ATOM     23  H15 LGS d           3.693   4.905   5.889  0.00  0.00     0.035 H 
BRANCH  21  24
ATOM     24  C10 LGS d           4.886   4.605   7.663  0.00  0.00    -0.064 C 
ATOM     25  H16 LGS d           4.654   3.537   7.531  0.00  0.00     0.033 H 
ATOM     26  H17 LGS d           4.773   4.877   8.723  0.00  0.00     0.033 H 
BRANCH  24  27
ATOM     27  C11 LGS d           6.357   4.844   7.247  0.00  0.00    -0.065 C 
ATOM     28  H18 LGS d           6.427   4.973   6.156  0.00  0.00     0.033 H 
ATOM     29  H19 LGS d           6.983   3.994   7.556  0.00  0.00     0.033 H 
BRANCH  27  30
ATOM     30  C12 LGS d           6.813   6.128   7.963  0.00  0.00    -0.065 C 
ATOM     31  H20 LGS d           6.184   6.963   7.621  0.00  0.00     0.033 H 
ATOM     32  H21 LGS d           7.862   6.325   7.696  0.00  0.00     0.033 H 
BRANCH  30  33
ATOM     33  C13 LGS d           6.708   6.032   9.501  0.00  0.00    -0.065 C 
ATOM     34  H22 LGS d           7.710   5.858   9.921  0.00  0.00     0.033 H 
ATOM     35  H23 LGS d           6.048   5.194   9.767  0.00  0.00     0.033 H 
BRANCH  33  36
ATOM     36  C14 LGS d           6.133   7.335  10.085  0.00  0.00    -0.069 C 
ATOM     37  H24 LGS d           6.961   7.995  10.381  0.00  0.00     0.032 H 
ATOM     38  H25 LGS d           5.521   7.096  10.967  0.00  0.00     0.032 H 
BRANCH  36  39
ATOM     39  C15 LGS d           5.262   8.056   9.051  0.00  0.00    -0.077 C 
ATOM     40  H26 LGS d           4.375   7.446   8.830  0.00  0.00     0.027 H 
ATOM     41  H27 LGS d           5.841   8.211   8.129  0.00  0.00     0.027 H 
ATOM     42  H28 LGS d           4.946   9.030   9.454  0.00  0.00     0.027 H 
ENDBRANCH  36  39
ENDBRANCH  33  36
ENDBRANCH  30  33
ENDBRANCH  27  30
ENDBRANCH  24  27
ENDBRANCH  21  24
ENDBRANCH  18  21
ENDBRANCH  10  18
BRANCH   7  43
ATOM     43  O1  LGS d           4.224   4.674  11.404  0.00  0.00    -0.374 OA
ATOM     44  H11 LGS d           4.800   3.965  11.667  0.00  0.00     0.212 HD
ENDBRANCH   7  43
BRANCH   1  45
ATOM     45  O4  LGS d           0.723   7.488  14.117  0.00  0.00    -0.391 OA
ATOM     46  H1  LGS d           0.047   6.937  14.496  0.00  0.00     0.210 HD
ENDBRANCH   1  45
BRANCH   6  47
ATOM     47  O2  LGS d           3.136   3.251  14.070  0.00  0.00    -0.389 OA
ATOM     48  H9  LGS d           3.203   3.287  15.017  0.00  0.00     0.210 HD
ENDBRANCH   6  47
BRANCH   5  49
ATOM     49  O3  LGS d           2.347   5.710  15.521  0.00  0.00    -0.390 OA
ATOM     50  H7  LGS d           2.679   6.600  15.541  0.00  0.00     0.210 HD
ENDBRANCH   5  49
TORSDOF 12
ENDMDL
MODEL 4
REMARK VINA RESULT:      -6.7      3.848      8.213
REMARK  12 active torsions:
REMARK  status: ('A' for Active; 'I' for Inactive)
REMARK    1  A    between atoms: O4_1  and  C4_2 
REMARK    2  A    between atoms: C3_6  and  O3_7 
REMARK    3  A    between atoms: C2_8  and  O2_9 
REMARK    4  A    between atoms: C1_10  and  O1_11 
REMARK    5  A    between atoms: N2_14  and  C8_15 
REMARK    6  A    between atoms: C8_15  and  C9_16 
REMARK    7  A    between atoms: C9_16  and  C10_17 
REMARK    8  A    between atoms: C10_17  and  C11_18 
REMARK    9  A    between atoms: C11_18  and  C12_19 
REMARK   10  A    between atoms: C12_19  and  C13_20 
REMARK   11  A    between atoms: C13_20  and  C14_21 
REMARK   12  A    between atoms: C14_21  and  C15_22 
ROOT
ATOM      1  C4  LGS d           5.344   4.350   4.131  0.00  0.00     0.084 C 
ATOM      2  C5  LGS d           4.000   4.415   4.867  0.00  0.00     0.066 C 
ATOM      3  C6  LGS d           3.581   3.176   5.655  0.00  0.00     0.050 C 
ATOM      4  O6  LGS d           3.086   3.696   6.915  0.00  0.00    -0.319 OA
ATOM      5  C3  LGS d           5.478   5.679   3.378  0.00  0.00     0.091 C 
ATOM      6  C2  LGS d           5.676   6.849   4.355  0.00  0.00     0.104 C 
ATOM      7  C1  LGS d           4.718   6.788   5.570  0.00  0.00     0.133 C 
ATOM      8  N1  LGS d           4.096   5.478   5.878  0.00  0.00    -0.307 N 
ATOM      9  C7  LGS d           3.512   5.002   7.035  0.00  0.00     0.241 C 
ATOM     10  N2  LGS d           3.304   5.710   8.150  0.00  0.00    -0.251 NA
ATOM     11  H2  LGS d           6.171   4.225   4.845  0.00  0.00     0.090 H 
ATOM     12  H3  LGS d           3.217   4.649   4.130  0.00  0.00     0.080 H 
ATOM     13  H4  LGS d           4.442   2.511   5.821  0.00  0.00     0.078 H 
ATOM     14  H5  LGS d           2.789   2.626   5.124  0.00  0.00     0.078 H 
ATOM     15  H6  LGS d           4.574   5.846   2.774  0.00  0.00     0.091 H 
ATOM     16  H8  LGS d           6.708   6.789   4.732  0.00  0.00     0.093 H 
ATOM     17  H10 LGS d           3.916   7.521   5.394  0.00  0.00     0.122 H 
ENDROOT
BRANCH  10  18
ATOM     18  C8  LGS d           2.502   5.340   9.324  0.00  0.00     0.019 C 
ATOM     19  H12 LGS d           2.979   4.489   9.831  0.00  0.00     0.067 H 
ATOM     20  H13 LGS d           1.492   5.053   8.994  0.00  0.00     0.067 H 
BRANCH  18  21
ATOM     21  C9  LGS d           2.394   6.505  10.301  0.00  0.00    -0.048 C 
ATOM     22  H14 LGS d           3.151   7.259  10.042  0.00  0.00     0.035 H 
ATOM     23  H15 LGS d           2.579   6.133  11.320  0.00  0.00     0.035 H 
BRANCH  21  24
ATOM     24  C10 LGS d           1.005   7.160  10.256  0.00  0.00    -0.064 C 
ATOM     25  H16 LGS d           0.367   6.582   9.570  0.00  0.00     0.033 H 
ATOM     26  H17 LGS d           1.113   8.187   9.878  0.00  0.00     0.033 H 
BRANCH  24  27
ATOM     27  C11 LGS d           0.320   7.213  11.642  0.00  0.00    -0.065 C 
ATOM     28  H18 LGS d          -0.763   7.045  11.537  0.00  0.00     0.033 H 
ATOM     29  H19 LGS d           0.494   8.191  12.115  0.00  0.00     0.033 H 
BRANCH  27  30
ATOM     30  C12 LGS d           0.952   6.094  12.489  0.00  0.00    -0.065 C 
ATOM     31  H20 LGS d           1.823   5.695  11.948  0.00  0.00     0.033 H 
ATOM     32  H21 LGS d           0.208   5.295  12.625  0.00  0.00     0.033 H 
BRANCH  30  33
ATOM     33  C13 LGS d           1.416   6.576  13.880  0.00  0.00    -0.065 C 
ATOM     34  H22 LGS d           0.552   6.978  14.430  0.00  0.00     0.033 H 
ATOM     35  H23 LGS d           2.171   7.366  13.755  0.00  0.00     0.033 H 
BRANCH  33  36
ATOM     36  C14 LGS d           2.028   5.411  14.679  0.00  0.00    -0.069 C 
ATOM     37  H24 LGS d           1.218   4.783  15.079  0.00  0.00     0.032 H 
ATOM     38  H25 LGS d           2.623   5.817  15.510  0.00  0.00     0.032 H 
BRANCH  36  39
ATOM     39  C15 LGS d           2.930   4.555  13.786  0.00  0.00    -0.077 C 
ATOM     40  H26 LGS d           3.269   5.152  12.927  0.00  0.00     0.027 H 
ATOM     41  H27 LGS d           2.368   3.681  13.427  0.00  0.00     0.027 H 
ATOM     42  H28 LGS d           3.803   4.217  14.364  0.00  0.00     0.027 H 
ENDBRANCH  36  39
ENDBRANCH  33  36
ENDBRANCH  30  33
ENDBRANCH  27  30
ENDBRANCH  24  27
ENDBRANCH  21  24
ENDBRANCH  18  21
ENDBRANCH  10  18
BRANCH   7  43
ATOM     43  O1  LGS d           5.438   7.126   6.771  0.00  0.00    -0.374 OA
ATOM     44  H11 LGS d           4.839   7.130   7.508  0.00  0.00     0.212 HD
ENDBRANCH   7  43
BRANCH   1  45
ATOM     45  O4  LGS d           5.339   3.274   3.209  0.00  0.00    -0.391 OA
ATOM     46  H1  LGS d           6.189   2.850   3.214  0.00  0.00     0.210 HD
ENDBRANCH   1  45
BRANCH   6  47
ATOM     47  O2  LGS d           5.505   8.120   3.717  0.00  0.00    -0.389 OA
ATOM     48  H9  LGS d           4.711   8.107   3.195  0.00  0.00     0.210 HD
ENDBRANCH   6  47
BRANCH   5  49
ATOM     49  O3  LGS d           6.632   5.649   2.535  0.00  0.00    -0.390 OA
ATOM     50  H7  LGS d           6.877   4.746   2.368  0.00  0.00     0.210 HD
ENDBRANCH   5  49
TORSDOF 12
ENDMDL
MODEL 5
REMARK VINA RESULT:      -6.5      3.629      7.788
REMARK  12 active torsions:
REMARK  status: ('A' for Active; 'I' for Inactive)
REMARK    1  A    between atoms: O4_1  and  C4_2 
REMARK    2  A    between atoms: C3_6  and  O3_7 
REMARK    3  A    between atoms: C2_8  and  O2_9 
REMARK    4  A    between atoms: C1_10  and  O1_11 
REMARK    5  A    between atoms: N2_14  and  C8_15 
REMARK    6  A    between atoms: C8_15  and  C9_16 
REMARK    7  A    between atoms: C9_16  and  C10_17 
REMARK    8  A    between atoms: C10_17  and  C11_18 
REMARK    9  A    between atoms: C11_18  and  C12_19 
REMARK   10  A    between atoms: C12_19  and  C13_20 
REMARK   11  A    between atoms: C13_20  and  C14_21 
REMARK   12  A    between atoms: C14_21  and  C15_22 
ROOT
ATOM      1  C4  LGS d           4.407   4.056   4.255  0.00  0.00     0.084 C 
ATOM      2  C5  LGS d           4.177   5.056   5.394  0.00  0.00     0.066 C 
ATOM      3  C6  LGS d           2.755   5.170   5.940  0.00  0.00     0.050 C 
ATOM      4  O6  LGS d           2.919   5.194   7.381  0.00  0.00    -0.319 OA
ATOM      5  C3  LGS d           5.882   4.196   3.860  0.00  0.00     0.091 C 
ATOM      6  C2  LGS d           6.803   3.671   4.973  0.00  0.00     0.104 C 
ATOM      7  C1  LGS d           6.374   4.143   6.384  0.00  0.00     0.133 C 
ATOM      8  N1  LGS d           4.977   4.614   6.545  0.00  0.00    -0.307 N 
ATOM      9  C7  LGS d           4.194   4.755   7.673  0.00  0.00     0.241 C 
ATOM     10  N2  LGS d           4.598   4.561   8.932  0.00  0.00    -0.251 NA
ATOM     11  H2  LGS d           4.192   3.030   4.591  0.00  0.00     0.090 H 
ATOM     12  H3  LGS d           4.505   6.048   5.050  0.00  0.00     0.080 H 
ATOM     13  H4  LGS d           2.150   4.305   5.632  0.00  0.00     0.078 H 
ATOM     14  H5  LGS d           2.277   6.097   5.589  0.00  0.00     0.078 H 
ATOM     15  H6  LGS d           6.104   5.255   3.661  0.00  0.00     0.091 H 
ATOM     16  H8  LGS d           6.749   2.572   4.950  0.00  0.00     0.093 H 
ATOM     17  H10 LGS d           7.052   4.957   6.679  0.00  0.00     0.122 H 
ENDROOT
BRANCH  10  18
ATOM     18  C8  LGS d           3.894   4.900  10.175  0.00  0.00     0.019 C 
ATOM     19  H12 LGS d           4.161   4.167  10.951  0.00  0.00     0.067 H 
ATOM     20  H13 LGS d           2.809   4.865   9.995  0.00  0.00     0.067 H 
BRANCH  18  21
ATOM     21  C9  LGS d           4.274   6.295  10.656  0.00  0.00    -0.048 C 
ATOM     22  H14 LGS d           4.777   6.830   9.837  0.00  0.00     0.035 H 
ATOM     23  H15 LGS d           4.960   6.203  11.511  0.00  0.00     0.035 H 
BRANCH  21  24
ATOM     24  C10 LGS d           3.042   7.102  11.093  0.00  0.00    -0.064 C 
ATOM     25  H16 LGS d           3.080   8.090  10.608  0.00  0.00     0.033 H 
ATOM     26  H17 LGS d           3.074   7.229  12.185  0.00  0.00     0.033 H 
BRANCH  24  27
ATOM     27  C11 LGS d           1.708   6.417  10.713  0.00  0.00    -0.065 C 
ATOM     28  H18 LGS d           1.901   5.426  10.275  0.00  0.00     0.033 H 
ATOM     29  H19 LGS d           1.155   7.035   9.990  0.00  0.00     0.033 H 
BRANCH  27  30
ATOM     30  C12 LGS d           0.901   6.274  12.017  0.00  0.00    -0.065 C 
ATOM     31  H20 LGS d           0.565   5.230  12.108  0.00  0.00     0.033 H 
ATOM     32  H21 LGS d           0.026   6.938  11.961  0.00  0.00     0.033 H 
BRANCH  30  33
ATOM     33  C13 LGS d           1.716   6.640  13.276  0.00  0.00    -0.065 C 
ATOM     34  H22 LGS d           1.275   7.531  13.746  0.00  0.00     0.033 H 
ATOM     35  H23 LGS d           2.754   6.855  12.985  0.00  0.00     0.033 H 
BRANCH  33  36
ATOM     36  C14 LGS d           1.703   5.476  14.284  0.00  0.00    -0.069 C 
ATOM     37  H24 LGS d           0.760   4.919  14.180  0.00  0.00     0.032 H 
ATOM     38  H25 LGS d           1.779   5.881  15.303  0.00  0.00     0.032 H 
BRANCH  36  39
ATOM     39  C15 LGS d           2.878   4.526  14.032  0.00  0.00    -0.077 C 
ATOM     40  H26 LGS d           2.588   3.776  13.283  0.00  0.00     0.027 H 
ATOM     41  H27 LGS d           3.148   4.022  14.971  0.00  0.00     0.027 H 
ATOM     42  H28 LGS d           3.740   5.100  13.662  0.00  0.00     0.027 H 
ENDBRANCH  36  39
ENDBRANCH  33  36
ENDBRANCH  30  33
ENDBRANCH  27  30
ENDBRANCH  24  27
ENDBRANCH  21  24
ENDBRANCH  18  21
ENDBRANCH  10  18
BRANCH   7  43
ATOM     43  O1  LGS d           6.483   3.048   7.313  0.00  0.00    -0.374 OA
ATOM     44  H11 LGS d           7.391   2.943   7.573  0.00  0.00     0.212 HD
ENDBRANCH   7  43
BRANCH   1  45
ATOM     45  O4  LGS d           3.580   4.381   3.151  0.00  0.00    -0.391 OA
ATOM     46  H1  LGS d           3.002   5.097   3.389  0.00  0.00     0.210 HD
ENDBRANCH   1  45
BRANCH   6  47
ATOM     47  O2  LGS d           8.168   4.056   4.771  0.00  0.00    -0.389 OA
ATOM     48  H9  LGS d           8.347   4.106   3.839  0.00  0.00     0.210 HD
ENDBRANCH   6  47
BRANCH   5  49
ATOM     49  O3  LGS d           6.153   3.410   2.698  0.00  0.00    -0.390 OA
ATOM     50  H7  LGS d           5.425   2.821   2.538  0.00  0.00     0.210 HD
ENDBRANCH   5  49
TORSDOF 12
ENDMDL
MODEL 6
REMARK VINA RESULT:      -6.5      3.576      8.036
REMARK  12 active torsions:
REMARK  status: ('A' for Active; 'I' for Inactive)
REMARK    1  A    between atoms: O4_1  and  C4_2 
REMARK    2  A    between atoms: C3_6  and  O3_7 
REMARK    3  A    between atoms: C2_8  and  O2_9 
REMARK    4  A    between atoms: C1_10  and  O1_11 
REMARK    5  A    between atoms: N2_14  and  C8_15 
REMARK    6  A    between atoms: C8_15  and  C9_16 
REMARK    7  A    between atoms: C9_16  and  C10_17 
REMARK    8  A    between atoms: C10_17  and  C11_18 
REMARK    9  A    between atoms: C11_18  and  C12_19 
REMARK   10  A    between atoms: C12_19  and  C13_20 
REMARK   11  A    between atoms: C13_20  and  C14_21 
REMARK   12  A    between atoms: C14_21  and  C15_22 
ROOT
ATOM      1  C4  LGS d           6.559   4.262   4.943  0.00  0.00     0.084 C 
ATOM      2  C5  LGS d           5.980   4.008   6.340  0.00  0.00     0.066 C 
ATOM      3  C6  LGS d           6.719   4.633   7.522  0.00  0.00     0.050 C 
ATOM      4  O6  LGS d           5.670   5.191   8.353  0.00  0.00    -0.319 OA
ATOM      5  C3  LGS d           5.676   3.474   3.969  0.00  0.00     0.091 C 
ATOM      6  C2  LGS d           4.270   4.089   3.877  0.00  0.00     0.104 C 
ATOM      7  C1  LGS d           3.684   4.461   5.261  0.00  0.00     0.133 C 
ATOM      8  N1  LGS d           4.640   4.612   6.384  0.00  0.00    -0.307 N 
ATOM      9  C7  LGS d           4.516   5.255   7.600  0.00  0.00     0.241 C 
ATOM     10  N2  LGS d           3.405   5.833   8.065  0.00  0.00    -0.251 NA
ATOM     11  H2  LGS d           6.536   5.336   4.704  0.00  0.00     0.090 H 
ATOM     12  H3  LGS d           5.922   2.919   6.494  0.00  0.00     0.080 H 
ATOM     13  H4  LGS d           7.404   5.422   7.178  0.00  0.00     0.078 H 
ATOM     14  H5  LGS d           7.287   3.868   8.074  0.00  0.00     0.078 H 
ATOM     15  H6  LGS d           5.605   2.430   4.309  0.00  0.00     0.091 H 
ATOM     16  H8  LGS d           4.356   5.011   3.284  0.00  0.00     0.093 H 
ATOM     17  H10 LGS d           2.952   3.685   5.528  0.00  0.00     0.122 H 
ENDROOT
BRANCH  10  18
ATOM     18  C8  LGS d           3.141   6.336   9.419  0.00  0.00     0.019 C 
ATOM     19  H12 LGS d           3.381   7.408   9.458  0.00  0.00     0.067 H 
ATOM     20  H13 LGS d           3.775   5.791  10.135  0.00  0.00     0.067 H 
BRANCH  18  21
ATOM     21  C9  LGS d           1.678   6.139   9.800  0.00  0.00    -0.048 C 
ATOM     22  H14 LGS d           1.568   5.167  10.302  0.00  0.00     0.035 H 
ATOM     23  H15 LGS d           1.067   6.152   8.886  0.00  0.00     0.035 H 
BRANCH  21  24
ATOM     24  C10 LGS d           1.182   7.244  10.745  0.00  0.00    -0.064 C 
ATOM     25  H16 LGS d           0.452   7.866  10.205  0.00  0.00     0.033 H 
ATOM     26  H17 LGS d           2.041   7.863  11.043  0.00  0.00     0.033 H 
BRANCH  24  27
ATOM     27  C11 LGS d           0.507   6.687  12.021  0.00  0.00    -0.065 C 
ATOM     28  H18 LGS d           0.258   5.624  11.885  0.00  0.00     0.033 H 
ATOM     29  H19 LGS d          -0.410   7.252  12.243  0.00  0.00     0.033 H 
BRANCH  27  30
ATOM     30  C12 LGS d           1.524   6.854  13.164  0.00  0.00    -0.065 C 
ATOM     31  H20 LGS d           1.241   7.735  13.759  0.00  0.00     0.033 H 
ATOM     32  H21 LGS d           2.521   7.011  12.726  0.00  0.00     0.033 H 
BRANCH  30  33
ATOM     33  C13 LGS d           1.587   5.629  14.101  0.00  0.00    -0.065 C 
ATOM     34  H22 LGS d           0.601   5.142  14.128  0.00  0.00     0.033 H 
ATOM     35  H23 LGS d           1.859   5.961  15.113  0.00  0.00     0.033 H 
BRANCH  33  36
ATOM     36  C14 LGS d           2.637   4.620  13.600  0.00  0.00    -0.069 C 
ATOM     37  H24 LGS d           2.148   3.886  12.942  0.00  0.00     0.032 H 
ATOM     38  H25 LGS d           3.079   4.101  14.463  0.00  0.00     0.032 H 
BRANCH  36  39
ATOM     39  C15 LGS d           3.746   5.331  12.821  0.00  0.00    -0.077 C 
ATOM     40  H26 LGS d           4.199   6.107  13.454  0.00  0.00     0.027 H 
ATOM     41  H27 LGS d           3.321   5.795  11.919  0.00  0.00     0.027 H 
ATOM     42  H28 LGS d           4.516   4.601  12.529  0.00  0.00     0.027 H 
ENDBRANCH  36  39
ENDBRANCH  33  36
ENDBRANCH  30  33
ENDBRANCH  27  30
ENDBRANCH  24  27
ENDBRANCH  21  24
ENDBRANCH  18  21
ENDBRANCH  10  18
BRANCH   7  43
ATOM     43  O1  LGS d           3.034   5.745   5.181  0.00  0.00    -0.374 OA
ATOM     44  H11 LGS d           2.870   6.071   6.057  0.00  0.00     0.212 HD
ENDBRANCH   7  43
BRANCH   1  45
ATOM     45  O4  LGS d           7.892   3.784   4.878  0.00  0.00    -0.391 OA
ATOM     46  H1  LGS d           8.093   3.530   3.985  0.00  0.00     0.210 HD
ENDBRANCH   1  45
BRANCH   6  47
ATOM     47  O2  LGS d           3.342   3.219   3.221  0.00  0.00    -0.389 OA
ATOM     48  H9  LGS d           3.203   2.445   3.755  0.00  0.00     0.210 HD
ENDBRANCH   6  47
BRANCH   5  49
ATOM     49  O3  LGS d           6.233   3.525   2.654  0.00  0.00    -0.390 OA
ATOM     50  H7  LGS d           6.826   2.792   2.533  0.00  0.00     0.210 HD
ENDBRANCH   5  49
TORSDOF 12
ENDMDL
MODEL 7
REMARK VINA RESULT:      -6.3      3.607      7.900
REMARK  12 active torsions:
REMARK  status: ('A' for Active; 'I' for Inactive)
REMARK    1  A    between atoms: O4_1  and  C4_2 
REMARK    2  A    between atoms: C3_6  and  O3_7 
REMARK    3  A    between atoms: C2_8  and  O2_9 
REMARK    4  A    between atoms: C1_10  and  O1_11 
REMARK    5  A    between atoms: N2_14  and  C8_15 
REMARK    6  A    between atoms: C8_15  and  C9_16 
REMARK    7  A    between atoms: C9_16  and  C10_17 
REMARK    8  A    between atoms: C10_17  and  C11_18 
REMARK    9  A    between atoms: C11_18  and  C12_19 
REMARK   10  A    between atoms: C12_19  and  C13_20 
REMARK   11  A    between atoms: C13_20  and  C14_21 
REMARK   12  A    between atoms: C14_21  and  C15_22 
ROOT
ATOM      1  C4  LGS d           5.850   3.876   4.454  0.00  0.00     0.084 C 
ATOM      2  C5  LGS d           6.343   3.675   5.891  0.00  0.00     0.066 C 
ATOM      3  C6  LGS d           7.702   4.276   6.249  0.00  0.00     0.050 C 
ATOM      4  O6  LGS d           7.494   4.904   7.539  0.00  0.00    -0.319 OA
ATOM      5  C3  LGS d           4.518   3.123   4.355  0.00  0.00     0.091 C 
ATOM      6  C2  LGS d           3.430   3.814   5.193  0.00  0.00     0.104 C 
ATOM      7  C1  LGS d           3.930   4.239   6.595  0.00  0.00     0.133 C 
ATOM      8  N1  LGS d           5.395   4.353   6.788  0.00  0.00    -0.307 N 
ATOM      9  C7  LGS d           6.135   5.020   7.744  0.00  0.00     0.241 C 
ATOM     10  N2  LGS d           5.636   5.666   8.802  0.00  0.00    -0.251 NA
ATOM     11  H2  LGS d           5.707   4.945   4.239  0.00  0.00     0.090 H 
ATOM     12  H3  LGS d           6.368   2.594   6.097  0.00  0.00     0.080 H 
ATOM     13  H4  LGS d           8.007   5.020   5.498  0.00  0.00     0.078 H 
ATOM     14  H5  LGS d           8.468   3.490   6.319  0.00  0.00     0.078 H 
ATOM     15  H6  LGS d           4.659   2.090   4.705  0.00  0.00     0.091 H 
ATOM     16  H8  LGS d           3.127   4.721   4.650  0.00  0.00     0.093 H 
ATOM     17  H10 LGS d           3.539   3.509   7.319  0.00  0.00     0.122 H 
ENDROOT
BRANCH  10  18
ATOM     18  C8  LGS d           6.360   6.203   9.963  0.00  0.00     0.019 C 
ATOM     19  H12 LGS d           6.901   7.111   9.660  0.00  0.00     0.067 H 
ATOM     20  H13 LGS d           7.077   5.449  10.319  0.00  0.00     0.067 H 
BRANCH  18  21
ATOM     21  C9  LGS d           5.399   6.550  11.094  0.00  0.00    -0.048 C 
ATOM     22  H14 LGS d           5.542   7.605  11.371  0.00  0.00     0.035 H 
ATOM     23  H15 LGS d           5.622   5.909  11.959  0.00  0.00     0.035 H 
BRANCH  21  24
ATOM     24  C10 LGS d           3.934   6.339  10.683  0.00  0.00    -0.064 C 
ATOM     25  H16 LGS d           3.905   6.066   9.617  0.00  0.00     0.033 H 
ATOM     26  H17 LGS d           3.387   7.281  10.835  0.00  0.00     0.033 H 
BRANCH  24  27
ATOM     27  C11 LGS d           3.235   5.225  11.497  0.00  0.00    -0.065 C 
ATOM     28  H18 LGS d           3.814   4.291  11.437  0.00  0.00     0.033 H 
ATOM     29  H19 LGS d           2.220   5.051  11.110  0.00  0.00     0.033 H 
BRANCH  27  30
ATOM     30  C12 LGS d           3.172   5.719  12.954  0.00  0.00    -0.065 C 
ATOM     31  H20 LGS d           4.123   6.215  13.197  0.00  0.00     0.033 H 
ATOM     32  H21 LGS d           3.032   4.849  13.613  0.00  0.00     0.033 H 
BRANCH  30  33
ATOM     33  C13 LGS d           2.020   6.715  13.205  0.00  0.00    -0.065 C 
ATOM     34  H22 LGS d           2.304   7.703  12.813  0.00  0.00     0.033 H 
ATOM     35  H23 LGS d           1.835   6.790  14.286  0.00  0.00     0.033 H 
BRANCH  33  36
ATOM     36  C14 LGS d           0.734   6.242  12.503  0.00  0.00    -0.069 C 
ATOM     37  H24 LGS d          -0.056   6.101  13.255  0.00  0.00     0.032 H 
ATOM     38  H25 LGS d           0.931   5.287  11.994  0.00  0.00     0.032 H 
BRANCH  36  39
ATOM     39  C15 LGS d           0.267   7.273  11.472  0.00  0.00    -0.077 C 
ATOM     40  H26 LGS d           0.275   6.820  10.470  0.00  0.00     0.027 H 
ATOM     41  H27 LGS d           0.944   8.140  11.487  0.00  0.00     0.027 H 
ATOM     42  H28 LGS d          -0.754   7.601  11.718  0.00  0.00     0.027 H 
ENDBRANCH  36  39
ENDBRANCH  33  36
ENDBRANCH  30  33
ENDBRANCH  27  30
ENDBRANCH  24  27
ENDBRANCH  21  24
ENDBRANCH  18  21
ENDBRANCH  10  18
BRANCH   7  43
ATOM     43  O1  LGS d           3.433   5.555   6.906  0.00  0.00    -0.374 OA
ATOM     44  H11 LGS d           2.495   5.512   7.054  0.00  0.00     0.212 HD
ENDBRANCH   7  43
BRANCH   1  45
ATOM     45  O4  LGS d           6.783   3.324   3.541  0.00  0.00    -0.391 OA
ATOM     46  H1  LGS d           7.120   4.012   2.978  0.00  0.00     0.210 HD
ENDBRANCH   1  45
BRANCH   6  47
ATOM     47  O2  LGS d           2.274   2.987   5.364  0.00  0.00    -0.389 OA
ATOM     48  H9  LGS d           2.008   3.002   6.277  0.00  0.00     0.210 HD
ENDBRANCH   6  47
BRANCH   5  49
ATOM     49  O3  LGS d           4.056   3.124   3.002  0.00  0.00    -0.390 OA
ATOM     50  H7  LGS d           4.763   2.856   2.427  0.00  0.00     0.210 HD
ENDBRANCH   5  49
TORSDOF 12
ENDMDL
MODEL 8
REMARK VINA RESULT:      -6.3      2.897      4.911
REMARK  12 active torsions:
REMARK  status: ('A' for Active; 'I' for Inactive)
REMARK    1  A    between atoms: O4_1  and  C4_2 
REMARK    2  A    between atoms: C3_6  and  O3_7 
REMARK    3  A    between atoms: C2_8  and  O2_9 
REMARK    4  A    between atoms: C1_10  and  O1_11 
REMARK    5  A    between atoms: N2_14  and  C8_15 
REMARK    6  A    between atoms: C8_15  and  C9_16 
REMARK    7  A    between atoms: C9_16  and  C10_17 
REMARK    8  A    between atoms: C10_17  and  C11_18 
REMARK    9  A    between atoms: C11_18  and  C12_19 
REMARK   10  A    between atoms: C12_19  and  C13_20 
REMARK   11  A    between atoms: C13_20  and  C14_21 
REMARK   12  A    between atoms: C14_21  and  C15_22 
ROOT
ATOM      1  C4  LGS d           3.625   5.332  10.384  0.00  0.00     0.084 C 
ATOM      2  C5  LGS d           4.941   4.853   9.760  0.00  0.00     0.066 C 
ATOM      3  C6  LGS d           4.856   3.703   8.759  0.00  0.00     0.050 C 
ATOM      4  O6  LGS d           5.721   4.105   7.667  0.00  0.00    -0.319 OA
ATOM      5  C3  LGS d           4.006   6.428  11.386  0.00  0.00     0.091 C 
ATOM      6  C2  LGS d           4.522   7.683  10.663  0.00  0.00     0.104 C 
ATOM      7  C1  LGS d           5.517   7.354   9.522  0.00  0.00     0.133 C 
ATOM      8  N1  LGS d           5.502   5.971   8.987  0.00  0.00    -0.307 N 
ATOM      9  C7  LGS d           5.970   5.456   7.794  0.00  0.00     0.241 C 
ATOM     10  N2  LGS d           6.647   6.136   6.865  0.00  0.00    -0.251 NA
ATOM     11  H2  LGS d           2.953   5.732   9.610  0.00  0.00     0.090 H 
ATOM     12  H3  LGS d           5.622   4.564  10.576  0.00  0.00     0.080 H 
ATOM     13  H4  LGS d           3.822   3.569   8.408  0.00  0.00     0.078 H 
ATOM     14  H5  LGS d           5.214   2.766   9.212  0.00  0.00     0.078 H 
ATOM     15  H6  LGS d           4.782   6.044  12.065  0.00  0.00     0.091 H 
ATOM     16  H8  LGS d           3.650   8.186  10.220  0.00  0.00     0.093 H 
ATOM     17  H10 LGS d           6.529   7.572   9.895  0.00  0.00     0.122 H 
ENDROOT
BRANCH  10  18
ATOM     18  C8  LGS d           7.357   5.611   5.691  0.00  0.00     0.019 C 
ATOM     19  H12 LGS d           7.484   4.525   5.805  0.00  0.00     0.067 H 
ATOM     20  H13 LGS d           8.344   6.091   5.622  0.00  0.00     0.067 H 
BRANCH  18  21
ATOM     21  C9  LGS d           6.577   5.889   4.411  0.00  0.00    -0.048 C 
ATOM     22  H14 LGS d           6.213   4.936   4.001  0.00  0.00     0.035 H 
ATOM     23  H15 LGS d           7.248   6.370   3.684  0.00  0.00     0.035 H 
BRANCH  21  24
ATOM     24  C10 LGS d           5.376   6.812   4.665  0.00  0.00    -0.064 C 
ATOM     25  H16 LGS d           5.746   7.836   4.821  0.00  0.00     0.033 H 
ATOM     26  H17 LGS d           4.854   6.468   5.570  0.00  0.00     0.033 H 
BRANCH  24  27
ATOM     27  C11 LGS d           4.369   6.825   3.490  0.00  0.00    -0.065 C 
ATOM     28  H18 LGS d           4.786   6.287   2.626  0.00  0.00     0.033 H 
ATOM     29  H19 LGS d           4.137   7.861   3.200  0.00  0.00     0.033 H 
BRANCH  27  30
ATOM     30  C12 LGS d           3.098   6.117   3.993  0.00  0.00    -0.065 C 
ATOM     31  H20 LGS d           2.981   5.173   3.441  0.00  0.00     0.033 H 
ATOM     32  H21 LGS d           2.233   6.768   3.795  0.00  0.00     0.033 H 
BRANCH  30  33
ATOM     33  C13 LGS d           3.138   5.801   5.503  0.00  0.00    -0.065 C 
ATOM     34  H22 LGS d           2.388   6.417   6.022  0.00  0.00     0.033 H 
ATOM     35  H23 LGS d           4.139   6.036   5.895  0.00  0.00     0.033 H 
BRANCH  33  36
ATOM     36  C14 LGS d           2.833   4.313   5.752  0.00  0.00    -0.069 C 
ATOM     37  H24 LGS d           1.839   4.221   6.213  0.00  0.00     0.032 H 
ATOM     38  H25 LGS d           3.592   3.898   6.431  0.00  0.00     0.032 H 
BRANCH  36  39
ATOM     39  C15 LGS d           2.852   3.528   4.438  0.00  0.00    -0.077 C 
ATOM     40  H26 LGS d           1.821   3.306   4.129  0.00  0.00     0.027 H 
ATOM     41  H27 LGS d           3.402   2.586   4.582  0.00  0.00     0.027 H 
ATOM     42  H28 LGS d           3.348   4.127   3.660  0.00  0.00     0.027 H 
ENDBRANCH  36  39
ENDBRANCH  33  36
ENDBRANCH  30  33
ENDBRANCH  27  30
ENDBRANCH  24  27
ENDBRANCH  21  24
ENDBRANCH  18  21
ENDBRANCH  10  18
BRANCH   7  43
ATOM     43  O1  LGS d           5.225   8.176   8.376  0.00  0.00    -0.374 OA
ATOM     44  H11 LGS d           4.597   8.845   8.619  0.00  0.00     0.212 HD
ENDBRANCH   7  43
BRANCH   1  45
ATOM     45  O4  LGS d           2.992   4.260  11.061  0.00  0.00    -0.391 OA
ATOM     46  H1  LGS d           2.064   4.265  10.861  0.00  0.00     0.210 HD
ENDBRANCH   1  45
BRANCH   6  47
ATOM     47  O2  LGS d           5.161   8.599  11.559  0.00  0.00    -0.389 OA
ATOM     48  H9  LGS d           5.755   8.122  12.126  0.00  0.00     0.210 HD
ENDBRANCH   6  47
BRANCH   5  49
ATOM     49  O3  LGS d           2.855   6.830  12.132  0.00  0.00    -0.390 OA
ATOM     50  H7  LGS d           2.659   6.171  12.788  0.00  0.00     0.210 HD
ENDBRANCH   5  49
TORSDOF 12
ENDMDL
MODEL 9
REMARK VINA RESULT:      -6.2      2.620      4.444
REMARK  12 active torsions:
REMARK  status: ('A' for Active; 'I' for Inactive)
REMARK    1  A    between atoms: O4_1  and  C4_2 
REMARK    2  A    between atoms: C3_6  and  O3_7 
REMARK    3  A    between atoms: C2_8  and  O2_9 
REMARK    4  A    between atoms: C1_10  and  O1_11 
REMARK    5  A    between atoms: N2_14  and  C8_15 
REMARK    6  A    between atoms: C8_15  and  C9_16 
REMARK    7  A    between atoms: C9_16  and  C10_17 
REMARK    8  A    between atoms: C10_17  and  C11_18 
REMARK    9  A    between atoms: C11_18  and  C12_19 
REMARK   10  A    between atoms: C12_19  and  C13_20 
REMARK   11  A    between atoms: C13_20  and  C14_21 
REMARK   12  A    between atoms: C14_21  and  C15_22 
ROOT
ATOM      1  C4  LGS d           5.087   7.305  11.117  0.00  0.00     0.084 C 
ATOM      2  C5  LGS d           5.328   7.363   9.603  0.00  0.00     0.066 C 
ATOM      3  C6  LGS d           6.667   7.930   9.136  0.00  0.00     0.050 C 
ATOM      4  O6  LGS d           7.104   7.019   8.094  0.00  0.00    -0.319 OA
ATOM      5  C3  LGS d           3.662   6.769  11.298  0.00  0.00     0.091 C 
ATOM      6  C2  LGS d           3.569   5.294  10.876  0.00  0.00     0.104 C 
ATOM      7  C1  LGS d           4.297   5.002   9.541  0.00  0.00     0.133 C 
ATOM      8  N1  LGS d           5.315   5.984   9.095  0.00  0.00    -0.307 N 
ATOM      9  C7  LGS d           6.355   5.865   8.194  0.00  0.00     0.241 C 
ATOM     10  N2  LGS d           6.610   4.794   7.436  0.00  0.00    -0.251 NA
ATOM     11  H2  LGS d           5.816   6.636  11.599  0.00  0.00     0.090 H 
ATOM     12  H3  LGS d           4.516   7.952   9.150  0.00  0.00     0.080 H 
ATOM     13  H4  LGS d           7.391   7.949   9.964  0.00  0.00     0.078 H 
ATOM     14  H5  LGS d           6.541   8.946   8.734  0.00  0.00     0.078 H 
ATOM     15  H6  LGS d           2.969   7.374  10.695  0.00  0.00     0.091 H 
ATOM     16  H8  LGS d           4.050   4.698  11.665  0.00  0.00     0.093 H 
ATOM     17  H10 LGS d           3.529   4.918   8.758  0.00  0.00     0.122 H 
ENDROOT
BRANCH  10  18
ATOM     18  C8  LGS d           7.550   4.679   6.314  0.00  0.00     0.019 C 
ATOM     19  H12 LGS d           8.578   4.752   6.698  0.00  0.00     0.067 H 
ATOM     20  H13 LGS d           7.365   5.498   5.603  0.00  0.00     0.067 H 
BRANCH  18  21
ATOM     21  C9  LGS d           7.382   3.346   5.594  0.00  0.00    -0.048 C 
ATOM     22  H14 LGS d           7.838   2.552   6.203  0.00  0.00     0.035 H 
ATOM     23  H15 LGS d           7.891   3.401   4.621  0.00  0.00     0.035 H 
BRANCH  21  24
ATOM     24  C10 LGS d           5.902   3.007   5.362  0.00  0.00    -0.064 C 
ATOM     25  H16 LGS d           5.321   3.359   6.228  0.00  0.00     0.033 H 
ATOM     26  H17 LGS d           5.802   1.915   5.273  0.00  0.00     0.033 H 
BRANCH  24  27
ATOM     27  C11 LGS d           5.328   3.661   4.083  0.00  0.00    -0.065 C 
ATOM     28  H18 LGS d           6.007   3.496   3.234  0.00  0.00     0.033 H 
ATOM     29  H19 LGS d           5.191   4.742   4.238  0.00  0.00     0.033 H 
BRANCH  27  30
ATOM     30  C12 LGS d           3.969   2.988   3.817  0.00  0.00    -0.065 C 
ATOM     31  H20 LGS d           4.102   1.897   3.876  0.00  0.00     0.033 H 
ATOM     32  H21 LGS d           3.634   3.263   2.806  0.00  0.00     0.033 H 
BRANCH  30  33
ATOM     33  C13 LGS d           2.879   3.406   4.826  0.00  0.00    -0.065 C 
ATOM     34  H22 LGS d           3.212   3.154   5.844  0.00  0.00     0.033 H 
ATOM     35  H23 LGS d           1.950   2.862   4.600  0.00  0.00     0.033 H 
BRANCH  33  36
ATOM     36  C14 LGS d           2.614   4.919   4.740  0.00  0.00    -0.069 C 
ATOM     37  H24 LGS d           1.553   5.088   4.503  0.00  0.00     0.032 H 
ATOM     38  H25 LGS d           3.240   5.350   3.945  0.00  0.00     0.032 H 
BRANCH  36  39
ATOM     39  C15 LGS d           2.946   5.606   6.067  0.00  0.00    -0.077 C 
ATOM     40  H26 LGS d           2.057   6.134   6.440  0.00  0.00     0.027 H 
ATOM     41  H27 LGS d           3.763   6.327   5.913  0.00  0.00     0.027 H 
ATOM     42  H28 LGS d           3.258   4.850   6.803  0.00  0.00     0.027 H 
ENDBRANCH  36  39
ENDBRANCH  33  36
ENDBRANCH  30  33
ENDBRANCH  27  30
ENDBRANCH  24  27
ENDBRANCH  21  24
ENDBRANCH  18  21
ENDBRANCH  10  18
BRANCH   7  43
ATOM     43  O1  LGS d           5.028   3.765   9.650  0.00  0.00    -0.374 OA
ATOM     44  H11 LGS d           5.890   3.873   9.267  0.00  0.00     0.212 HD
ENDBRANCH   7  43
BRANCH   1  45
ATOM     45  O4  LGS d           5.188   8.604  11.673  0.00  0.00    -0.391 OA
ATOM     46  H1  LGS d           5.395   8.536  12.598  0.00  0.00     0.210 HD
ENDBRANCH   1  45
BRANCH   6  47
ATOM     47  O2  LGS d           2.212   4.854  10.747  0.00  0.00    -0.389 OA
ATOM     48  H9  LGS d           1.915   4.501  11.578  0.00  0.00     0.210 HD
ENDBRANCH   6  47
BRANCH   5  49
ATOM     49  O3  LGS d           3.291   6.826  12.677  0.00  0.00    -0.390 OA
ATOM     50  H7  LGS d           3.476   7.693  13.018  0.00  0.00     0.210 HD
ENDBRANCH   5  49
TORSDOF 12
ENDMDL
MODEL 10
REMARK VINA RESULT:      -6.2      3.681      7.289
REMARK  12 active torsions:
REMARK  status: ('A' for Active; 'I' for Inactive)
REMARK    1  A    between atoms: O4_1  and  C4_2 
REMARK    2  A    between atoms: C3_6  and  O3_7 
REMARK    3  A    between atoms: C2_8  and  O2_9 
REMARK    4  A    between atoms: C1_10  and  O1_11 
REMARK    5  A    between atoms: N2_14  and  C8_15 
REMARK    6  A    between atoms: C8_15  and  C9_16 
REMARK    7  A    between atoms: C9_16  and  C10_17 
REMARK    8  A    between atoms: C10_17  and  C11_18 
REMARK    9  A    between atoms: C11_18  and  C12_19 
REMARK   10  A    between atoms: C12_19  and  C13_20 
REMARK   11  A    between atoms: C13_20  and  C14_21 
REMARK   12  A    between atoms: C14_21  and  C15_22 
ROOT
ATOM      1  C4  LGS d           6.196   3.761   5.047  0.00  0.00     0.084 C 
ATOM      2  C5  LGS d           5.580   3.252   6.356  0.00  0.00     0.066 C 
ATOM      3  C6  LGS d           6.284   3.647   7.653  0.00  0.00     0.050 C 
ATOM      4  O6  LGS d           5.211   4.042   8.544  0.00  0.00    -0.319 OA
ATOM      5  C3  LGS d           5.342   3.168   3.919  0.00  0.00     0.091 C 
ATOM      6  C2  LGS d           3.937   3.790   3.905  0.00  0.00     0.104 C 
ATOM      7  C1  LGS d           3.312   3.899   5.318  0.00  0.00     0.133 C 
ATOM      8  N1  LGS d           4.237   3.838   6.475  0.00  0.00    -0.307 N 
ATOM      9  C7  LGS d           4.077   4.244   7.785  0.00  0.00     0.241 C 
ATOM     10  N2  LGS d           2.951   4.727   8.318  0.00  0.00    -0.251 NA
ATOM     11  H2  LGS d           6.174   4.861   5.011  0.00  0.00     0.090 H 
ATOM     12  H3  LGS d           5.523   2.154   6.303  0.00  0.00     0.080 H 
ATOM     13  H4  LGS d           6.975   4.485   7.480  0.00  0.00     0.078 H 
ATOM     14  H5  LGS d           6.840   2.793   8.069  0.00  0.00     0.078 H 
ATOM     15  H6  LGS d           5.267   2.079   4.057  0.00  0.00     0.091 H 
ATOM     16  H8  LGS d           4.034   4.806   3.496  0.00  0.00     0.093 H 
ATOM     17  H10 LGS d           2.577   3.087   5.416  0.00  0.00     0.122 H 
ENDROOT
BRANCH  10  18
ATOM     18  C8  LGS d           2.648   4.969   9.735  0.00  0.00     0.019 C 
ATOM     19  H12 LGS d           3.506   4.652  10.345  0.00  0.00     0.067 H 
ATOM     20  H13 LGS d           1.760   4.384  10.018  0.00  0.00     0.067 H 
BRANCH  18  21
ATOM     21  C9  LGS d           2.374   6.446   9.991  0.00  0.00    -0.048 C 
ATOM     22  H14 LGS d           1.754   6.542  10.895  0.00  0.00     0.035 H 
ATOM     23  H15 LGS d           1.834   6.863   9.129  0.00  0.00     0.035 H 
BRANCH  21  24
ATOM     24  C10 LGS d           3.673   7.240  10.195  0.00  0.00    -0.064 C 
ATOM     25  H16 LGS d           3.424   8.310  10.262  0.00  0.00     0.033 H 
ATOM     26  H17 LGS d           4.328   7.070   9.327  0.00  0.00     0.033 H 
BRANCH  24  27
ATOM     27  C11 LGS d           4.435   6.829  11.477  0.00  0.00    -0.065 C 
ATOM     28  H18 LGS d           3.905   6.011  11.988  0.00  0.00     0.033 H 
ATOM     29  H19 LGS d           4.525   7.689  12.158  0.00  0.00     0.033 H 
BRANCH  27  30
ATOM     30  C12 LGS d           5.830   6.359  11.027  0.00  0.00    -0.065 C 
ATOM     31  H20 LGS d           5.747   5.332  10.642  0.00  0.00     0.033 H 
ATOM     32  H21 LGS d           6.502   6.371  11.899  0.00  0.00     0.033 H 
BRANCH  30  33
ATOM     33  C13 LGS d           6.442   7.249   9.924  0.00  0.00    -0.065 C 
ATOM     34  H22 LGS d           6.649   8.247  10.338  0.00  0.00     0.033 H 
ATOM     35  H23 LGS d           5.727   7.338   9.093  0.00  0.00     0.033 H 
BRANCH  33  36
ATOM     36  C14 LGS d           7.753   6.636   9.401  0.00  0.00    -0.069 C 
ATOM     37  H24 LGS d           7.603   5.561   9.221  0.00  0.00     0.032 H 
ATOM     38  H25 LGS d           8.543   6.774  10.154  0.00  0.00     0.032 H 
BRANCH  36  39
ATOM     39  C15 LGS d           8.184   7.307   8.094  0.00  0.00    -0.077 C 
ATOM     40  H26 LGS d           8.457   8.354   8.292  0.00  0.00     0.027 H 
ATOM     41  H27 LGS d           7.353   7.275   7.374  0.00  0.00     0.027 H 
ATOM     42  H28 LGS d           9.051   6.775   7.676  0.00  0.00     0.027 H 
ENDBRANCH  36  39
ENDBRANCH  33  36
ENDBRANCH  30  33
ENDBRANCH  27  30
ENDBRANCH  24  27
ENDBRANCH  21  24
ENDBRANCH  18  21
ENDBRANCH  10  18
BRANCH   7  43
ATOM     43  O1  LGS d           2.658   5.175   5.459  0.00  0.00    -0.374 OA
ATOM     44  H11 LGS d           2.388   5.488   4.604  0.00  0.00     0.212 HD
ENDBRANCH   7  43
BRANCH   1  45
ATOM     45  O4  LGS d           7.532   3.304   4.931  0.00  0.00    -0.391 OA
ATOM     46  H1  LGS d           7.782   3.288   4.014  0.00  0.00     0.210 HD
ENDBRANCH   1  45
BRANCH   6  47
ATOM     47  O2  LGS d           3.030   3.057   3.073  0.00  0.00    -0.389 OA
ATOM     48  H9  LGS d           2.644   2.348   3.576  0.00  0.00     0.210 HD
ENDBRANCH   6  47
BRANCH   5  49
ATOM     49  O3  LGS d           5.934   3.462   2.652  0.00  0.00    -0.390 OA
ATOM     50  H7  LGS d           6.870   3.582   2.762  0.00  0.00     0.210 HD
ENDBRANCH   5  49
TORSDOF 12
ENDMDL
