MODEL 1
REMARK VINA RESULT:     -10.3      0.000      0.000
REMARK  11 active torsions:
REMARK  status: ('A' for Active; 'I' for Inactive)
REMARK    1  A    between atoms: CAZ_1  and  CAN_2 
REMARK    2  A    between atoms: CAN_2  and  CBA_3 
REMARK    3  A    between atoms: CAN_2  and  CAL_4 
REMARK       I    between atoms: CAL_4  and  NAK_6 
REMARK    4  A    between atoms: NAK_6  and  CAC_7 
REMARK    5  A    between atoms: CAB_8  and  OAG_9 
REMARK    6  A    between atoms: CAA_10  and  OAH_11 
REMARK    7  A    between atoms: CAF_12  and  CAI_13 
REMARK    8  A    between atoms: CAI_13  and  OAJ_14 
REMARK    9  A    between atoms: CAP_19  and  CAR_20 
REMARK   10  A    between atoms: CAR_20  and  CAS_21 
REMARK   11  A    between atoms: CAS_21  and  CAT_22 
ROOT
ATOM      1  CAC GSZ d          33.013  42.868  21.109  0.00  0.00     0.097 C 
ATOM      2  CAB GSZ d          32.438  43.181  22.492  0.00  0.00     0.088 C 
ATOM      3  CAA GSZ d          30.969  42.751  22.680  0.00  0.00     0.084 C 
ATOM      4  CAF GSZ d          30.894  41.235  22.466  0.00  0.00     0.065 C 
ATOM      5  NAE GSZ d          31.235  40.972  21.039  0.00  0.00    -0.332 N 
ATOM      6  CAQ GSZ d          30.791  40.096  20.138  0.00  0.00     0.005 A 
ATOM      7  CAD GSZ d          32.246  41.728  20.392  0.00  0.00     0.132 A 
ATOM      8  NAO GSZ d          32.329  41.276  19.142  0.00  0.00    -0.236 NA
ATOM      9  CAP GSZ d          31.437  40.288  18.977  0.00  0.00     0.052 A 
ATOM     10  H9  GSZ d          32.879  43.773  20.498  0.00  0.00     0.089 H 
ATOM     11  H10 GSZ d          33.046  42.674  23.256  0.00  0.00     0.090 H 
ATOM     12  H12 GSZ d          30.337  43.256  21.935  0.00  0.00     0.090 H 
ATOM     13  H14 GSZ d          31.682  40.782  23.086  0.00  0.00     0.080 H 
ATOM     14  H18 GSZ d          30.025  39.343  20.316  0.00  0.00     0.114 H 
ENDROOT
BRANCH   9  15
ATOM     15  CAR GSZ d          31.237  39.452  17.692  0.00  0.00    -0.020 C 
ATOM     16  H19 GSZ d          30.276  38.920  17.754  0.00  0.00     0.042 H 
ATOM     17  H20 GSZ d          32.056  38.722  17.607  0.00  0.00     0.042 H 
BRANCH  15  18
ATOM     18  CAS GSZ d          31.235  40.344  16.456  0.00  0.00    -0.036 C 
ATOM     19  H21 GSZ d          31.369  39.713  15.565  0.00  0.00     0.040 H 
ATOM     20  H22 GSZ d          32.071  41.054  16.532  0.00  0.00     0.040 H 
BRANCH  18  21
ATOM     21  CAT GSZ d          29.921  41.142  16.302  0.00  0.00    -0.058 A 
ATOM     22  CAU GSZ d          29.880  42.517  16.605  0.00  0.00    -0.077 A 
ATOM     23  CAV GSZ d          28.687  43.242  16.490  0.00  0.00    -0.082 A 
ATOM     24  H23 GSZ d          30.782  43.020  16.931  0.00  0.00     0.084 H 
ATOM     25  CAW GSZ d          27.539  42.574  16.060  0.00  0.00    -0.083 A 
ATOM     26  H24 GSZ d          28.656  44.299  16.730  0.00  0.00     0.083 H 
ATOM     27  CAX GSZ d          27.576  41.199  15.758  0.00  0.00    -0.082 A 
ATOM     28  H25 GSZ d          26.609  43.120  15.957  0.00  0.00     0.083 H 
ATOM     29  CAY GSZ d          28.763  40.480  15.872  0.00  0.00    -0.077 A 
ATOM     30  H26 GSZ d          26.672  40.696  15.434  0.00  0.00     0.083 H 
ATOM     31  H27 GSZ d          28.792  39.423  15.631  0.00  0.00     0.084 H 
ENDBRANCH  18  21
ENDBRANCH  15  18
ENDBRANCH   9  15
BRANCH   4  32
ATOM     32  CAI GSZ d          29.564  40.564  22.903  0.00  0.00     0.038 C 
ATOM     33  H15 GSZ d          29.471  39.583  22.416  0.00  0.00     0.077 H 
ATOM     34  H16 GSZ d          28.717  41.202  22.608  0.00  0.00     0.077 H 
BRANCH  32  35
ATOM     35  OAJ GSZ d          29.562  40.398  24.294  0.00  0.00    -0.399 OA
ATOM     36  H17 GSZ d          28.666  40.391  24.609  0.00  0.00     0.209 HD
ENDBRANCH  32  35
ENDBRANCH   4  32
BRANCH   1  37
ATOM     37  NAK GSZ d          34.484  42.598  21.169  0.00  0.00    -0.347 N 
ATOM     38  CAL GSZ d          35.030  41.752  22.063  0.00  0.00     0.221 C 
ATOM     39  OAM GSZ d          34.382  41.127  22.918  0.00  0.00    -0.273 OA
ATOM     40  H8  GSZ d          35.085  43.064  20.520  0.00  0.00     0.163 HD
BRANCH  38  41
ATOM     41  CAN GSZ d          36.565  41.595  21.944  0.00  0.00     0.017 C 
ATOM     42  H4  GSZ d          36.817  41.518  20.876  0.00  0.00     0.053 H 
BRANCH  41  43
ATOM     43  CAZ GSZ d          37.087  40.328  22.647  0.00  0.00    -0.065 C 
ATOM     44  H1  GSZ d          36.252  39.633  22.817  0.00  0.00     0.028 H 
ATOM     45  H2  GSZ d          37.536  40.603  23.613  0.00  0.00     0.028 H 
ATOM     46  H3  GSZ d          37.845  39.843  22.014  0.00  0.00     0.028 H 
ENDBRANCH  41  43
BRANCH  41  47
ATOM     47  CBA GSZ d          37.252  42.826  22.518  0.00  0.00    -0.065 C 
ATOM     48  H5  GSZ d          37.663  43.432  21.697  0.00  0.00     0.028 H 
ATOM     49  H6  GSZ d          38.068  42.512  23.185  0.00  0.00     0.028 H 
ATOM     50  H7  GSZ d          36.523  43.422  23.086  0.00  0.00     0.028 H 
ENDBRANCH  41  47
ENDBRANCH  38  41
ENDBRANCH   1  37
BRANCH   3  51
ATOM     51  OAH GSZ d          30.517  43.109  23.995  0.00  0.00    -0.391 OA
ATOM     52  H13 GSZ d          29.676  43.547  23.931  0.00  0.00     0.210 HD
ENDBRANCH   3  51
BRANCH   2  53
ATOM     53  OAG GSZ d          32.550  44.566  22.636  0.00  0.00    -0.390 OA
ATOM     54  H11 GSZ d          32.156  44.830  23.460  0.00  0.00     0.210 HD
ENDBRANCH   2  53
TORSDOF 11
ENDMDL
