MODEL 1
REMARK VINA RESULT:      -9.6      0.000      0.000
REMARK  7 active torsions:
REMARK  status: ('A' for Active; 'I' for Inactive)
REMARK    1  A    between atoms: C2_3  and  C5_9 
REMARK    2  A    between atoms: C11_15  and  C2_3 
REMARK    3  A    between atoms: C3_5  and  N3_7 
REMARK    4  A    between atoms: N2_6  and  C4_8 
REMARK    5  A    between atoms: C19_23  and  C15_19 
REMARK    6  A    between atoms: C22_26  and  O2_27 
REMARK    7  A    between atoms: O2_27  and  C23_28 
ROOT
ATOM      1  O1  MOL d          22.745  13.055  21.965  0.00  0.00    -0.269 OA
ATOM      2  C1  MOL d          22.632  11.894  22.309  0.00  0.00     0.276 A 
ATOM      3  C2  MOL d          22.382  10.661  21.360  0.00  0.00     0.183 A 
ATOM      4  N1  MOL d          22.515   9.515  22.319  0.00  0.00    -0.199 N 
ATOM      5  C3  MOL d          22.660   9.996  23.565  0.00  0.00     0.677 A 
ATOM      6  N2  MOL d          22.774  11.415  23.591  0.00  0.00    -0.153 N 
ATOM      7  H1  MOL d          22.497   8.517  22.063  0.00  0.00     0.179 HD
ENDROOT
BRANCH   3   8
ATOM      8  C5  MOL d          20.958  10.700  20.771  0.00  0.00    -0.015 A 
ATOM      9  C6  MOL d          20.194   9.540  20.689  0.00  0.00    -0.074 A 
ATOM     10  C7  MOL d          18.900   9.570  20.173  0.00  0.00    -0.082 A 
ATOM     11  H7  MOL d          20.612   8.600  21.032  0.00  0.00     0.084 H 
ATOM     12  C8  MOL d          18.354  10.755  19.739  0.00  0.00    -0.083 A 
ATOM     13  H8  MOL d          18.321   8.655  20.113  0.00  0.00     0.083 H 
ATOM     14  C9  MOL d          19.099  11.918  19.807  0.00  0.00    -0.082 A 
ATOM     15  H9  MOL d          17.345  10.777  19.344  0.00  0.00     0.083 H 
ATOM     16  C10 MOL d          20.396  11.891  20.313  0.00  0.00    -0.074 A 
ATOM     17  H10 MOL d          18.671  12.854  19.465  0.00  0.00     0.083 H 
ATOM     18  H11 MOL d          20.975  12.807  20.351  0.00  0.00     0.084 H 
ENDBRANCH   3   8
BRANCH   3  19
ATOM     19  C11 MOL d          23.508  10.638  20.308  0.00  0.00    -0.015 A 
ATOM     20  C12 MOL d          23.235  10.800  18.952  0.00  0.00    -0.074 A 
ATOM     21  C13 MOL d          24.264  10.921  18.031  0.00  0.00    -0.082 A 
ATOM     22  H12 MOL d          22.205  10.833  18.613  0.00  0.00     0.084 H 
ATOM     23  C14 MOL d          25.580  10.867  18.453  0.00  0.00    -0.072 A 
ATOM     24  H13 MOL d          24.037  11.058  16.980  0.00  0.00     0.083 H 
ATOM     25  C15 MOL d          25.886  10.674  19.803  0.00  0.00    -0.025 A 
ATOM     26  H14 MOL d          26.381  10.976  17.730  0.00  0.00     0.084 H 
ATOM     27  C16 MOL d          24.837  10.554  20.724  0.00  0.00    -0.063 A 
ATOM     28  H15 MOL d          25.061  10.393  21.772  0.00  0.00     0.085 H 
BRANCH  25  29
ATOM     29  C19 MOL d          27.295  10.607  20.276  0.00  0.00    -0.023 A 
ATOM     30  C18 MOL d          27.700   9.571  21.118  0.00  0.00    -0.040 A 
ATOM     31  C22 MOL d          28.949   9.592  21.729  0.00  0.00     0.069 A 
ATOM     32  H17 MOL d          27.031   8.737  21.299  0.00  0.00     0.089 H 
ATOM     33  C17 MOL d          29.827  10.645  21.495  0.00  0.00    -0.051 A 
ATOM     34  C21 MOL d          29.454  11.654  20.620  0.00  0.00    -0.080 A 
ATOM     35  H16 MOL d          30.791  10.676  21.990  0.00  0.00     0.087 H 
ATOM     36  C20 MOL d          28.202  11.637  20.015  0.00  0.00    -0.072 A 
ATOM     37  H19 MOL d          30.143  12.463  20.405  0.00  0.00     0.083 H 
ATOM     38  H18 MOL d          27.926  12.433  19.332  0.00  0.00     0.084 H 
BRANCH  31  39
ATOM     39  O2  MOL d          29.175   8.527  22.568  0.00  0.00    -0.356 OA
BRANCH  39  40
ATOM     40  C23 MOL d          30.206   8.660  23.559  0.00  0.00     0.010 C 
ATOM     41  H20 MOL d          30.268   7.734  24.149  0.00  0.00     0.066 H 
ATOM     42  H21 MOL d          29.968   9.503  24.224  0.00  0.00     0.066 H 
ATOM     43  H22 MOL d          31.170   8.844  23.063  0.00  0.00     0.066 H 
ENDBRANCH  39  40
ENDBRANCH  31  39
ENDBRANCH  25  29
ENDBRANCH   3  19
BRANCH   6  44
ATOM     44  C4  MOL d          23.008  12.270  24.761  0.00  0.00     0.005 C 
ATOM     45  H4  MOL d          23.045  13.323  24.445  0.00  0.00     0.058 H 
ATOM     46  H5  MOL d          23.964  11.995  25.232  0.00  0.00     0.058 H 
ATOM     47  H6  MOL d          22.190  12.134  25.484  0.00  0.00     0.058 H 
ENDBRANCH   6  44
BRANCH   5  48
ATOM     48  N3  MOL d          22.758   9.255  24.667  0.00  0.00    -0.234 N 
ATOM     49  H2  MOL d          22.670   8.230  24.608  0.00  0.00     0.174 HD
ATOM     50  H3  MOL d          22.922   9.706  25.579  0.00  0.00     0.174 HD
ENDBRANCH   5  48
TORSDOF 7
ENDMDL
