MODEL 1
REMARK VINA RESULT:      -9.6      0.000      0.000
REMARK  7 active torsions:
REMARK  status: ('A' for Active; 'I' for Inactive)
REMARK    1  A    between atoms: C2_3  and  C5_9 
REMARK    2  A    between atoms: C11_15  and  C2_3 
REMARK    3  A    between atoms: C3_5  and  N3_7 
REMARK    4  A    between atoms: N2_6  and  C4_8 
REMARK    5  A    between atoms: C19_23  and  C15_19 
REMARK    6  A    between atoms: C22_26  and  O2_27 
REMARK    7  A    between atoms: O2_27  and  C23_28 
ROOT
ATOM      1  O1  MOL d          22.749  13.101  21.909  0.00  0.00    -0.269 OA
ATOM      2  C1  MOL d          22.637  11.945  22.268  0.00  0.00     0.276 A 
ATOM      3  C2  MOL d          22.383  10.700  21.335  0.00  0.00     0.183 A 
ATOM      4  N1  MOL d          22.518   9.567  22.309  0.00  0.00    -0.199 N 
ATOM      5  C3  MOL d          22.669  10.063  23.548  0.00  0.00     0.677 A 
ATOM      6  N2  MOL d          22.784  11.483  23.555  0.00  0.00    -0.153 N 
ATOM      7  H1  MOL d          22.499   8.565  22.066  0.00  0.00     0.179 HD
ENDROOT
BRANCH   3   8
ATOM      8  C5  MOL d          20.956  10.732  20.752  0.00  0.00    -0.015 A 
ATOM      9  C6  MOL d          20.214   9.561  20.634  0.00  0.00    -0.074 A 
ATOM     10  C7  MOL d          18.917   9.585  20.122  0.00  0.00    -0.082 A 
ATOM     11  H7  MOL d          20.650   8.618  20.944  0.00  0.00     0.084 H 
ATOM     12  C8  MOL d          18.348  10.774  19.728  0.00  0.00    -0.083 A 
ATOM     13  H8  MOL d          18.356   8.662  20.033  0.00  0.00     0.083 H 
ATOM     14  C9  MOL d          19.072  11.947  19.833  0.00  0.00    -0.082 A 
ATOM     15  H9  MOL d          17.338  10.791  19.338  0.00  0.00     0.083 H 
ATOM     16  C10 MOL d          20.371  11.928  20.336  0.00  0.00    -0.074 A 
ATOM     17  H10 MOL d          18.626  12.886  19.524  0.00  0.00     0.083 H 
ATOM     18  H11 MOL d          20.933  12.852  20.403  0.00  0.00     0.084 H 
ENDBRANCH   3   8
BRANCH   3  19
ATOM     19  C11 MOL d          23.504  10.662  20.280  0.00  0.00    -0.015 A 
ATOM     20  C12 MOL d          23.225  10.806  18.923  0.00  0.00    -0.074 A 
ATOM     21  C13 MOL d          24.251  10.914  17.996  0.00  0.00    -0.082 A 
ATOM     22  H12 MOL d          22.195  10.834  18.588  0.00  0.00     0.084 H 
ATOM     23  C14 MOL d          25.568  10.867  18.413  0.00  0.00    -0.072 A 
ATOM     24  H13 MOL d          24.020  11.037  16.944  0.00  0.00     0.083 H 
ATOM     25  C15 MOL d          25.880  10.692  19.765  0.00  0.00    -0.025 A 
ATOM     26  H14 MOL d          26.367  10.966  17.686  0.00  0.00     0.084 H 
ATOM     27  C16 MOL d          24.835  10.584  20.691  0.00  0.00    -0.063 A 
ATOM     28  H15 MOL d          25.063  10.439  21.741  0.00  0.00     0.085 H 
BRANCH  25  29
ATOM     29  C19 MOL d          27.291  10.632  20.233  0.00  0.00    -0.023 A 
ATOM     30  C18 MOL d          27.707   9.591  21.064  0.00  0.00    -0.040 A 
ATOM     31  C22 MOL d          28.958   9.616  21.671  0.00  0.00     0.069 A 
ATOM     32  H17 MOL d          27.046   8.750  21.238  0.00  0.00     0.089 H 
ATOM     33  C17 MOL d          29.826  10.678  21.445  0.00  0.00    -0.051 A 
ATOM     34  C21 MOL d          29.442  11.694  20.581  0.00  0.00    -0.080 A 
ATOM     35  H16 MOL d          30.791  10.713  21.938  0.00  0.00     0.087 H 
ATOM     36  C20 MOL d          28.188  11.672  19.980  0.00  0.00    -0.072 A 
ATOM     37  H19 MOL d          30.124  12.510  20.373  0.00  0.00     0.083 H 
ATOM     38  H18 MOL d          27.904  12.473  19.306  0.00  0.00     0.084 H 
BRANCH  31  39
ATOM     39  O2  MOL d          29.195   8.545  22.498  0.00  0.00    -0.356 OA
BRANCH  39  40
ATOM     40  C23 MOL d          30.084   8.738  23.609  0.00  0.00     0.010 C 
ATOM     41  H20 MOL d          29.552   8.518  24.546  0.00  0.00     0.066 H 
ATOM     42  H21 MOL d          30.435   9.781  23.622  0.00  0.00     0.066 H 
ATOM     43  H22 MOL d          30.947   8.062  23.511  0.00  0.00     0.066 H 
ENDBRANCH  39  40
ENDBRANCH  31  39
ENDBRANCH  25  29
ENDBRANCH   3  19
BRANCH   6  44
ATOM     44  C4  MOL d          23.023  12.352  24.714  0.00  0.00     0.005 C 
ATOM     45  H4  MOL d          22.086  12.856  24.994  0.00  0.00     0.058 H 
ATOM     46  H5  MOL d          23.782  13.106  24.456  0.00  0.00     0.058 H 
ATOM     47  H6  MOL d          23.380  11.747  25.560  0.00  0.00     0.058 H 
ENDBRANCH   6  44
BRANCH   5  48
ATOM     48  N3  MOL d          22.771   9.336  24.659  0.00  0.00    -0.234 N 
ATOM     49  H2  MOL d          23.248   8.423  24.636  0.00  0.00     0.174 HD
ATOM     50  H3  MOL d          22.372   9.686  25.542  0.00  0.00     0.174 HD
ENDBRANCH   5  48
TORSDOF 7
ENDMDL
