MODEL 1
REMARK VINA RESULT:      -4.5      0.000      0.000
REMARK  3 active torsions:
REMARK  status: ('A' for Active; 'I' for Inactive)
REMARK    1  A    between atoms: C1'_1  and  C2_7 
REMARK    2  A    between atoms: C2_7  and  C1_8 
REMARK    3  A    between atoms: C1_8  and  N_9 
ROOT
ATOM      1  C1' PEA d          45.856  20.178  50.799  0.00  0.00    -0.057 A 
ATOM      2  C6' PEA d          46.666  21.006  51.556  0.00  0.00    -0.077 A 
ATOM      3  C5' PEA d          46.930  22.322  51.215  0.00  0.00    -0.082 A 
ATOM      4  C4' PEA d          46.388  22.868  50.061  0.00  0.00    -0.083 A 
ATOM      5  C3' PEA d          45.591  22.047  49.285  0.00  0.00    -0.082 A 
ATOM      6  C2' PEA d          45.336  20.746  49.646  0.00  0.00    -0.077 A 
ATOM      7  H1  PEA d          47.114  20.605  52.458  0.00  0.00     0.084 H 
ATOM      8  H2  PEA d          47.563  22.929  51.853  0.00  0.00     0.083 H 
ATOM      9  H3  PEA d          46.583  23.897  49.778  0.00  0.00     0.083 H 
ATOM     10  H4  PEA d          45.156  22.439  48.372  0.00  0.00     0.083 H 
ATOM     11  H5  PEA d          44.705  20.140  49.005  0.00  0.00     0.084 H 
ENDROOT
BRANCH   1  12
ATOM     12  C2  PEA d          45.591  18.850  51.198  0.00  0.00    -0.019 C 
ATOM     13  H6  PEA d          46.377  18.193  50.795  0.00  0.00     0.042 H 
ATOM     14  H7  PEA d          44.614  18.544  50.795  0.00  0.00     0.042 H 
BRANCH  12  15
ATOM     15  C1  PEA d          45.564  18.713  52.750  0.00  0.00     0.083 C 
ATOM     16  H8  PEA d          44.552  18.946  53.111  0.00  0.00     0.075 H 
ATOM     17  H9  PEA d          46.281  19.425  53.185  0.00  0.00     0.075 H 
BRANCH  15  18
ATOM     18  N   PEA d          45.927  17.330  53.186  0.00  0.00    -0.079 N 
ATOM     19  H10 PEA d          45.165  16.932  53.711  0.00  0.00     0.274 HD
ATOM     20  H11 PEA d          46.750  17.367  53.766  0.00  0.00     0.274 HD
ATOM     21  H12 PEA d          46.111  16.760  52.376  0.00  0.00     0.274 HD
ENDBRANCH  15  18
ENDBRANCH  12  15
ENDBRANCH   1  12
TORSDOF 3
ENDMDL
MODEL 2
REMARK VINA RESULT:      -4.5      0.077      1.571
REMARK  3 active torsions:
REMARK  status: ('A' for Active; 'I' for Inactive)
REMARK    1  A    between atoms: C1'_1  and  C2_7 
REMARK    2  A    between atoms: C2_7  and  C1_8 
REMARK    3  A    between atoms: C1_8  and  N_9 
ROOT
ATOM      1  C1' PEA d          45.865  20.190  50.897  0.00  0.00    -0.057 A 
ATOM      2  C6' PEA d          45.364  20.720  49.720  0.00  0.00    -0.077 A 
ATOM      3  C5' PEA d          45.638  22.011  49.297  0.00  0.00    -0.082 A 
ATOM      4  C4' PEA d          46.433  22.846  50.067  0.00  0.00    -0.083 A 
ATOM      5  C3' PEA d          46.927  22.335  51.253  0.00  0.00    -0.082 A 
ATOM      6  C2' PEA d          46.649  21.049  51.651  0.00  0.00    -0.077 A 
ATOM      7  H1  PEA d          44.729  20.097  49.102  0.00  0.00     0.084 H 
ATOM      8  H2  PEA d          45.228  22.370  48.360  0.00  0.00     0.083 H 
ATOM      9  H3  PEA d          46.659  23.858  49.751  0.00  0.00     0.083 H 
ATOM     10  H4  PEA d          47.547  22.963  51.883  0.00  0.00     0.083 H 
ATOM     11  H5  PEA d          47.057  20.694  52.590  0.00  0.00     0.084 H 
ENDROOT
BRANCH   1  12
ATOM     12  C2  PEA d          45.582  18.861  51.277  0.00  0.00    -0.019 C 
ATOM     13  H6  PEA d          46.340  18.195  50.838  0.00  0.00     0.042 H 
ATOM     14  H7  PEA d          44.587  18.585  50.899  0.00  0.00     0.042 H 
BRANCH  12  15
ATOM     15  C1  PEA d          45.598  18.693  52.827  0.00  0.00     0.083 C 
ATOM     16  H8  PEA d          44.606  18.953  53.224  0.00  0.00     0.075 H 
ATOM     17  H9  PEA d          46.352  19.371  53.253  0.00  0.00     0.075 H 
BRANCH  15  18
ATOM     18  N   PEA d          45.927  17.290  53.225  0.00  0.00    -0.079 N 
ATOM     19  H10 PEA d          45.112  16.857  53.631  0.00  0.00     0.274 HD
ATOM     20  H11 PEA d          46.674  17.299  53.900  0.00  0.00     0.274 HD
ATOM     21  H12 PEA d          46.214  16.769  52.411  0.00  0.00     0.274 HD
ENDBRANCH  15  18
ENDBRANCH  12  15
ENDBRANCH   1  12
TORSDOF 3
ENDMDL
MODEL 3
REMARK VINA RESULT:      -4.3      1.700      1.720
REMARK  3 active torsions:
REMARK  status: ('A' for Active; 'I' for Inactive)
REMARK    1  A    between atoms: C1'_1  and  C2_7 
REMARK    2  A    between atoms: C2_7  and  C1_8 
REMARK    3  A    between atoms: C1_8  and  N_9 
ROOT
ATOM      1  C1' PEA d          45.052  20.474  50.933  0.00  0.00    -0.057 A 
ATOM      2  C6' PEA d          45.170  21.357  51.992  0.00  0.00    -0.077 A 
ATOM      3  C5' PEA d          44.556  22.599  52.011  0.00  0.00    -0.082 A 
ATOM      4  C4' PEA d          43.792  23.019  50.932  0.00  0.00    -0.083 A 
ATOM      5  C3' PEA d          43.679  22.153  49.860  0.00  0.00    -0.082 A 
ATOM      6  C2' PEA d          44.291  20.922  49.864  0.00  0.00    -0.077 A 
ATOM      7  H1  PEA d          45.770  21.064  52.845  0.00  0.00     0.084 H 
ATOM      8  H2  PEA d          44.673  23.246  52.873  0.00  0.00     0.083 H 
ATOM      9  H3  PEA d          43.303  23.987  50.930  0.00  0.00     0.083 H 
ATOM     10  H4  PEA d          43.095  22.452  48.996  0.00  0.00     0.083 H 
ATOM     11  H5  PEA d          44.175  20.278  49.000  0.00  0.00     0.084 H 
ENDROOT
BRANCH   1  12
ATOM     12  C2  PEA d          45.673  19.207  50.966  0.00  0.00    -0.019 C 
ATOM     13  H6  PEA d          46.762  19.340  50.876  0.00  0.00     0.042 H 
ATOM     14  H7  PEA d          45.305  18.606  50.121  0.00  0.00     0.042 H 
BRANCH  12  15
ATOM     15  C1  PEA d          45.365  18.452  52.295  0.00  0.00     0.083 C 
ATOM     16  H8  PEA d          45.018  19.178  53.045  0.00  0.00     0.075 H 
ATOM     17  H9  PEA d          46.285  17.966  52.652  0.00  0.00     0.075 H 
BRANCH  15  18
ATOM     18  N   PEA d          44.309  17.411  52.104  0.00  0.00    -0.079 N 
ATOM     19  H10 PEA d          43.914  17.500  51.181  0.00  0.00     0.274 HD
ATOM     20  H11 PEA d          43.584  17.537  52.792  0.00  0.00     0.274 HD
ATOM     21  H12 PEA d          44.717  16.495  52.208  0.00  0.00     0.274 HD
ENDBRANCH  15  18
ENDBRANCH  12  15
ENDBRANCH   1  12
TORSDOF 3
ENDMDL
MODEL 4
REMARK VINA RESULT:      -4.2      2.520      4.179
REMARK  3 active torsions:
REMARK  status: ('A' for Active; 'I' for Inactive)
REMARK    1  A    between atoms: C1'_1  and  C2_7 
REMARK    2  A    between atoms: C2_7  and  C1_8 
REMARK    3  A    between atoms: C1_8  and  N_9 
ROOT
ATOM      1  C1' PEA d          45.724  21.052  50.293  0.00  0.00    -0.057 A 
ATOM      2  C6' PEA d          45.307  19.782  49.934  0.00  0.00    -0.077 A 
ATOM      3  C5' PEA d          45.209  18.736  50.837  0.00  0.00    -0.082 A 
ATOM      4  C4' PEA d          45.550  18.927  52.168  0.00  0.00    -0.083 A 
ATOM      5  C3' PEA d          45.985  20.186  52.538  0.00  0.00    -0.082 A 
ATOM      6  C2' PEA d          46.067  21.212  51.627  0.00  0.00    -0.077 A 
ATOM      7  H1  PEA d          45.045  19.598  48.899  0.00  0.00     0.084 H 
ATOM      8  H2  PEA d          44.865  17.764  50.503  0.00  0.00     0.083 H 
ATOM      9  H3  PEA d          45.479  18.120  52.890  0.00  0.00     0.083 H 
ATOM     10  H4  PEA d          46.266  20.368  53.569  0.00  0.00     0.083 H 
ATOM     11  H5  PEA d          46.415  22.182  51.963  0.00  0.00     0.084 H 
ENDROOT
BRANCH   1  12
ATOM     12  C2  PEA d          45.783  22.096  49.345  0.00  0.00    -0.019 C 
ATOM     13  H6  PEA d          45.718  21.666  48.335  0.00  0.00     0.042 H 
ATOM     14  H7  PEA d          46.741  22.626  49.458  0.00  0.00     0.042 H 
BRANCH  12  15
ATOM     15  C1  PEA d          44.617  23.113  49.539  0.00  0.00     0.083 C 
ATOM     16  H8  PEA d          44.807  23.997  48.913  0.00  0.00     0.075 H 
ATOM     17  H9  PEA d          44.577  23.414  50.596  0.00  0.00     0.075 H 
BRANCH  15  18
ATOM     18  N   PEA d          43.301  22.519  49.153  0.00  0.00    -0.079 N 
ATOM     19  H10 PEA d          43.429  21.551  48.902  0.00  0.00     0.274 HD
ATOM     20  H11 PEA d          42.923  23.022  48.366  0.00  0.00     0.274 HD
ATOM     21  H12 PEA d          42.662  22.582  49.931  0.00  0.00     0.274 HD
ENDBRANCH  15  18
ENDBRANCH  12  15
ENDBRANCH   1  12
TORSDOF 3
ENDMDL
MODEL 5
REMARK VINA RESULT:      -3.9      2.140      3.739
REMARK  3 active torsions:
REMARK  status: ('A' for Active; 'I' for Inactive)
REMARK    1  A    between atoms: C1'_1  and  C2_7 
REMARK    2  A    between atoms: C2_7  and  C1_8 
REMARK    3  A    between atoms: C1_8  and  N_9 
ROOT
ATOM      1  C1' PEA d          46.239  21.020  51.266  0.00  0.00    -0.057 A 
ATOM      2  C6' PEA d          45.201  21.048  50.353  0.00  0.00    -0.077 A 
ATOM      3  C5' PEA d          44.326  19.989  50.171  0.00  0.00    -0.082 A 
ATOM      4  C4' PEA d          44.475  18.824  50.909  0.00  0.00    -0.083 A 
ATOM      5  C3' PEA d          45.519  18.776  51.814  0.00  0.00    -0.082 A 
ATOM      6  C2' PEA d          46.371  19.841  51.983  0.00  0.00    -0.077 A 
ATOM      7  H1  PEA d          45.065  21.940  49.752  0.00  0.00     0.084 H 
ATOM      8  H2  PEA d          43.522  20.070  49.448  0.00  0.00     0.083 H 
ATOM      9  H3  PEA d          43.800  17.985  50.781  0.00  0.00     0.083 H 
ATOM     10  H4  PEA d          45.669  17.878  52.403  0.00  0.00     0.083 H 
ATOM     11  H5  PEA d          47.176  19.756  52.704  0.00  0.00     0.084 H 
ENDROOT
BRANCH   1  12
ATOM     12  C2  PEA d          47.091  22.133  51.438  0.00  0.00    -0.019 C 
ATOM     13  H6  PEA d          46.719  22.966  50.822  0.00  0.00     0.042 H 
ATOM     14  H7  PEA d          48.106  21.859  51.113  0.00  0.00     0.042 H 
BRANCH  12  15
ATOM     15  C1  PEA d          47.143  22.590  52.928  0.00  0.00     0.083 C 
ATOM     16  H8  PEA d          47.817  23.454  53.012  0.00  0.00     0.075 H 
ATOM     17  H9  PEA d          47.529  21.763  53.542  0.00  0.00     0.075 H 
BRANCH  15  18
ATOM     18  N   PEA d          45.791  22.978  53.432  0.00  0.00    -0.079 N 
ATOM     19  H10 PEA d          45.782  22.936  54.438  0.00  0.00     0.274 HD
ATOM     20  H11 PEA d          45.100  22.343  53.064  0.00  0.00     0.274 HD
ATOM     21  H12 PEA d          45.577  23.917  53.133  0.00  0.00     0.274 HD
ENDBRANCH  15  18
ENDBRANCH  12  15
ENDBRANCH   1  12
TORSDOF 3
ENDMDL
MODEL 6
REMARK VINA RESULT:      -3.8      1.352      2.043
REMARK  3 active torsions:
REMARK  status: ('A' for Active; 'I' for Inactive)
REMARK    1  A    between atoms: C1'_1  and  C2_7 
REMARK    2  A    between atoms: C2_7  and  C1_8 
REMARK    3  A    between atoms: C1_8  and  N_9 
ROOT
ATOM      1  C1' PEA d          45.685  21.296  51.525  0.00  0.00    -0.057 A 
ATOM      2  C6' PEA d          45.669  21.691  52.851  0.00  0.00    -0.077 A 
ATOM      3  C5' PEA d          46.483  22.694  53.350  0.00  0.00    -0.082 A 
ATOM      4  C4' PEA d          47.380  23.346  52.517  0.00  0.00    -0.083 A 
ATOM      5  C3' PEA d          47.420  22.951  51.193  0.00  0.00    -0.082 A 
ATOM      6  C2' PEA d          46.598  21.957  50.717  0.00  0.00    -0.077 A 
ATOM      7  H1  PEA d          44.987  21.192  53.530  0.00  0.00     0.084 H 
ATOM      8  H2  PEA d          46.420  22.971  54.396  0.00  0.00     0.083 H 
ATOM      9  H3  PEA d          48.025  24.135  52.890  0.00  0.00     0.083 H 
ATOM     10  H4  PEA d          48.114  23.434  50.516  0.00  0.00     0.083 H 
ATOM     11  H5  PEA d          46.665  21.680  49.671  0.00  0.00     0.084 H 
ENDROOT
BRANCH   1  12
ATOM     12  C2  PEA d          44.819  20.287  51.052  0.00  0.00    -0.019 C 
ATOM     13  H6  PEA d          44.374  20.614  50.100  0.00  0.00     0.042 H 
ATOM     14  H7  PEA d          44.022  20.124  51.793  0.00  0.00     0.042 H 
BRANCH  12  15
ATOM     15  C1  PEA d          45.576  18.943  50.821  0.00  0.00     0.083 C 
ATOM     16  H8  PEA d          46.618  19.164  50.548  0.00  0.00     0.075 H 
ATOM     17  H9  PEA d          45.089  18.396  50.000  0.00  0.00     0.075 H 
BRANCH  15  18
ATOM     18  N   PEA d          45.567  18.089  52.047  0.00  0.00    -0.079 N 
ATOM     19  H10 PEA d          45.195  18.617  52.821  0.00  0.00     0.274 HD
ATOM     20  H11 PEA d          46.507  17.797  52.261  0.00  0.00     0.274 HD
ATOM     21  H12 PEA d          44.990  17.278  51.887  0.00  0.00     0.274 HD
ENDBRANCH  15  18
ENDBRANCH  12  15
ENDBRANCH   1  12
TORSDOF 3
ENDMDL
MODEL 7
REMARK VINA RESULT:      -3.6      2.269      2.724
REMARK  3 active torsions:
REMARK  status: ('A' for Active; 'I' for Inactive)
REMARK    1  A    between atoms: C1'_1  and  C2_7 
REMARK    2  A    between atoms: C2_7  and  C1_8 
REMARK    3  A    between atoms: C1_8  and  N_9 
ROOT
ATOM      1  C1' PEA d          46.027  21.071  51.147  0.00  0.00    -0.057 A 
ATOM      2  C6' PEA d          45.859  21.169  52.517  0.00  0.00    -0.077 A 
ATOM      3  C5' PEA d          46.114  22.331  53.227  0.00  0.00    -0.082 A 
ATOM      4  C4' PEA d          46.574  23.464  52.574  0.00  0.00    -0.083 A 
ATOM      5  C3' PEA d          46.763  23.376  51.207  0.00  0.00    -0.082 A 
ATOM      6  C2' PEA d          46.496  22.215  50.520  0.00  0.00    -0.077 A 
ATOM      7  H1  PEA d          45.512  20.297  53.059  0.00  0.00     0.084 H 
ATOM      8  H2  PEA d          45.954  22.355  54.299  0.00  0.00     0.083 H 
ATOM      9  H3  PEA d          46.778  24.383  53.113  0.00  0.00     0.083 H 
ATOM     10  H4  PEA d          47.128  24.241  50.665  0.00  0.00     0.083 H 
ATOM     11  H5  PEA d          46.660  22.193  49.449  0.00  0.00     0.084 H 
ENDROOT
BRANCH   1  12
ATOM     12  C2  PEA d          45.729  19.875  50.458  0.00  0.00    -0.019 C 
ATOM     13  H6  PEA d          46.144  19.026  51.022  0.00  0.00     0.042 H 
ATOM     14  H7  PEA d          46.190  19.914  49.460  0.00  0.00     0.042 H 
BRANCH  12  15
ATOM     15  C1  PEA d          44.192  19.673  50.298  0.00  0.00     0.083 C 
ATOM     16  H8  PEA d          43.689  20.020  51.213  0.00  0.00     0.075 H 
ATOM     17  H9  PEA d          43.985  18.603  50.150  0.00  0.00     0.075 H 
BRANCH  15  18
ATOM     18  N   PEA d          43.656  20.438  49.131  0.00  0.00    -0.079 N 
ATOM     19  H10 PEA d          43.999  21.385  49.163  0.00  0.00     0.274 HD
ATOM     20  H11 PEA d          42.649  20.444  49.167  0.00  0.00     0.274 HD
ATOM     21  H12 PEA d          43.959  20.000  48.275  0.00  0.00     0.274 HD
ENDBRANCH  15  18
ENDBRANCH  12  15
ENDBRANCH   1  12
TORSDOF 3
ENDMDL
MODEL 8
REMARK VINA RESULT:      -3.5      1.877      1.896
REMARK  3 active torsions:
REMARK  status: ('A' for Active; 'I' for Inactive)
REMARK    1  A    between atoms: C1'_1  and  C2_7 
REMARK    2  A    between atoms: C2_7  and  C1_8 
REMARK    3  A    between atoms: C1_8  and  N_9 
ROOT
ATOM      1  C1' PEA d          45.237  21.031  51.553  0.00  0.00    -0.057 A 
ATOM      2  C6' PEA d          45.896  21.706  52.565  0.00  0.00    -0.077 A 
ATOM      3  C5' PEA d          45.588  23.006  52.932  0.00  0.00    -0.082 A 
ATOM      4  C4' PEA d          44.589  23.702  52.268  0.00  0.00    -0.083 A 
ATOM      5  C3' PEA d          43.932  23.046  51.243  0.00  0.00    -0.082 A 
ATOM      6  C2' PEA d          44.250  21.753  50.900  0.00  0.00    -0.077 A 
ATOM      7  H1  PEA d          46.690  21.193  53.095  0.00  0.00     0.084 H 
ATOM      8  H2  PEA d          46.130  23.481  53.741  0.00  0.00     0.083 H 
ATOM      9  H3  PEA d          44.333  24.719  52.542  0.00  0.00     0.083 H 
ATOM     10  H4  PEA d          43.151  23.563  50.698  0.00  0.00     0.083 H 
ATOM     11  H5  PEA d          43.708  21.281  50.088  0.00  0.00     0.084 H 
ENDROOT
BRANCH   1  12
ATOM     12  C2  PEA d          45.565  19.697  51.229  0.00  0.00    -0.019 C 
ATOM     13  H6  PEA d          46.604  19.662  50.869  0.00  0.00     0.042 H 
ATOM     14  H7  PEA d          44.889  19.345  50.435  0.00  0.00     0.042 H 
BRANCH  12  15
ATOM     15  C1  PEA d          45.426  18.757  52.465  0.00  0.00     0.083 C 
ATOM     16  H8  PEA d          45.141  17.753  52.119  0.00  0.00     0.075 H 
ATOM     17  H9  PEA d          44.642  19.152  53.128  0.00  0.00     0.075 H 
BRANCH  15  18
ATOM     18  N   PEA d          46.706  18.661  53.230  0.00  0.00    -0.079 N 
ATOM     19  H10 PEA d          47.026  19.587  53.466  0.00  0.00     0.274 HD
ATOM     20  H11 PEA d          47.401  18.200  52.665  0.00  0.00     0.274 HD
ATOM     21  H12 PEA d          46.554  18.133  54.075  0.00  0.00     0.274 HD
ENDBRANCH  15  18
ENDBRANCH  12  15
ENDBRANCH   1  12
TORSDOF 3
ENDMDL
MODEL 9
REMARK VINA RESULT:      -3.4      2.587      3.993
REMARK  3 active torsions:
REMARK  status: ('A' for Active; 'I' for Inactive)
REMARK    1  A    between atoms: C1'_1  and  C2_7 
REMARK    2  A    between atoms: C2_7  and  C1_8 
REMARK    3  A    between atoms: C1_8  and  N_9 
ROOT
ATOM      1  C1' PEA d          44.544  20.952  50.609  0.00  0.00    -0.057 A 
ATOM      2  C6' PEA d          45.279  21.143  51.765  0.00  0.00    -0.077 A 
ATOM      3  C5' PEA d          45.732  20.099  52.555  0.00  0.00    -0.082 A 
ATOM      4  C4' PEA d          45.443  18.786  52.211  0.00  0.00    -0.083 A 
ATOM      5  C3' PEA d          44.695  18.580  51.067  0.00  0.00    -0.082 A 
ATOM      6  C2' PEA d          44.261  19.631  50.294  0.00  0.00    -0.077 A 
ATOM      7  H1  PEA d          45.511  22.158  52.068  0.00  0.00     0.084 H 
ATOM      8  H2  PEA d          46.314  20.307  53.444  0.00  0.00     0.083 H 
ATOM      9  H3  PEA d          45.790  17.956  52.816  0.00  0.00     0.083 H 
ATOM     10  H4  PEA d          44.445  17.567  50.773  0.00  0.00     0.083 H 
ATOM     11  H5  PEA d          43.676  19.420  49.407  0.00  0.00     0.084 H 
ENDROOT
BRANCH   1  12
ATOM     12  C2  PEA d          44.125  22.044  49.820  0.00  0.00    -0.019 C 
ATOM     13  H6  PEA d          43.598  22.767  50.462  0.00  0.00     0.042 H 
ATOM     14  H7  PEA d          43.440  21.680  49.039  0.00  0.00     0.042 H 
BRANCH  12  15
ATOM     15  C1  PEA d          45.333  22.757  49.140  0.00  0.00     0.083 C 
ATOM     16  H8  PEA d          44.952  23.525  48.451  0.00  0.00     0.075 H 
ATOM     17  H9  PEA d          45.915  22.014  48.575  0.00  0.00     0.075 H 
BRANCH  15  18
ATOM     18  N   PEA d          46.225  23.408  50.147  0.00  0.00    -0.079 N 
ATOM     19  H10 PEA d          46.008  23.055  51.066  0.00  0.00     0.274 HD
ATOM     20  H11 PEA d          46.082  24.405  50.128  0.00  0.00     0.274 HD
ATOM     21  H12 PEA d          47.187  23.201  49.927  0.00  0.00     0.274 HD
ENDBRANCH  15  18
ENDBRANCH  12  15
ENDBRANCH   1  12
TORSDOF 3
ENDMDL
MODEL 10
REMARK VINA RESULT:      -2.9      2.261      2.712
REMARK  3 active torsions:
REMARK  status: ('A' for Active; 'I' for Inactive)
REMARK    1  A    between atoms: C1'_1  and  C2_7 
REMARK    2  A    between atoms: C2_7  and  C1_8 
REMARK    3  A    between atoms: C1_8  and  N_9 
ROOT
ATOM      1  C1' PEA d          45.463  21.710  50.667  0.00  0.00    -0.057 A 
ATOM      2  C6' PEA d          46.081  22.753  50.000  0.00  0.00    -0.077 A 
ATOM      3  C5' PEA d          45.382  23.713  49.286  0.00  0.00    -0.082 A 
ATOM      4  C4' PEA d          43.999  23.652  49.200  0.00  0.00    -0.083 A 
ATOM      5  C3' PEA d          43.369  22.606  49.848  0.00  0.00    -0.082 A 
ATOM      6  C2' PEA d          44.081  21.668  50.556  0.00  0.00    -0.077 A 
ATOM      7  H1  PEA d          47.162  22.822  50.037  0.00  0.00     0.084 H 
ATOM      8  H2  PEA d          45.918  24.516  48.792  0.00  0.00     0.083 H 
ATOM      9  H3  PEA d          43.435  24.396  48.647  0.00  0.00     0.083 H 
ATOM     10  H4  PEA d          42.289  22.524  49.796  0.00  0.00     0.083 H 
ATOM     11  H5  PEA d          43.544  20.865  51.047  0.00  0.00     0.084 H 
ENDROOT
BRANCH   1  12
ATOM     12  C2  PEA d          46.212  20.769  51.404  0.00  0.00    -0.019 C 
ATOM     13  H6  PEA d          47.283  20.940  51.218  0.00  0.00     0.042 H 
ATOM     14  H7  PEA d          45.939  19.756  51.072  0.00  0.00     0.042 H 
BRANCH  12  15
ATOM     15  C1  PEA d          45.938  20.890  52.934  0.00  0.00     0.083 C 
ATOM     16  H8  PEA d          46.781  20.446  53.484  0.00  0.00     0.075 H 
ATOM     17  H9  PEA d          45.014  20.344  53.176  0.00  0.00     0.075 H 
BRANCH  15  18
ATOM     18  N   PEA d          45.783  22.316  53.353  0.00  0.00    -0.079 N 
ATOM     19  H10 PEA d          46.685  22.694  53.597  0.00  0.00     0.274 HD
ATOM     20  H11 PEA d          45.172  22.367  54.152  0.00  0.00     0.274 HD
ATOM     21  H12 PEA d          45.390  22.849  52.594  0.00  0.00     0.274 HD
ENDBRANCH  15  18
ENDBRANCH  12  15
ENDBRANCH   1  12
TORSDOF 3
ENDMDL
