MODEL 1
REMARK VINA RESULT:      -6.3      0.000      0.000
REMARK  13 active torsions:
REMARK  status: ('A' for Active; 'I' for Inactive)
REMARK    1  A    between atoms: C_1  and  CH3_3 
REMARK       I    between atoms: N_4  and  C_1 
REMARK    2  A    between atoms: CA_5  and  N_4 
REMARK    3  A    between atoms: C_6  and  CA_5 
REMARK    4  A    between atoms: CA_5  and  CB_8 
REMARK       I    between atoms: N_26  and  C_6 
REMARK    5  A    between atoms: CB_8  and  CG_9 
REMARK    6  A    between atoms: CZ_14  and  OH_15 
REMARK    7  A    between atoms: OH_15  and  P_16 
REMARK    8  A    between atoms: CA_28  and  N_26 
REMARK    9  A    between atoms: C_27  and  CA_28 
REMARK       I    between atoms: C_27  and  N_29 
REMARK   10  A    between atoms: N_29  and  CA_30 
REMARK   11  A    between atoms: CA_30  and  C_31 
REMARK   12  A    between atoms: CA_30  and  CB_33 
REMARK       I    between atoms: C_31  and  N_37 
REMARK   13  A    between atoms: CB_33  and  CG_34 
REMARK       I    between atoms: CG_34  and  ND2_36 
ROOT
ATOM      1  CD  ACE d           4.674  -7.906   4.297  0.00  0.00    -0.065 C 
ATOM      2  CG  ACE d           5.862  -8.665   3.648  0.00  0.00    -0.062 C 
ATOM      3  CE  ACE d           4.741  -6.420   3.896  0.00  0.00    -0.062 C 
ATOM      4  CB  ACE d           7.251  -8.073   4.056  0.00  0.00    -0.033 C 
ATOM      5  CH  ACE d           6.120  -5.821   4.229  0.00  0.00    -0.033 C 
ATOM      6  CA  ACE d           7.347  -6.581   3.689  0.00  0.00     0.114 C 
ATOM      7  H12 ACE d           4.735  -7.995   5.392  0.00  0.00     0.033 H 
ATOM      8  H13 ACE d           3.725  -8.339   3.946  0.00  0.00     0.033 H 
ATOM      9  H14 ACE d           5.761  -8.607   2.554  0.00  0.00     0.033 H 
ATOM     10  H15 ACE d           5.821  -9.718   3.964  0.00  0.00     0.033 H 
ATOM     11  H16 ACE d           3.966  -5.864   4.443  0.00  0.00     0.033 H 
ATOM     12  H17 ACE d           4.562  -6.331   2.814  0.00  0.00     0.033 H 
ATOM     13  H18 ACE d           8.045  -8.624   3.529  0.00  0.00     0.037 H 
ATOM     14  H19 ACE d           7.385  -8.186   5.142  0.00  0.00     0.037 H 
ATOM     15  H20 ACE d           6.210  -5.775   5.324  0.00  0.00     0.037 H 
ATOM     16  H21 ACE d           6.151  -4.801   3.816  0.00  0.00     0.037 H 
ENDROOT
BRANCH   6  17
ATOM     17  N   ACE d           7.329  -6.397   2.233  0.00  0.00    -0.341 N 
ATOM     18  C   ACE d           8.134  -7.048   1.403  0.00  0.00     0.241 C 
ATOM     19  O   ACE d           8.947  -7.889   1.755  0.00  0.00    -0.271 OA
ATOM     20  H22 ACE d           6.676  -5.746   1.846  0.00  0.00     0.163 HD
BRANCH  18  21
ATOM     21  CA  ACE d           7.990  -6.681  -0.068  0.00  0.00     0.093 C 
ATOM     22  H5  ACE d           7.252  -5.874  -0.182  0.00  0.00     0.088 H 
BRANCH  21  23
ATOM     23  N   ACE d           9.318  -6.236  -0.567  0.00  0.00    -0.348 N 
ATOM     24  C   ACE d           9.813  -5.033  -0.224  0.00  0.00     0.214 C 
ATOM     25  O   ACE d           9.245  -4.246   0.542  0.00  0.00    -0.274 OA
ATOM     26  H4  ACE d           9.849  -6.838  -1.165  0.00  0.00     0.163 HD
BRANCH  24  27
ATOM     27  CH3 ACE d          11.188  -4.658  -0.831  0.00  0.00    -0.003 C 
ATOM     28  H1  ACE d          11.271  -3.564  -0.904  0.00  0.00     0.040 H 
ATOM     29  H2  ACE d          11.278  -5.101  -1.834  0.00  0.00     0.040 H 
ATOM     30  H3  ACE d          11.991  -5.045  -0.187  0.00  0.00     0.040 H 
ENDBRANCH  24  27
ENDBRANCH  21  23
BRANCH  21  31
ATOM     31  CB  ACE d           7.538  -7.937  -0.896  0.00  0.00    -0.014 C 
ATOM     32  H6  ACE d           6.688  -7.662  -1.536  0.00  0.00     0.043 H 
ATOM     33  H7  ACE d           7.235  -8.736  -0.204  0.00  0.00     0.043 H 
BRANCH  31  34
ATOM     34  CG  ACE d           8.684  -8.436  -1.769  0.00  0.00    -0.056 A 
ATOM     35  CD1 ACE d           9.500  -9.431  -1.264  0.00  0.00    -0.074 A 
ATOM     36  CE1 ACE d          10.606  -9.828  -2.016  0.00  0.00    -0.050 A 
ATOM     37  H8  ACE d           9.286  -9.891  -0.306  0.00  0.00     0.084 H 
ATOM     38  CZ  ACE d          10.857  -9.249  -3.279  0.00  0.00     0.082 A 
ATOM     39  H10 ACE d          11.276 -10.586  -1.629  0.00  0.00     0.087 H 
ATOM     40  CE2 ACE d          10.050  -8.244  -3.792  0.00  0.00    -0.050 A 
ATOM     41  CD2 ACE d           8.914  -7.848  -3.045  0.00  0.00    -0.074 A 
ATOM     42  H11 ACE d          10.283  -7.774  -4.740  0.00  0.00     0.087 H 
ATOM     43  H9  ACE d           8.228  -7.108  -3.440  0.00  0.00     0.084 H 
BRANCH  38  44
ATOM     44  OH  ACE d          11.987  -9.761  -3.878  0.00  0.00    -0.240 OA
BRANCH  44  45
ATOM     45  P   ACE d          12.299 -11.378  -4.014  0.00  0.00     0.427 P 
ATOM     46  O1P ACE d          12.880 -11.729  -2.590  0.00  0.00    -0.617 OA
ATOM     47  O2P ACE d          11.081 -12.159  -4.267  0.00  0.00    -0.617 OA
ATOM     48  O3P ACE d          13.381 -11.527  -5.013  0.00  0.00    -0.617 OA
ENDBRANCH  44  45
ENDBRANCH  38  44
ENDBRANCH  31  34
ENDBRANCH  21  31
ENDBRANCH  18  21
ENDBRANCH   6  17
BRANCH   6  49
ATOM     49  C   ACE d           8.710  -6.066   4.240  0.00  0.00     0.246 C 
ATOM     50  O   ACE d           8.883  -4.890   4.682  0.00  0.00    -0.271 OA
ATOM     51  N   ACE d           9.662  -7.022   4.330  0.00  0.00    -0.345 N 
ATOM     52  H23 ACE d           9.461  -7.947   4.010  0.00  0.00     0.163 HD
BRANCH  51  53
ATOM     53  CA  ACE d          10.988  -6.723   4.891  0.00  0.00     0.097 C 
ATOM     54  H24 ACE d          10.848  -5.991   5.700  0.00  0.00     0.088 H 
BRANCH  53  55
ATOM     55  C   ACE d          11.928  -6.080   3.876  0.00  0.00     0.238 C 
ATOM     56  O   ACE d          11.597  -6.011   2.706  0.00  0.00    -0.271 OA
ATOM     57  N   ACE d          13.133  -5.733   4.278  0.00  0.00    -0.368 N 
ATOM     58  H29 ACE d          13.772  -5.309   3.636  0.00  0.00     0.159 HD
ATOM     59  H30 ACE d          13.410  -5.893   5.226  0.00  0.00     0.159 HD
ENDBRANCH  53  55
BRANCH  53  60
ATOM     60  CB  ACE d          11.576  -8.014   5.529  0.00  0.00     0.036 C 
ATOM     61  H25 ACE d          10.842  -8.429   6.235  0.00  0.00     0.051 H 
ATOM     62  H26 ACE d          12.500  -7.758   6.068  0.00  0.00     0.051 H 
BRANCH  60  63
ATOM     63  CG  ACE d          11.901  -9.088   4.451  0.00  0.00     0.217 C 
ATOM     64  OD1 ACE d          10.970  -9.626   3.808  0.00  0.00    -0.274 OA
ATOM     65  ND2 ACE d          13.189  -9.355   4.292  0.00  0.00    -0.370 N 
ATOM     66  H27 ACE d          13.479 -10.034   3.619  0.00  0.00     0.159 HD
ATOM     67  H28 ACE d          13.871  -8.877   4.847  0.00  0.00     0.159 HD
ENDBRANCH  60  63
ENDBRANCH  53  60
ENDBRANCH  51  53
ENDBRANCH   6  49
TORSDOF 13
ENDMDL
MODEL 2
REMARK VINA RESULT:      -5.7      3.730      7.143
REMARK  13 active torsions:
REMARK  status: ('A' for Active; 'I' for Inactive)
REMARK    1  A    between atoms: C_1  and  CH3_3 
REMARK       I    between atoms: N_4  and  C_1 
REMARK    2  A    between atoms: CA_5  and  N_4 
REMARK    3  A    between atoms: C_6  and  CA_5 
REMARK    4  A    between atoms: CA_5  and  CB_8 
REMARK       I    between atoms: N_26  and  C_6 
REMARK    5  A    between atoms: CB_8  and  CG_9 
REMARK    6  A    between atoms: CZ_14  and  OH_15 
REMARK    7  A    between atoms: OH_15  and  P_16 
REMARK    8  A    between atoms: CA_28  and  N_26 
REMARK    9  A    between atoms: C_27  and  CA_28 
REMARK       I    between atoms: C_27  and  N_29 
REMARK   10  A    between atoms: N_29  and  CA_30 
REMARK   11  A    between atoms: CA_30  and  C_31 
REMARK   12  A    between atoms: CA_30  and  CB_33 
REMARK       I    between atoms: C_31  and  N_37 
REMARK   13  A    between atoms: CB_33  and  CG_34 
REMARK       I    between atoms: CG_34  and  ND2_36 
ROOT
ATOM      1  CD  ACE d          10.783  -9.875  -2.502  0.00  0.00    -0.065 C 
ATOM      2  CG  ACE d          10.789  -8.372  -2.889  0.00  0.00    -0.062 C 
ATOM      3  CE  ACE d           9.769 -10.103  -1.366  0.00  0.00    -0.062 C 
ATOM      4  CB  ACE d          11.135  -7.439  -1.681  0.00  0.00    -0.033 C 
ATOM      5  CH  ACE d          10.044  -9.156  -0.182  0.00  0.00    -0.033 C 
ATOM      6  CA  ACE d          10.153  -7.656  -0.515  0.00  0.00     0.114 C 
ATOM      7  H12 ACE d          11.787 -10.172  -2.165  0.00  0.00     0.033 H 
ATOM      8  H13 ACE d          10.498 -10.478  -3.377  0.00  0.00     0.033 H 
ATOM      9  H14 ACE d           9.793  -8.102  -3.268  0.00  0.00     0.033 H 
ATOM     10  H15 ACE d          11.537  -8.215  -3.680  0.00  0.00     0.033 H 
ATOM     11  H16 ACE d           9.845 -11.144  -1.019  0.00  0.00     0.033 H 
ATOM     12  H17 ACE d           8.753  -9.916  -1.747  0.00  0.00     0.033 H 
ATOM     13  H18 ACE d          11.078  -6.391  -2.009  0.00  0.00     0.037 H 
ATOM     14  H19 ACE d          12.156  -7.662  -1.337  0.00  0.00     0.037 H 
ATOM     15  H20 ACE d          10.992  -9.466   0.280  0.00  0.00     0.037 H 
ATOM     16  H21 ACE d           9.226  -9.280   0.542  0.00  0.00     0.037 H 
ENDROOT
BRANCH   6  17
ATOM     17  N   ACE d           8.799  -7.224  -0.883  0.00  0.00    -0.341 N 
ATOM     18  C   ACE d           7.753  -7.327  -0.074  0.00  0.00     0.241 C 
ATOM     19  O   ACE d           7.810  -7.758   1.068  0.00  0.00    -0.271 OA
ATOM     20  H22 ACE d           8.658  -6.831  -1.792  0.00  0.00     0.163 HD
BRANCH  18  21
ATOM     21  CA  ACE d           6.426  -6.864  -0.660  0.00  0.00     0.093 C 
ATOM     22  H5  ACE d           6.217  -5.832  -0.345  0.00  0.00     0.088 H 
BRANCH  21  23
ATOM     23  N   ACE d           6.522  -6.940  -2.142  0.00  0.00    -0.348 N 
ATOM     24  C   ACE d           6.226  -5.872  -2.904  0.00  0.00     0.214 C 
ATOM     25  O   ACE d           5.903  -4.768  -2.450  0.00  0.00    -0.274 OA
ATOM     26  H4  ACE d           6.810  -7.794  -2.576  0.00  0.00     0.163 HD
BRANCH  24  27
ATOM     27  CH3 ACE d           6.324  -6.075  -4.437  0.00  0.00    -0.003 C 
ATOM     28  H1  ACE d           5.347  -6.393  -4.829  0.00  0.00     0.040 H 
ATOM     29  H2  ACE d           7.076  -6.847  -4.657  0.00  0.00     0.040 H 
ATOM     30  H3  ACE d           6.620  -5.129  -4.913  0.00  0.00     0.040 H 
ENDBRANCH  24  27
ENDBRANCH  21  23
BRANCH  21  31
ATOM     31  CB  ACE d           5.267  -7.811  -0.184  0.00  0.00    -0.014 C 
ATOM     32  H6  ACE d           5.584  -8.857  -0.296  0.00  0.00     0.043 H 
ATOM     33  H7  ACE d           4.375  -7.629  -0.802  0.00  0.00     0.043 H 
BRANCH  31  34
ATOM     34  CG  ACE d           4.929  -7.542   1.279  0.00  0.00    -0.056 A 
ATOM     35  CD1 ACE d           4.580  -8.618   2.073  0.00  0.00    -0.074 A 
ATOM     36  CE1 ACE d           4.179  -8.371   3.386  0.00  0.00    -0.050 A 
ATOM     37  H8  ACE d           4.618  -9.629   1.685  0.00  0.00     0.084 H 
ATOM     38  CZ  ACE d           4.168  -7.054   3.895  0.00  0.00     0.082 A 
ATOM     39  H10 ACE d           3.875  -9.196   4.020  0.00  0.00     0.087 H 
ATOM     40  CE2 ACE d           4.508  -5.966   3.104  0.00  0.00    -0.050 A 
ATOM     41  CD2 ACE d           4.936  -6.208   1.777  0.00  0.00    -0.074 A 
ATOM     42  H11 ACE d           4.447  -4.956   3.493  0.00  0.00     0.087 H 
ATOM     43  H9  ACE d           5.264  -5.389   1.148  0.00  0.00     0.084 H 
BRANCH  38  44
ATOM     44  OH  ACE d           3.747  -6.999   5.206  0.00  0.00    -0.240 OA
BRANCH  44  45
ATOM     45  P   ACE d           4.776  -6.952   6.498  0.00  0.00     0.427 P 
ATOM     46  O1P ACE d           3.851  -7.437   7.681  0.00  0.00    -0.617 OA
ATOM     47  O2P ACE d           5.911  -7.869   6.338  0.00  0.00    -0.617 OA
ATOM     48  O3P ACE d           5.120  -5.530   6.723  0.00  0.00    -0.617 OA
ENDBRANCH  44  45
ENDBRANCH  38  44
ENDBRANCH  31  34
ENDBRANCH  21  31
ENDBRANCH  18  21
ENDBRANCH   6  17
BRANCH   6  49
ATOM     49  C   ACE d          10.653  -6.774   0.667  0.00  0.00     0.246 C 
ATOM     50  O   ACE d          10.999  -5.561   0.535  0.00  0.00    -0.271 OA
ATOM     51  N   ACE d          10.561  -7.374   1.875  0.00  0.00    -0.345 N 
ATOM     52  H23 ACE d          10.238  -8.318   1.932  0.00  0.00     0.163 HD
BRANCH  51  53
ATOM     53  CA  ACE d          10.929  -6.661   3.108  0.00  0.00     0.097 C 
ATOM     54  H24 ACE d          11.296  -5.665   2.817  0.00  0.00     0.088 H 
BRANCH  53  55
ATOM     55  C   ACE d          12.063  -7.342   3.868  0.00  0.00     0.238 C 
ATOM     56  O   ACE d          12.815  -6.675   4.556  0.00  0.00    -0.271 OA
ATOM     57  N   ACE d          12.273  -8.624   3.653  0.00  0.00    -0.368 N 
ATOM     58  H29 ACE d          13.009  -9.099   4.136  0.00  0.00     0.159 HD
ATOM     59  H30 ACE d          11.697  -9.124   3.006  0.00  0.00     0.159 HD
ENDBRANCH  53  55
BRANCH  53  60
ATOM     60  CB  ACE d           9.657  -6.451   3.977  0.00  0.00     0.036 C 
ATOM     61  H25 ACE d           8.961  -5.792   3.438  0.00  0.00     0.051 H 
ATOM     62  H26 ACE d           9.946  -5.980   4.928  0.00  0.00     0.051 H 
BRANCH  60  63
ATOM     63  CG  ACE d           8.942  -7.799   4.279  0.00  0.00     0.217 C 
ATOM     64  OD1 ACE d           9.560  -8.712   4.875  0.00  0.00    -0.274 OA
ATOM     65  ND2 ACE d           7.685  -7.875   3.867  0.00  0.00    -0.370 N 
ATOM     66  H27 ACE d           7.157  -8.710   4.023  0.00  0.00     0.159 HD
ATOM     67  H28 ACE d           7.264  -7.098   3.399  0.00  0.00     0.159 HD
ENDBRANCH  60  63
ENDBRANCH  53  60
ENDBRANCH  51  53
ENDBRANCH   6  49
TORSDOF 13
ENDMDL
MODEL 3
REMARK VINA RESULT:      -5.1      3.580      8.264
REMARK  13 active torsions:
REMARK  status: ('A' for Active; 'I' for Inactive)
REMARK    1  A    between atoms: C_1  and  CH3_3 
REMARK       I    between atoms: N_4  and  C_1 
REMARK    2  A    between atoms: CA_5  and  N_4 
REMARK    3  A    between atoms: C_6  and  CA_5 
REMARK    4  A    between atoms: CA_5  and  CB_8 
REMARK       I    between atoms: N_26  and  C_6 
REMARK    5  A    between atoms: CB_8  and  CG_9 
REMARK    6  A    between atoms: CZ_14  and  OH_15 
REMARK    7  A    between atoms: OH_15  and  P_16 
REMARK    8  A    between atoms: CA_28  and  N_26 
REMARK    9  A    between atoms: C_27  and  CA_28 
REMARK       I    between atoms: C_27  and  N_29 
REMARK   10  A    between atoms: N_29  and  CA_30 
REMARK   11  A    between atoms: CA_30  and  C_31 
REMARK   12  A    between atoms: CA_30  and  CB_33 
REMARK       I    between atoms: C_31  and  N_37 
REMARK   13  A    between atoms: CB_33  and  CG_34 
REMARK       I    between atoms: CG_34  and  ND2_36 
ROOT
ATOM      1  CD  ACE d           6.128  -6.719  -2.343  0.00  0.00    -0.065 C 
ATOM      2  CG  ACE d           7.494  -6.038  -2.063  0.00  0.00    -0.062 C 
ATOM      3  CE  ACE d           6.020  -8.005  -1.503  0.00  0.00    -0.062 C 
ATOM      4  CB  ACE d           8.710  -6.973  -2.374  0.00  0.00    -0.033 C 
ATOM      5  CH  ACE d           7.234  -8.923  -1.741  0.00  0.00    -0.033 C 
ATOM      6  CA  ACE d           8.624  -8.281  -1.567  0.00  0.00     0.114 C 
ATOM      7  H12 ACE d           6.055  -6.969  -3.412  0.00  0.00     0.033 H 
ATOM      8  H13 ACE d           5.312  -6.032  -2.071  0.00  0.00     0.033 H 
ATOM      9  H14 ACE d           7.533  -5.752  -1.002  0.00  0.00     0.033 H 
ATOM     10  H15 ACE d           7.574  -5.137  -2.689  0.00  0.00     0.033 H 
ATOM     11  H16 ACE d           5.102  -8.543  -1.784  0.00  0.00     0.033 H 
ATOM     12  H17 ACE d           5.975  -7.736  -0.437  0.00  0.00     0.033 H 
ATOM     13  H18 ACE d           9.641  -6.450  -2.113  0.00  0.00     0.037 H 
ATOM     14  H19 ACE d           8.712  -7.212  -3.448  0.00  0.00     0.037 H 
ATOM     15  H20 ACE d           7.168  -9.305  -2.770  0.00  0.00     0.037 H 
ATOM     16  H21 ACE d           7.162  -9.763  -1.033  0.00  0.00     0.037 H 
ENDROOT
BRANCH   6  17
ATOM     17  N   ACE d           8.773  -8.021  -0.130  0.00  0.00    -0.341 N 
ATOM     18  C   ACE d           9.884  -7.543   0.416  0.00  0.00     0.241 C 
ATOM     19  O   ACE d          10.883  -7.238  -0.218  0.00  0.00    -0.271 OA
ATOM     20  H22 ACE d           7.996  -8.215   0.469  0.00  0.00     0.163 HD
BRANCH  18  21
ATOM     21  CA  ACE d           9.852  -7.387   1.929  0.00  0.00     0.093 C 
ATOM     22  H5  ACE d           9.126  -8.090   2.363  0.00  0.00     0.088 H 
BRANCH  21  23
ATOM     23  N   ACE d          11.216  -7.669   2.454  0.00  0.00    -0.348 N 
ATOM     24  C   ACE d          11.413  -8.635   3.368  0.00  0.00     0.214 C 
ATOM     25  O   ACE d          10.517  -9.372   3.799  0.00  0.00    -0.274 OA
ATOM     26  H4  ACE d          11.993  -7.133   2.123  0.00  0.00     0.163 HD
BRANCH  24  27
ATOM     27  CH3 ACE d          12.867  -8.817   3.870  0.00  0.00    -0.003 C 
ATOM     28  H1  ACE d          13.082  -8.070   4.649  0.00  0.00     0.040 H 
ATOM     29  H2  ACE d          13.565  -8.682   3.031  0.00  0.00     0.040 H 
ATOM     30  H3  ACE d          12.987  -9.827   4.288  0.00  0.00     0.040 H 
ENDBRANCH  24  27
ENDBRANCH  21  23
BRANCH  21  31
ATOM     31  CB  ACE d           9.462  -5.915   2.313  0.00  0.00    -0.014 C 
ATOM     32  H6  ACE d           9.065  -5.403   1.425  0.00  0.00     0.043 H 
ATOM     33  H7  ACE d          10.357  -5.386   2.672  0.00  0.00     0.043 H 
BRANCH  31  34
ATOM     34  CG  ACE d           8.403  -5.915   3.410  0.00  0.00    -0.056 A 
ATOM     35  CD1 ACE d           8.048  -7.129   3.969  0.00  0.00    -0.074 A 
ATOM     36  CE1 ACE d           7.015  -7.150   4.906  0.00  0.00    -0.050 A 
ATOM     37  H8  ACE d           8.560  -8.041   3.686  0.00  0.00     0.084 H 
ATOM     38  CZ  ACE d           6.377  -5.952   5.296  0.00  0.00     0.082 A 
ATOM     39  H10 ACE d           6.699  -8.092   5.338  0.00  0.00     0.087 H 
ATOM     40  CE2 ACE d           6.721  -4.730   4.735  0.00  0.00    -0.050 A 
ATOM     41  CD2 ACE d           7.781  -4.695   3.798  0.00  0.00    -0.074 A 
ATOM     42  H11 ACE d           6.189  -3.825   5.007  0.00  0.00     0.087 H 
ATOM     43  H9  ACE d           8.116  -3.752   3.382  0.00  0.00     0.084 H 
BRANCH  38  44
ATOM     44  OH  ACE d           5.384  -6.162   6.227  0.00  0.00    -0.240 OA
BRANCH  44  45
ATOM     45  P   ACE d           4.621  -7.612   6.440  0.00  0.00     0.427 P 
ATOM     46  O1P ACE d           3.691  -7.322   7.682  0.00  0.00    -0.617 OA
ATOM     47  O2P ACE d           3.806  -7.988   5.278  0.00  0.00    -0.617 OA
ATOM     48  O3P ACE d           5.656  -8.589   6.847  0.00  0.00    -0.617 OA
ENDBRANCH  44  45
ENDBRANCH  38  44
ENDBRANCH  31  34
ENDBRANCH  21  31
ENDBRANCH  18  21
ENDBRANCH   6  17
BRANCH   6  49
ATOM     49  C   ACE d           9.805  -9.180  -2.036  0.00  0.00     0.246 C 
ATOM     50  O   ACE d          10.086 -10.296  -1.502  0.00  0.00    -0.271 OA
ATOM     51  N   ACE d          10.427  -8.734  -3.150  0.00  0.00    -0.345 N 
ATOM     52  H23 ACE d          10.137  -7.870  -3.561  0.00  0.00     0.163 HD
BRANCH  51  53
ATOM     53  CA  ACE d          11.522  -9.497  -3.768  0.00  0.00     0.097 C 
ATOM     54  H24 ACE d          11.564  -9.213  -4.830  0.00  0.00     0.088 H 
BRANCH  53  55
ATOM     55  C   ACE d          11.290 -11.004  -3.725  0.00  0.00     0.238 C 
ATOM     56  O   ACE d          10.427 -11.503  -4.424  0.00  0.00    -0.271 OA
ATOM     57  N   ACE d          11.950 -11.709  -2.829  0.00  0.00    -0.368 N 
ATOM     58  H29 ACE d          11.819 -12.699  -2.776  0.00  0.00     0.159 HD
ATOM     59  H30 ACE d          12.583 -11.254  -2.201  0.00  0.00     0.159 HD
ENDBRANCH  53  55
BRANCH  53  60
ATOM     60  CB  ACE d          12.870  -9.072  -3.120  0.00  0.00     0.036 C 
ATOM     61  H25 ACE d          13.673  -9.713  -3.513  0.00  0.00     0.051 H 
ATOM     62  H26 ACE d          12.799  -9.201  -2.030  0.00  0.00     0.051 H 
BRANCH  60  63
ATOM     63  CG  ACE d          13.212  -7.587  -3.431  0.00  0.00     0.217 C 
ATOM     64  OD1 ACE d          13.578  -7.261  -4.585  0.00  0.00    -0.274 OA
ATOM     65  ND2 ACE d          13.082  -6.753  -2.411  0.00  0.00    -0.370 N 
ATOM     66  H27 ACE d          13.284  -5.781  -2.531  0.00  0.00     0.159 HD
ATOM     67  H28 ACE d          12.782  -7.095  -1.520  0.00  0.00     0.159 HD
ENDBRANCH  60  63
ENDBRANCH  53  60
ENDBRANCH  51  53
ENDBRANCH   6  49
TORSDOF 13
ENDMDL
MODEL 4
REMARK VINA RESULT:      -4.6      3.674      8.383
REMARK  13 active torsions:
REMARK  status: ('A' for Active; 'I' for Inactive)
REMARK    1  A    between atoms: C_1  and  CH3_3 
REMARK       I    between atoms: N_4  and  C_1 
REMARK    2  A    between atoms: CA_5  and  N_4 
REMARK    3  A    between atoms: C_6  and  CA_5 
REMARK    4  A    between atoms: CA_5  and  CB_8 
REMARK       I    between atoms: N_26  and  C_6 
REMARK    5  A    between atoms: CB_8  and  CG_9 
REMARK    6  A    between atoms: CZ_14  and  OH_15 
REMARK    7  A    between atoms: OH_15  and  P_16 
REMARK    8  A    between atoms: CA_28  and  N_26 
REMARK    9  A    between atoms: C_27  and  CA_28 
REMARK       I    between atoms: C_27  and  N_29 
REMARK   10  A    between atoms: N_29  and  CA_30 
REMARK   11  A    between atoms: CA_30  and  C_31 
REMARK   12  A    between atoms: CA_30  and  CB_33 
REMARK       I    between atoms: C_31  and  N_37 
REMARK   13  A    between atoms: CB_33  and  CG_34 
REMARK       I    between atoms: CG_34  and  ND2_36 
ROOT
ATOM      1  CD  ACE d           6.177  -6.669  -2.402  0.00  0.00    -0.065 C 
ATOM      2  CG  ACE d           7.506  -5.946  -2.055  0.00  0.00    -0.062 C 
ATOM      3  CE  ACE d           6.112  -8.006  -1.639  0.00  0.00    -0.062 C 
ATOM      4  CB  ACE d           8.768  -6.806  -2.394  0.00  0.00    -0.033 C 
ATOM      5  CH  ACE d           7.371  -8.854  -1.903  0.00  0.00    -0.033 C 
ATOM      6  CA  ACE d           8.727  -8.161  -1.664  0.00  0.00     0.114 C 
ATOM      7  H12 ACE d           6.135  -6.861  -3.485  0.00  0.00     0.033 H 
ATOM      8  H13 ACE d           5.327  -6.036  -2.109  0.00  0.00     0.033 H 
ATOM      9  H14 ACE d           7.513  -5.720  -0.979  0.00  0.00     0.033 H 
ATOM     10  H15 ACE d           7.556  -5.007  -2.627  0.00  0.00     0.033 H 
ATOM     11  H16 ACE d           5.225  -8.566  -1.970  0.00  0.00     0.033 H 
ATOM     12  H17 ACE d           6.036  -7.801  -0.561  0.00  0.00     0.033 H 
ATOM     13  H18 ACE d           9.670  -6.258  -2.084  0.00  0.00     0.037 H 
ATOM     14  H19 ACE d           8.801  -6.983  -3.480  0.00  0.00     0.037 H 
ATOM     15  H20 ACE d           7.341  -9.178  -2.953  0.00  0.00     0.037 H 
ATOM     16  H21 ACE d           7.324  -9.735  -1.246  0.00  0.00     0.037 H 
ENDROOT
BRANCH   6  17
ATOM     17  N   ACE d           8.837  -7.979  -0.212  0.00  0.00    -0.341 N 
ATOM     18  C   ACE d           9.695  -7.142   0.357  0.00  0.00     0.241 C 
ATOM     19  O   ACE d          10.456  -6.413  -0.263  0.00  0.00    -0.271 OA
ATOM     20  H22 ACE d           8.234  -8.514   0.380  0.00  0.00     0.163 HD
BRANCH  18  21
ATOM     21  CA  ACE d           9.686  -7.132   1.879  0.00  0.00     0.093 C 
ATOM     22  H5  ACE d           8.908  -7.813   2.253  0.00  0.00     0.088 H 
BRANCH  21  23
ATOM     23  N   ACE d          11.025  -7.571   2.354  0.00  0.00    -0.348 N 
ATOM     24  C   ACE d          11.140  -8.521   3.299  0.00  0.00     0.214 C 
ATOM     25  O   ACE d          10.179  -9.117   3.800  0.00  0.00    -0.274 OA
ATOM     26  H4  ACE d          11.849  -7.155   1.967  0.00  0.00     0.163 HD
BRANCH  24  27
ATOM     27  CH3 ACE d          12.581  -8.874   3.745  0.00  0.00    -0.003 C 
ATOM     28  H1  ACE d          13.065  -9.487   2.970  0.00  0.00     0.040 H 
ATOM     29  H2  ACE d          12.545  -9.438   4.688  0.00  0.00     0.040 H 
ATOM     30  H3  ACE d          13.156  -7.948   3.892  0.00  0.00     0.040 H 
ENDBRANCH  24  27
ENDBRANCH  21  23
BRANCH  21  31
ATOM     31  CB  ACE d           9.419  -5.678   2.408  0.00  0.00    -0.014 C 
ATOM     32  H6  ACE d           9.015  -5.063   1.590  0.00  0.00     0.043 H 
ATOM     33  H7  ACE d          10.364  -5.242   2.762  0.00  0.00     0.043 H 
BRANCH  31  34
ATOM     34  CG  ACE d           8.417  -5.707   3.557  0.00  0.00    -0.056 A 
ATOM     35  CD1 ACE d           7.969  -6.939   3.996  0.00  0.00    -0.074 A 
ATOM     36  CE1 ACE d           6.983  -6.973   4.983  0.00  0.00    -0.050 A 
ATOM     37  H8  ACE d           8.374  -7.856   3.585  0.00  0.00     0.084 H 
ATOM     38  CZ  ACE d           6.487  -5.774   5.540  0.00  0.00     0.082 A 
ATOM     39  H10 ACE d           6.596  -7.926   5.325  0.00  0.00     0.087 H 
ATOM     40  CE2 ACE d           6.923  -4.533   5.100  0.00  0.00    -0.050 A 
ATOM     41  CD2 ACE d           7.937  -4.488   4.114  0.00  0.00    -0.074 A 
ATOM     42  H11 ACE d           6.497  -3.620   5.501  0.00  0.00     0.087 H 
ATOM     43  H9  ACE d           8.344  -3.538   3.787  0.00  0.00     0.084 H 
BRANCH  38  44
ATOM     44  OH  ACE d           5.522  -5.998   6.498  0.00  0.00    -0.240 OA
BRANCH  44  45
ATOM     45  P   ACE d           4.869  -7.484   6.810  0.00  0.00     0.427 P 
ATOM     46  O1P ACE d           4.359  -7.932   5.385  0.00  0.00    -0.617 OA
ATOM     47  O2P ACE d           5.869  -8.437   7.308  0.00  0.00    -0.617 OA
ATOM     48  O3P ACE d           3.694  -7.265   7.682  0.00  0.00    -0.617 OA
ENDBRANCH  44  45
ENDBRANCH  38  44
ENDBRANCH  31  34
ENDBRANCH  21  31
ENDBRANCH  18  21
ENDBRANCH   6  17
BRANCH   6  49
ATOM     49  C   ACE d           9.956  -8.979  -2.159  0.00  0.00     0.246 C 
ATOM     50  O   ACE d          10.127 -10.208  -1.895  0.00  0.00    -0.271 OA
ATOM     51  N   ACE d          10.761  -8.302  -3.007  0.00  0.00    -0.345 N 
ATOM     52  H23 ACE d          10.557  -7.347  -3.220  0.00  0.00     0.163 HD
BRANCH  51  53
ATOM     53  CA  ACE d          11.933  -8.945  -3.622  0.00  0.00     0.097 C 
ATOM     54  H24 ACE d          12.756  -8.896  -2.894  0.00  0.00     0.088 H 
BRANCH  53  55
ATOM     55  C   ACE d          12.412  -8.223  -4.877  0.00  0.00     0.238 C 
ATOM     56  O   ACE d          13.049  -8.831  -5.718  0.00  0.00    -0.271 OA
ATOM     57  N   ACE d          12.232  -6.920  -4.952  0.00  0.00    -0.368 N 
ATOM     58  H29 ACE d          12.536  -6.418  -5.762  0.00  0.00     0.159 HD
ATOM     59  H30 ACE d          11.791  -6.432  -4.198  0.00  0.00     0.159 HD
ENDBRANCH  53  55
BRANCH  53  60
ATOM     60  CB  ACE d          11.620 -10.448  -3.869  0.00  0.00     0.036 C 
ATOM     61  H25 ACE d          11.226 -10.567  -4.889  0.00  0.00     0.051 H 
ATOM     62  H26 ACE d          10.863 -10.780  -3.143  0.00  0.00     0.051 H 
BRANCH  60  63
ATOM     63  CG  ACE d          12.891 -11.330  -3.713  0.00  0.00     0.217 C 
ATOM     64  OD1 ACE d          13.215 -11.759  -2.580  0.00  0.00    -0.274 OA
ATOM     65  ND2 ACE d          13.554 -11.569  -4.835  0.00  0.00    -0.370 N 
ATOM     66  H27 ACE d          14.382 -12.128  -4.817  0.00  0.00     0.159 HD
ATOM     67  H28 ACE d          13.225 -11.189  -5.699  0.00  0.00     0.159 HD
ENDBRANCH  60  63
ENDBRANCH  53  60
ENDBRANCH  51  53
ENDBRANCH   6  49
TORSDOF 13
ENDMDL
MODEL 5
REMARK VINA RESULT:      -4.2      3.351      6.587
REMARK  13 active torsions:
REMARK  status: ('A' for Active; 'I' for Inactive)
REMARK    1  A    between atoms: C_1  and  CH3_3 
REMARK       I    between atoms: N_4  and  C_1 
REMARK    2  A    between atoms: CA_5  and  N_4 
REMARK    3  A    between atoms: C_6  and  CA_5 
REMARK    4  A    between atoms: CA_5  and  CB_8 
REMARK       I    between atoms: N_26  and  C_6 
REMARK    5  A    between atoms: CB_8  and  CG_9 
REMARK    6  A    between atoms: CZ_14  and  OH_15 
REMARK    7  A    between atoms: OH_15  and  P_16 
REMARK    8  A    between atoms: CA_28  and  N_26 
REMARK    9  A    between atoms: C_27  and  CA_28 
REMARK       I    between atoms: C_27  and  N_29 
REMARK   10  A    between atoms: N_29  and  CA_30 
REMARK   11  A    between atoms: CA_30  and  C_31 
REMARK   12  A    between atoms: CA_30  and  CB_33 
REMARK       I    between atoms: C_31  and  N_37 
REMARK   13  A    between atoms: CB_33  and  CG_34 
REMARK       I    between atoms: CG_34  and  ND2_36 
ROOT
ATOM      1  CD  ACE d           3.939  -5.318  -2.900  0.00  0.00    -0.065 C 
ATOM      2  CG  ACE d           4.514  -6.754  -3.021  0.00  0.00    -0.062 C 
ATOM      3  CE  ACE d           4.492  -4.655  -1.624  0.00  0.00    -0.062 C 
ATOM      4  CB  ACE d           4.181  -7.645  -1.778  0.00  0.00    -0.033 C 
ATOM      5  CH  ACE d           4.234  -5.536  -0.388  0.00  0.00    -0.033 C 
ATOM      6  CA  ACE d           4.702  -7.002  -0.480  0.00  0.00     0.114 C 
ATOM      7  H12 ACE d           2.841  -5.366  -2.843  0.00  0.00     0.033 H 
ATOM      8  H13 ACE d           4.235  -4.728  -3.779  0.00  0.00     0.033 H 
ATOM      9  H14 ACE d           5.607  -6.688  -3.123  0.00  0.00     0.033 H 
ATOM     10  H15 ACE d           4.091  -7.229  -3.918  0.00  0.00     0.033 H 
ATOM     11  H16 ACE d           4.000  -3.682  -1.482  0.00  0.00     0.033 H 
ATOM     12  H17 ACE d           5.576  -4.504  -1.739  0.00  0.00     0.033 H 
ATOM     13  H18 ACE d           4.653  -8.630  -1.906  0.00  0.00     0.037 H 
ATOM     14  H19 ACE d           3.090  -7.767  -1.707  0.00  0.00     0.037 H 
ATOM     15  H20 ACE d           3.151  -5.542  -0.201  0.00  0.00     0.037 H 
ATOM     16  H21 ACE d           4.750  -5.073   0.466  0.00  0.00     0.037 H 
ENDROOT
BRANCH   6  17
ATOM     17  N   ACE d           6.169  -6.960  -0.467  0.00  0.00    -0.341 N 
ATOM     18  C   ACE d           6.933  -7.972  -0.856  0.00  0.00     0.241 C 
ATOM     19  O   ACE d           6.501  -9.027  -1.296  0.00  0.00    -0.271 OA
ATOM     20  H22 ACE d           6.616  -6.124  -0.147  0.00  0.00     0.163 HD
BRANCH  18  21
ATOM     21  CA  ACE d           8.432  -7.747  -0.723  0.00  0.00     0.093 C 
ATOM     22  H5  ACE d           8.840  -8.395   0.066  0.00  0.00     0.088 H 
BRANCH  21  23
ATOM     23  N   ACE d           9.068  -8.066  -2.029  0.00  0.00    -0.348 N 
ATOM     24  C   ACE d           9.929  -9.094  -2.140  0.00  0.00     0.214 C 
ATOM     25  O   ACE d          10.218  -9.856  -1.210  0.00  0.00    -0.274 OA
ATOM     26  H4  ACE d           8.852  -7.511  -2.833  0.00  0.00     0.163 HD
BRANCH  24  27
ATOM     27  CH3 ACE d          10.558  -9.312  -3.539  0.00  0.00    -0.003 C 
ATOM     28  H1  ACE d          10.112  -8.609  -4.256  0.00  0.00     0.040 H 
ATOM     29  H2  ACE d          10.367 -10.344  -3.869  0.00  0.00     0.040 H 
ATOM     30  H3  ACE d          11.643  -9.141  -3.483  0.00  0.00     0.040 H 
ENDBRANCH  24  27
ENDBRANCH  21  23
BRANCH  21  31
ATOM     31  CB  ACE d           8.724  -6.243  -0.379  0.00  0.00    -0.014 C 
ATOM     32  H6  ACE d           7.774  -5.727  -0.175  0.00  0.00     0.043 H 
ATOM     33  H7  ACE d           9.224  -5.766  -1.234  0.00  0.00     0.043 H 
BRANCH  31  34
ATOM     34  CG  ACE d           9.623  -6.143   0.849  0.00  0.00    -0.056 A 
ATOM     35  CD1 ACE d           9.272  -6.871   1.971  0.00  0.00    -0.074 A 
ATOM     36  CE1 ACE d          10.035  -6.714   3.128  0.00  0.00    -0.050 A 
ATOM     37  H8  ACE d           8.424  -7.546   1.952  0.00  0.00     0.084 H 
ATOM     38  CZ  ACE d          11.159  -5.860   3.134  0.00  0.00     0.082 A 
ATOM     39  H10 ACE d           9.763  -7.252   4.029  0.00  0.00     0.087 H 
ATOM     40  CE2 ACE d          11.515  -5.120   2.016  0.00  0.00    -0.050 A 
ATOM     41  CD2 ACE d          10.760  -5.287   0.831  0.00  0.00    -0.074 A 
ATOM     42  H11 ACE d          12.351  -4.430   2.050  0.00  0.00     0.087 H 
ATOM     43  H9  ACE d          11.042  -4.769  -0.078  0.00  0.00     0.084 H 
BRANCH  38  44
ATOM     44  OH  ACE d          11.791  -5.829   4.358  0.00  0.00    -0.240 OA
BRANCH  44  45
ATOM     45  P   ACE d          12.582  -7.124   5.013  0.00  0.00     0.427 P 
ATOM     46  O1P ACE d          11.418  -7.886   5.758  0.00  0.00    -0.617 OA
ATOM     47  O2P ACE d          13.174  -7.991   3.986  0.00  0.00    -0.617 OA
ATOM     48  O3P ACE d          13.519  -6.590   6.027  0.00  0.00    -0.617 OA
ENDBRANCH  44  45
ENDBRANCH  38  44
ENDBRANCH  31  34
ENDBRANCH  21  31
ENDBRANCH  18  21
ENDBRANCH   6  17
BRANCH   6  49
ATOM     49  C   ACE d           4.218  -7.901   0.696  0.00  0.00     0.246 C 
ATOM     50  O   ACE d           3.809  -9.091   0.540  0.00  0.00    -0.271 OA
ATOM     51  N   ACE d           4.396  -7.350   1.917  0.00  0.00    -0.345 N 
ATOM     52  H23 ACE d           4.766  -6.424   1.989  0.00  0.00     0.163 HD
BRANCH  51  53
ATOM     53  CA  ACE d           4.054  -8.089   3.142  0.00  0.00     0.097 C 
ATOM     54  H24 ACE d           3.135  -8.658   2.939  0.00  0.00     0.088 H 
BRANCH  53  55
ATOM     55  C   ACE d           3.751  -7.170   4.321  0.00  0.00     0.238 C 
ATOM     56  O   ACE d           3.690  -5.966   4.149  0.00  0.00    -0.271 OA
ATOM     57  N   ACE d           3.690  -7.702   5.525  0.00  0.00    -0.368 N 
ATOM     58  H29 ACE d           3.493  -7.125   6.318  0.00  0.00     0.159 HD
ATOM     59  H30 ACE d           3.842  -8.683   5.646  0.00  0.00     0.159 HD
ENDBRANCH  53  55
BRANCH  53  60
ATOM     60  CB  ACE d           5.180  -9.117   3.450  0.00  0.00     0.036 C 
ATOM     61  H25 ACE d           5.299  -9.785   2.584  0.00  0.00     0.051 H 
ATOM     62  H26 ACE d           4.892  -9.708   4.332  0.00  0.00     0.051 H 
BRANCH  60  63
ATOM     63  CG  ACE d           6.537  -8.413   3.734  0.00  0.00     0.217 C 
ATOM     64  OD1 ACE d           6.556  -7.327   4.360  0.00  0.00    -0.274 OA
ATOM     65  ND2 ACE d           7.607  -9.045   3.274  0.00  0.00    -0.370 N 
ATOM     66  H27 ACE d           8.517  -8.655   3.416  0.00  0.00     0.159 HD
ATOM     67  H28 ACE d           7.504  -9.910   2.784  0.00  0.00     0.159 HD
ENDBRANCH  60  63
ENDBRANCH  53  60
ENDBRANCH  51  53
ENDBRANCH   6  49
TORSDOF 13
ENDMDL
MODEL 6
REMARK VINA RESULT:      -4.2      4.243      8.053
REMARK  13 active torsions:
REMARK  status: ('A' for Active; 'I' for Inactive)
REMARK    1  A    between atoms: C_1  and  CH3_3 
REMARK       I    between atoms: N_4  and  C_1 
REMARK    2  A    between atoms: CA_5  and  N_4 
REMARK    3  A    between atoms: C_6  and  CA_5 
REMARK    4  A    between atoms: CA_5  and  CB_8 
REMARK       I    between atoms: N_26  and  C_6 
REMARK    5  A    between atoms: CB_8  and  CG_9 
REMARK    6  A    between atoms: CZ_14  and  OH_15 
REMARK    7  A    between atoms: OH_15  and  P_16 
REMARK    8  A    between atoms: CA_28  and  N_26 
REMARK    9  A    between atoms: C_27  and  CA_28 
REMARK       I    between atoms: C_27  and  N_29 
REMARK   10  A    between atoms: N_29  and  CA_30 
REMARK   11  A    between atoms: CA_30  and  C_31 
REMARK   12  A    between atoms: CA_30  and  CB_33 
REMARK       I    between atoms: C_31  and  N_37 
REMARK   13  A    between atoms: CB_33  and  CG_34 
REMARK       I    between atoms: CG_34  and  ND2_36 
ROOT
ATOM      1  CD  ACE d          10.347  -8.239   1.584  0.00  0.00    -0.065 C 
ATOM      2  CG  ACE d           9.691  -8.767   0.280  0.00  0.00    -0.062 C 
ATOM      3  CE  ACE d           9.683  -6.908   1.984  0.00  0.00    -0.062 C 
ATOM      4  CB  ACE d           9.799  -7.750  -0.904  0.00  0.00    -0.033 C 
ATOM      5  CH  ACE d           9.718  -5.902   0.818  0.00  0.00    -0.033 C 
ATOM      6  CA  ACE d           9.163  -6.398  -0.532  0.00  0.00     0.114 C 
ATOM      7  H12 ACE d          11.422  -8.079   1.416  0.00  0.00     0.033 H 
ATOM      8  H13 ACE d          10.208  -8.976   2.390  0.00  0.00     0.033 H 
ATOM      9  H14 ACE d           8.628  -8.966   0.477  0.00  0.00     0.033 H 
ATOM     10  H15 ACE d          10.192  -9.702  -0.012  0.00  0.00     0.033 H 
ATOM     11  H16 ACE d          10.221  -6.481   2.843  0.00  0.00     0.033 H 
ATOM     12  H17 ACE d           8.636  -7.098   2.264  0.00  0.00     0.033 H 
ATOM     13  H18 ACE d           9.278  -8.163  -1.780  0.00  0.00     0.037 H 
ATOM     14  H19 ACE d          10.861  -7.593  -1.147  0.00  0.00     0.037 H 
ATOM     15  H20 ACE d          10.765  -5.607   0.661  0.00  0.00     0.037 H 
ATOM     16  H21 ACE d           9.131  -5.022   1.118  0.00  0.00     0.037 H 
ENDROOT
BRANCH   6  17
ATOM     17  N   ACE d           7.713  -6.532  -0.349  0.00  0.00    -0.341 N 
ATOM     18  C   ACE d           6.919  -7.140  -1.221  0.00  0.00     0.241 C 
ATOM     19  O   ACE d           7.311  -7.679  -2.246  0.00  0.00    -0.271 OA
ATOM     20  H22 ACE d           7.302  -6.145   0.476  0.00  0.00     0.163 HD
BRANCH  18  21
ATOM     21  CA  ACE d           5.438  -7.133  -0.870  0.00  0.00     0.093 C 
ATOM     22  H5  ACE d           5.202  -6.249  -0.260  0.00  0.00     0.088 H 
BRANCH  21  23
ATOM     23  N   ACE d           4.660  -7.106  -2.138  0.00  0.00    -0.348 N 
ATOM     24  C   ACE d           4.556  -5.972  -2.854  0.00  0.00     0.214 C 
ATOM     25  O   ACE d           5.114  -4.910  -2.551  0.00  0.00    -0.274 OA
ATOM     26  H4  ACE d           4.211  -7.939  -2.460  0.00  0.00     0.163 HD
BRANCH  24  27
ATOM     27  CH3 ACE d           3.692  -6.049  -4.137  0.00  0.00    -0.003 C 
ATOM     28  H1  ACE d           2.793  -6.651  -3.939  0.00  0.00     0.040 H 
ATOM     29  H2  ACE d           4.275  -6.516  -4.944  0.00  0.00     0.040 H 
ATOM     30  H3  ACE d           3.394  -5.035  -4.440  0.00  0.00     0.040 H 
ENDBRANCH  24  27
ENDBRANCH  21  23
BRANCH  21  31
ATOM     31  CB  ACE d           5.064  -8.439  -0.081  0.00  0.00    -0.014 C 
ATOM     32  H6  ACE d           5.937  -9.108  -0.053  0.00  0.00     0.043 H 
ATOM     33  H7  ACE d           4.231  -8.944  -0.592  0.00  0.00     0.043 H 
BRANCH  31  34
ATOM     34  CG  ACE d           4.647  -8.097   1.345  0.00  0.00    -0.056 A 
ATOM     35  CD1 ACE d           4.522  -6.762   1.681  0.00  0.00    -0.074 A 
ATOM     36  CE1 ACE d           4.232  -6.436   3.007  0.00  0.00    -0.050 A 
ATOM     37  H8  ACE d           4.646  -5.987   0.934  0.00  0.00     0.084 H 
ATOM     38  CZ  ACE d           4.036  -7.453   3.967  0.00  0.00     0.082 A 
ATOM     39  H10 ACE d           4.157  -5.396   3.302  0.00  0.00     0.087 H 
ATOM     40  CE2 ACE d           4.168  -8.795   3.641  0.00  0.00    -0.050 A 
ATOM     41  CD2 ACE d           4.442  -9.136   2.295  0.00  0.00    -0.074 A 
ATOM     42  H11 ACE d           4.064  -9.563   4.399  0.00  0.00     0.087 H 
ATOM     43  H9  ACE d           4.494 -10.175   1.992  0.00  0.00     0.084 H 
BRANCH  38  44
ATOM     44  OH  ACE d           3.760  -6.949   5.219  0.00  0.00    -0.240 OA
BRANCH  44  45
ATOM     45  P   ACE d           4.916  -6.646   6.360  0.00  0.00     0.427 P 
ATOM     46  O1P ACE d           6.147  -7.470   5.817  0.00  0.00    -0.617 OA
ATOM     47  O2P ACE d           5.260  -5.221   6.438  0.00  0.00    -0.617 OA
ATOM     48  O3P ACE d           4.453  -7.269   7.620  0.00  0.00    -0.617 OA
ENDBRANCH  44  45
ENDBRANCH  38  44
ENDBRANCH  31  34
ENDBRANCH  21  31
ENDBRANCH  18  21
ENDBRANCH   6  17
BRANCH   6  49
ATOM     49  C   ACE d           9.428  -5.431  -1.724  0.00  0.00     0.246 C 
ATOM     50  O   ACE d           8.792  -4.347  -1.896  0.00  0.00    -0.271 OA
ATOM     51  N   ACE d          10.487  -5.778  -2.488  0.00  0.00    -0.345 N 
ATOM     52  H23 ACE d          10.985  -6.620  -2.283  0.00  0.00     0.163 HD
BRANCH  51  53
ATOM     53  CA  ACE d          10.918  -4.940  -3.617  0.00  0.00     0.097 C 
ATOM     54  H24 ACE d          10.127  -4.197  -3.798  0.00  0.00     0.088 H 
BRANCH  53  55
ATOM     55  C   ACE d          11.081  -5.731  -4.912  0.00  0.00     0.238 C 
ATOM     56  O   ACE d          10.130  -5.865  -5.661  0.00  0.00    -0.271 OA
ATOM     57  N   ACE d          12.221  -6.358  -5.118  0.00  0.00    -0.368 N 
ATOM     58  H29 ACE d          12.357  -6.885  -5.957  0.00  0.00     0.159 HD
ATOM     59  H30 ACE d          12.950  -6.308  -4.435  0.00  0.00     0.159 HD
ENDBRANCH  53  55
BRANCH  53  60
ATOM     60  CB  ACE d          12.204  -4.163  -3.216  0.00  0.00     0.036 C 
ATOM     61  H25 ACE d          11.932  -3.127  -2.969  0.00  0.00     0.051 H 
ATOM     62  H26 ACE d          12.903  -4.167  -4.065  0.00  0.00     0.051 H 
BRANCH  60  63
ATOM     63  CG  ACE d          12.901  -4.808  -1.984  0.00  0.00     0.217 C 
ATOM     64  OD1 ACE d          13.564  -5.863  -2.126  0.00  0.00    -0.274 OA
ATOM     65  ND2 ACE d          12.734  -4.163  -0.840  0.00  0.00    -0.370 N 
ATOM     66  H27 ACE d          13.151  -4.515  -0.001  0.00  0.00     0.159 HD
ATOM     67  H28 ACE d          12.190  -3.324  -0.814  0.00  0.00     0.159 HD
ENDBRANCH  60  63
ENDBRANCH  53  60
ENDBRANCH  51  53
ENDBRANCH   6  49
TORSDOF 13
ENDMDL
MODEL 7
REMARK VINA RESULT:      -3.8      3.458      7.647
REMARK  13 active torsions:
REMARK  status: ('A' for Active; 'I' for Inactive)
REMARK    1  A    between atoms: C_1  and  CH3_3 
REMARK       I    between atoms: N_4  and  C_1 
REMARK    2  A    between atoms: CA_5  and  N_4 
REMARK    3  A    between atoms: C_6  and  CA_5 
REMARK    4  A    between atoms: CA_5  and  CB_8 
REMARK       I    between atoms: N_26  and  C_6 
REMARK    5  A    between atoms: CB_8  and  CG_9 
REMARK    6  A    between atoms: CZ_14  and  OH_15 
REMARK    7  A    between atoms: OH_15  and  P_16 
REMARK    8  A    between atoms: CA_28  and  N_26 
REMARK    9  A    between atoms: C_27  and  CA_28 
REMARK       I    between atoms: C_27  and  N_29 
REMARK   10  A    between atoms: N_29  and  CA_30 
REMARK   11  A    between atoms: CA_30  and  C_31 
REMARK   12  A    between atoms: CA_30  and  CB_33 
REMARK       I    between atoms: C_31  and  N_37 
REMARK   13  A    between atoms: CB_33  and  CG_34 
REMARK       I    between atoms: CG_34  and  ND2_36 
ROOT
ATOM      1  CD  ACE d           4.470  -5.155  -1.977  0.00  0.00    -0.065 C 
ATOM      2  CG  ACE d           5.880  -4.728  -1.490  0.00  0.00    -0.062 C 
ATOM      3  CE  ACE d           4.259  -6.651  -1.672  0.00  0.00    -0.062 C 
ATOM      4  CB  ACE d           7.025  -5.565  -2.149  0.00  0.00    -0.033 C 
ATOM      5  CH  ACE d           5.404  -7.500  -2.255  0.00  0.00    -0.033 C 
ATOM      6  CA  ACE d           6.836  -7.069  -1.882  0.00  0.00     0.114 C 
ATOM      7  H12 ACE d           4.388  -4.986  -3.061  0.00  0.00     0.033 H 
ATOM      8  H13 ACE d           3.704  -4.562  -1.455  0.00  0.00     0.033 H 
ATOM      9  H14 ACE d           5.930  -4.859  -0.399  0.00  0.00     0.033 H 
ATOM     10  H15 ACE d           6.031  -3.667  -1.738  0.00  0.00     0.033 H 
ATOM     11  H16 ACE d           3.306  -6.978  -2.115  0.00  0.00     0.033 H 
ATOM     12  H17 ACE d           4.224  -6.794  -0.581  0.00  0.00     0.033 H 
ATOM     13  H18 ACE d           7.991  -5.245  -1.729  0.00  0.00     0.037 H 
ATOM     14  H19 ACE d           7.020  -5.389  -3.235  0.00  0.00     0.037 H 
ATOM     15  H20 ACE d           5.320  -7.467  -3.351  0.00  0.00     0.037 H 
ATOM     16  H21 ACE d           5.264  -8.534  -1.908  0.00  0.00     0.037 H 
ENDROOT
BRANCH   6  17
ATOM     17  N   ACE d           6.990  -7.373  -0.454  0.00  0.00    -0.341 N 
ATOM     18  C   ACE d           7.947  -6.854   0.305  0.00  0.00     0.241 C 
ATOM     19  O   ACE d           8.775  -6.048  -0.092  0.00  0.00    -0.271 OA
ATOM     20  H22 ACE d           6.340  -8.004  -0.032  0.00  0.00     0.163 HD
BRANCH  18  21
ATOM     21  CA  ACE d           7.963  -7.330   1.750  0.00  0.00     0.093 C 
ATOM     22  H5  ACE d           8.091  -6.473   2.426  0.00  0.00     0.088 H 
BRANCH  21  23
ATOM     23  N   ACE d           6.672  -8.015   2.028  0.00  0.00    -0.348 N 
ATOM     24  C   ACE d           6.134  -7.991   3.261  0.00  0.00     0.214 C 
ATOM     25  O   ACE d           6.629  -7.385   4.218  0.00  0.00    -0.274 OA
ATOM     26  H4  ACE d           6.198  -8.497   1.290  0.00  0.00     0.163 HD
BRANCH  24  27
ATOM     27  CH3 ACE d           4.806  -8.768   3.445  0.00  0.00    -0.003 C 
ATOM     28  H1  ACE d           3.961  -8.118   3.177  0.00  0.00     0.040 H 
ATOM     29  H2  ACE d           4.708  -9.083   4.494  0.00  0.00     0.040 H 
ATOM     30  H3  ACE d           4.807  -9.655   2.794  0.00  0.00     0.040 H 
ENDBRANCH  24  27
ENDBRANCH  21  23
BRANCH  21  31
ATOM     31  CB  ACE d           9.131  -8.358   1.967  0.00  0.00    -0.014 C 
ATOM     32  H6  ACE d           9.674  -8.494   1.021  0.00  0.00     0.043 H 
ATOM     33  H7  ACE d           8.710  -9.321   2.291  0.00  0.00     0.043 H 
BRANCH  31  34
ATOM     34  CG  ACE d          10.096  -7.847   3.032  0.00  0.00    -0.056 A 
ATOM     35  CD1 ACE d          10.965  -6.830   2.685  0.00  0.00    -0.074 A 
ATOM     36  CE1 ACE d          11.914  -6.421   3.623  0.00  0.00    -0.050 A 
ATOM     37  H8  ACE d          10.912  -6.363   1.709  0.00  0.00     0.084 H 
ATOM     38  CZ  ACE d          11.954  -7.011   4.905  0.00  0.00     0.082 A 
ATOM     39  H10 ACE d          12.625  -5.645   3.365  0.00  0.00     0.087 H 
ATOM     40  CE2 ACE d          11.091  -8.037   5.260  0.00  0.00    -0.050 A 
ATOM     41  CD2 ACE d          10.111  -8.446   4.323  0.00  0.00    -0.074 A 
ATOM     42  H11 ACE d          11.165  -8.515   6.231  0.00  0.00     0.087 H 
ATOM     43  H9  ACE d           9.383  -9.205   4.585  0.00  0.00     0.084 H 
BRANCH  38  44
ATOM     44  OH  ACE d          12.951  -6.484   5.697  0.00  0.00    -0.240 OA
BRANCH  44  45
ATOM     45  P   ACE d          12.982  -4.912   6.205  0.00  0.00     0.427 P 
ATOM     46  O1P ACE d          11.479  -4.470   6.020  0.00  0.00    -0.617 OA
ATOM     47  O2P ACE d          13.372  -4.792   7.615  0.00  0.00    -0.617 OA
ATOM     48  O3P ACE d          13.814  -4.162   5.238  0.00  0.00    -0.617 OA
ENDBRANCH  44  45
ENDBRANCH  38  44
ENDBRANCH  31  34
ENDBRANCH  21  31
ENDBRANCH  18  21
ENDBRANCH   6  17
BRANCH   6  49
ATOM     49  C   ACE d           7.952  -7.813  -2.673  0.00  0.00     0.246 C 
ATOM     50  O   ACE d           8.042  -7.791  -3.938  0.00  0.00    -0.271 OA
ATOM     51  N   ACE d           8.897  -8.377  -1.890  0.00  0.00    -0.345 N 
ATOM     52  H23 ACE d           8.805  -8.328  -0.895  0.00  0.00     0.163 HD
BRANCH  51  53
ATOM     53  CA  ACE d          10.060  -9.064  -2.474  0.00  0.00     0.097 C 
ATOM     54  H24 ACE d           9.912  -9.094  -3.563  0.00  0.00     0.088 H 
BRANCH  53  55
ATOM     55  C   ACE d          10.187 -10.511  -2.008  0.00  0.00     0.238 C 
ATOM     56  O   ACE d          10.251 -10.759  -0.817  0.00  0.00    -0.271 OA
ATOM     57  N   ACE d          10.356 -11.445  -2.921  0.00  0.00    -0.368 N 
ATOM     58  H29 ACE d          10.443 -12.403  -2.646  0.00  0.00     0.159 HD
ATOM     59  H30 ACE d          10.397 -11.197  -3.889  0.00  0.00     0.159 HD
ENDBRANCH  53  55
BRANCH  53  60
ATOM     60  CB  ACE d          11.340  -8.224  -2.201  0.00  0.00     0.036 C 
ATOM     61  H25 ACE d          12.007  -8.796  -1.540  0.00  0.00     0.051 H 
ATOM     62  H26 ACE d          11.052  -7.284  -1.708  0.00  0.00     0.051 H 
BRANCH  60  63
ATOM     63  CG  ACE d          12.098  -7.892  -3.518  0.00  0.00     0.217 C 
ATOM     64  OD1 ACE d          11.885  -6.803  -4.102  0.00  0.00    -0.274 OA
ATOM     65  ND2 ACE d          12.944  -8.824  -3.931  0.00  0.00    -0.370 N 
ATOM     66  H27 ACE d          13.470  -8.685  -4.771  0.00  0.00     0.159 HD
ATOM     67  H28 ACE d          13.057  -9.666  -3.404  0.00  0.00     0.159 HD
ENDBRANCH  60  63
ENDBRANCH  53  60
ENDBRANCH  51  53
ENDBRANCH   6  49
TORSDOF 13
ENDMDL
MODEL 8
REMARK VINA RESULT:      -3.6      2.057      2.913
REMARK  13 active torsions:
REMARK  status: ('A' for Active; 'I' for Inactive)
REMARK    1  A    between atoms: C_1  and  CH3_3 
REMARK       I    between atoms: N_4  and  C_1 
REMARK    2  A    between atoms: CA_5  and  N_4 
REMARK    3  A    between atoms: C_6  and  CA_5 
REMARK    4  A    between atoms: CA_5  and  CB_8 
REMARK       I    between atoms: N_26  and  C_6 
REMARK    5  A    between atoms: CB_8  and  CG_9 
REMARK    6  A    between atoms: CZ_14  and  OH_15 
REMARK    7  A    between atoms: OH_15  and  P_16 
REMARK    8  A    between atoms: CA_28  and  N_26 
REMARK    9  A    between atoms: C_27  and  CA_28 
REMARK       I    between atoms: C_27  and  N_29 
REMARK   10  A    between atoms: N_29  and  CA_30 
REMARK   11  A    between atoms: CA_30  and  C_31 
REMARK   12  A    between atoms: CA_30  and  CB_33 
REMARK       I    between atoms: C_31  and  N_37 
REMARK   13  A    between atoms: CB_33  and  CG_34 
REMARK       I    between atoms: CG_34  and  ND2_36 
ROOT
ATOM      1  CD  ACE d           6.675  -8.117   4.924  0.00  0.00    -0.065 C 
ATOM      2  CG  ACE d           7.582  -8.663   3.790  0.00  0.00    -0.062 C 
ATOM      3  CE  ACE d           5.816  -6.962   4.376  0.00  0.00    -0.062 C 
ATOM      4  CB  ACE d           8.510  -7.564   3.176  0.00  0.00    -0.033 C 
ATOM      5  CH  ACE d           6.696  -5.888   3.709  0.00  0.00    -0.033 C 
ATOM      6  CA  ACE d           7.685  -6.381   2.635  0.00  0.00     0.114 C 
ATOM      7  H12 ACE d           7.302  -7.749   5.751  0.00  0.00     0.033 H 
ATOM      8  H13 ACE d           6.020  -8.920   5.291  0.00  0.00     0.033 H 
ATOM      9  H14 ACE d           6.942  -9.069   2.993  0.00  0.00     0.033 H 
ATOM     10  H15 ACE d           8.211  -9.468   4.199  0.00  0.00     0.033 H 
ATOM     11  H16 ACE d           5.256  -6.504   5.205  0.00  0.00     0.033 H 
ATOM     12  H17 ACE d           5.110  -7.360   3.632  0.00  0.00     0.033 H 
ATOM     13  H18 ACE d           9.091  -8.003   2.351  0.00  0.00     0.037 H 
ATOM     14  H19 ACE d           9.196  -7.198   3.954  0.00  0.00     0.037 H 
ATOM     15  H20 ACE d           7.280  -5.395   4.500  0.00  0.00     0.037 H 
ATOM     16  H21 ACE d           6.027  -5.154   3.236  0.00  0.00     0.037 H 
ENDROOT
BRANCH   6  17
ATOM     17  N   ACE d           6.866  -6.793   1.489  0.00  0.00    -0.341 N 
ATOM     18  C   ACE d           7.320  -6.836   0.243  0.00  0.00     0.241 C 
ATOM     19  O   ACE d           8.470  -6.573  -0.077  0.00  0.00    -0.271 OA
ATOM     20  H22 ACE d           5.916  -7.055   1.656  0.00  0.00     0.163 HD
BRANCH  18  21
ATOM     21  CA  ACE d           6.300  -7.246  -0.809  0.00  0.00     0.093 C 
ATOM     22  H5  ACE d           5.288  -7.220  -0.380  0.00  0.00     0.088 H 
BRANCH  21  23
ATOM     23  N   ACE d           6.400  -6.294  -1.948  0.00  0.00    -0.348 N 
ATOM     24  C   ACE d           5.328  -6.029  -2.716  0.00  0.00     0.214 C 
ATOM     25  O   ACE d           4.203  -6.503  -2.519  0.00  0.00    -0.274 OA
ATOM     26  H4  ACE d           7.273  -5.847  -2.144  0.00  0.00     0.163 HD
BRANCH  24  27
ATOM     27  CH3 ACE d           5.555  -5.051  -3.896  0.00  0.00    -0.003 C 
ATOM     28  H1  ACE d           6.472  -4.470  -3.719  0.00  0.00     0.040 H 
ATOM     29  H2  ACE d           4.697  -4.368  -3.977  0.00  0.00     0.040 H 
ATOM     30  H3  ACE d           5.658  -5.623  -4.830  0.00  0.00     0.040 H 
ENDBRANCH  24  27
ENDBRANCH  21  23
BRANCH  21  31
ATOM     31  CB  ACE d           6.617  -8.691  -1.335  0.00  0.00    -0.014 C 
ATOM     32  H6  ACE d           5.909  -8.949  -2.136  0.00  0.00     0.043 H 
ATOM     33  H7  ACE d           6.514  -9.409  -0.508  0.00  0.00     0.043 H 
BRANCH  31  34
ATOM     34  CG  ACE d           8.040  -8.756  -1.882  0.00  0.00    -0.056 A 
ATOM     35  CD1 ACE d           8.977  -9.478  -1.166  0.00  0.00    -0.074 A 
ATOM     36  CE1 ACE d          10.301  -9.465  -1.608  0.00  0.00    -0.050 A 
ATOM     37  H8  ACE d           8.691 -10.039  -0.284  0.00  0.00     0.084 H 
ATOM     38  CZ  ACE d          10.659  -8.762  -2.778  0.00  0.00     0.082 A 
ATOM     39  H10 ACE d          11.060 -10.000  -1.048  0.00  0.00     0.087 H 
ATOM     40  CE2 ACE d           9.727  -8.028  -3.498  0.00  0.00    -0.050 A 
ATOM     41  CD2 ACE d           8.378  -8.050  -3.070  0.00  0.00    -0.074 A 
ATOM     42  H11 ACE d          10.026  -7.452  -4.367  0.00  0.00     0.087 H 
ATOM     43  H9  ACE d           7.613  -7.537  -3.640  0.00  0.00     0.084 H 
BRANCH  38  44
ATOM     44  OH  ACE d          12.003  -8.860  -3.062  0.00  0.00    -0.240 OA
BRANCH  44  45
ATOM     45  P   ACE d          12.634  -9.939  -4.144  0.00  0.00     0.427 P 
ATOM     46  O1P ACE d          11.484 -11.013  -4.255  0.00  0.00    -0.617 OA
ATOM     47  O2P ACE d          12.881  -9.329  -5.456  0.00  0.00    -0.617 OA
ATOM     48  O3P ACE d          13.804 -10.569  -3.493  0.00  0.00    -0.617 OA
ENDBRANCH  44  45
ENDBRANCH  38  44
ENDBRANCH  31  34
ENDBRANCH  21  31
ENDBRANCH  18  21
ENDBRANCH   6  17
BRANCH   6  49
ATOM     49  C   ACE d           8.701  -5.301   2.159  0.00  0.00     0.246 C 
ATOM     50  O   ACE d           8.353  -4.162   1.722  0.00  0.00    -0.271 OA
ATOM     51  N   ACE d           9.994  -5.630   2.376  0.00  0.00    -0.345 N 
ATOM     52  H23 ACE d          10.215  -6.523   2.767  0.00  0.00     0.163 HD
BRANCH  51  53
ATOM     53  CA  ACE d          11.082  -4.696   2.047  0.00  0.00     0.097 C 
ATOM     54  H24 ACE d          10.643  -3.691   1.970  0.00  0.00     0.088 H 
BRANCH  53  55
ATOM     55  C   ACE d          11.730  -4.997   0.700  0.00  0.00     0.238 C 
ATOM     56  O   ACE d          12.633  -4.288   0.292  0.00  0.00    -0.271 OA
ATOM     57  N   ACE d          11.203  -5.945  -0.047  0.00  0.00    -0.368 N 
ATOM     58  H29 ACE d          11.605  -6.165  -0.936  0.00  0.00     0.159 HD
ATOM     59  H30 ACE d          10.399  -6.446   0.275  0.00  0.00     0.159 HD
ENDBRANCH  53  55
BRANCH  53  60
ATOM     60  CB  ACE d          12.104  -4.669   3.219  0.00  0.00     0.036 C 
ATOM     61  H25 ACE d          12.331  -3.622   3.469  0.00  0.00     0.051 H 
ATOM     62  H26 ACE d          13.026  -5.178   2.901  0.00  0.00     0.051 H 
BRANCH  60  63
ATOM     63  CG  ACE d          11.544  -5.380   4.484  0.00  0.00     0.217 C 
ATOM     64  OD1 ACE d          10.557  -4.895   5.085  0.00  0.00    -0.274 OA
ATOM     65  ND2 ACE d          12.180  -6.487   4.836  0.00  0.00    -0.370 N 
ATOM     66  H27 ACE d          11.881  -7.002   5.640  0.00  0.00     0.159 HD
ATOM     67  H28 ACE d          12.961  -6.807   4.299  0.00  0.00     0.159 HD
ENDBRANCH  60  63
ENDBRANCH  53  60
ENDBRANCH  51  53
ENDBRANCH   6  49
TORSDOF 13
ENDMDL
MODEL 9
REMARK VINA RESULT:      -3.6      3.202      6.364
REMARK  13 active torsions:
REMARK  status: ('A' for Active; 'I' for Inactive)
REMARK    1  A    between atoms: C_1  and  CH3_3 
REMARK       I    between atoms: N_4  and  C_1 
REMARK    2  A    between atoms: CA_5  and  N_4 
REMARK    3  A    between atoms: C_6  and  CA_5 
REMARK    4  A    between atoms: CA_5  and  CB_8 
REMARK       I    between atoms: N_26  and  C_6 
REMARK    5  A    between atoms: CB_8  and  CG_9 
REMARK    6  A    between atoms: CZ_14  and  OH_15 
REMARK    7  A    between atoms: OH_15  and  P_16 
REMARK    8  A    between atoms: CA_28  and  N_26 
REMARK    9  A    between atoms: C_27  and  CA_28 
REMARK       I    between atoms: C_27  and  N_29 
REMARK   10  A    between atoms: N_29  and  CA_30 
REMARK   11  A    between atoms: CA_30  and  C_31 
REMARK   12  A    between atoms: CA_30  and  CB_33 
REMARK       I    between atoms: C_31  and  N_37 
REMARK   13  A    between atoms: CB_33  and  CG_34 
REMARK       I    between atoms: CG_34  and  ND2_36 
ROOT
ATOM      1  CD  ACE d           4.102  -5.347  -2.360  0.00  0.00    -0.065 C 
ATOM      2  CG  ACE d           4.604  -6.788  -2.079  0.00  0.00    -0.062 C 
ATOM      3  CE  ACE d           5.205  -4.342  -1.976  0.00  0.00    -0.062 C 
ATOM      4  CB  ACE d           5.015  -7.005  -0.586  0.00  0.00    -0.033 C 
ATOM      5  CH  ACE d           5.676  -4.567  -0.527  0.00  0.00    -0.033 C 
ATOM      6  CA  ACE d           6.103  -6.001  -0.160  0.00  0.00     0.114 C 
ATOM      7  H12 ACE d           3.200  -5.149  -1.763  0.00  0.00     0.033 H 
ATOM      8  H13 ACE d           3.864  -5.241  -3.429  0.00  0.00     0.033 H 
ATOM      9  H14 ACE d           5.478  -6.987  -2.717  0.00  0.00     0.033 H 
ATOM     10  H15 ACE d           3.800  -7.496  -2.330  0.00  0.00     0.033 H 
ATOM     11  H16 ACE d           4.809  -3.320  -2.071  0.00  0.00     0.033 H 
ATOM     12  H17 ACE d           6.060  -4.468  -2.657  0.00  0.00     0.033 H 
ATOM     13  H18 ACE d           5.403  -8.027  -0.464  0.00  0.00     0.037 H 
ATOM     14  H19 ACE d           4.130  -6.869   0.054  0.00  0.00     0.037 H 
ATOM     15  H20 ACE d           4.851  -4.281   0.142  0.00  0.00     0.037 H 
ATOM     16  H21 ACE d           6.537  -3.906  -0.349  0.00  0.00     0.037 H 
ENDROOT
BRANCH   6  17
ATOM     17  N   ACE d           7.356  -6.248  -0.881  0.00  0.00    -0.341 N 
ATOM     18  C   ACE d           7.982  -7.418  -0.883  0.00  0.00     0.241 C 
ATOM     19  O   ACE d           7.567  -8.418  -0.316  0.00  0.00    -0.271 OA
ATOM     20  H22 ACE d           7.761  -5.495  -1.400  0.00  0.00     0.163 HD
BRANCH  18  21
ATOM     21  CA  ACE d           9.293  -7.457  -1.655  0.00  0.00     0.093 C 
ATOM     22  H5  ACE d           9.829  -8.391  -1.436  0.00  0.00     0.088 H 
BRANCH  21  23
ATOM     23  N   ACE d           8.978  -7.373  -3.107  0.00  0.00    -0.348 N 
ATOM     24  C   ACE d           9.692  -8.076  -4.005  0.00  0.00     0.214 C 
ATOM     25  O   ACE d          10.604  -8.855  -3.705  0.00  0.00    -0.274 OA
ATOM     26  H4  ACE d           8.229  -6.788  -3.418  0.00  0.00     0.163 HD
BRANCH  24  27
ATOM     27  CH3 ACE d           9.301  -7.884  -5.492  0.00  0.00    -0.003 C 
ATOM     28  H1  ACE d           9.502  -8.813  -6.046  0.00  0.00     0.040 H 
ATOM     29  H2  ACE d           9.894  -7.065  -5.924  0.00  0.00     0.040 H 
ATOM     30  H3  ACE d           8.232  -7.640  -5.561  0.00  0.00     0.040 H 
ENDBRANCH  24  27
ENDBRANCH  21  23
BRANCH  21  31
ATOM     31  CB  ACE d          10.186  -6.226  -1.265  0.00  0.00    -0.014 C 
ATOM     32  H6  ACE d           9.654  -5.297  -1.517  0.00  0.00     0.043 H 
ATOM     33  H7  ACE d          11.131  -6.272  -1.826  0.00  0.00     0.043 H 
BRANCH  31  34
ATOM     34  CG  ACE d          10.488  -6.243   0.230  0.00  0.00    -0.056 A 
ATOM     35  CD1 ACE d          10.492  -7.464   0.878  0.00  0.00    -0.074 A 
ATOM     36  CE1 ACE d          10.674  -7.480   2.261  0.00  0.00    -0.050 A 
ATOM     37  H8  ACE d          10.357  -8.386   0.324  0.00  0.00     0.084 H 
ATOM     38  CZ  ACE d          10.886  -6.278   2.969  0.00  0.00     0.082 A 
ATOM     39  H10 ACE d          10.653  -8.423   2.795  0.00  0.00     0.087 H 
ATOM     40  CE2 ACE d          10.875  -5.046   2.330  0.00  0.00    -0.050 A 
ATOM     41  CD2 ACE d          10.711  -5.020   0.924  0.00  0.00    -0.074 A 
ATOM     42  H11 ACE d          10.989  -4.127   2.894  0.00  0.00     0.087 H 
ATOM     43  H9  ACE d          10.755  -4.082   0.383  0.00  0.00     0.084 H 
BRANCH  38  44
ATOM     44  OH  ACE d          11.046  -6.484   4.322  0.00  0.00    -0.240 OA
BRANCH  44  45
ATOM     45  P   ACE d          11.684  -7.865   4.968  0.00  0.00     0.427 P 
ATOM     46  O1P ACE d          12.560  -7.305   6.155  0.00  0.00    -0.617 OA
ATOM     47  O2P ACE d          10.647  -8.765   5.489  0.00  0.00    -0.617 OA
ATOM     48  O3P ACE d          12.588  -8.442   3.948  0.00  0.00    -0.617 OA
ENDBRANCH  44  45
ENDBRANCH  38  44
ENDBRANCH  31  34
ENDBRANCH  21  31
ENDBRANCH  18  21
ENDBRANCH   6  17
BRANCH   6  49
ATOM     49  C   ACE d           6.351  -6.223   1.362  0.00  0.00     0.246 C 
ATOM     50  O   ACE d           7.374  -5.784   1.972  0.00  0.00    -0.271 OA
ATOM     51  N   ACE d           5.319  -6.809   2.007  0.00  0.00    -0.345 N 
ATOM     52  H23 ACE d           4.514  -7.096   1.488  0.00  0.00     0.163 HD
BRANCH  51  53
ATOM     53  CA  ACE d           5.359  -7.034   3.460  0.00  0.00     0.097 C 
ATOM     54  H24 ACE d           6.417  -7.094   3.756  0.00  0.00     0.088 H 
BRANCH  53  55
ATOM     55  C   ACE d           4.712  -8.352   3.872  0.00  0.00     0.238 C 
ATOM     56  O   ACE d           5.049  -9.387   3.326  0.00  0.00    -0.271 OA
ATOM     57  N   ACE d           3.708  -8.312   4.724  0.00  0.00    -0.368 N 
ATOM     58  H29 ACE d           3.263  -9.160   5.014  0.00  0.00     0.159 HD
ATOM     59  H30 ACE d           3.390  -7.434   5.082  0.00  0.00     0.159 HD
ENDBRANCH  53  55
BRANCH  53  60
ATOM     60  CB  ACE d           4.743  -5.804   4.185  0.00  0.00     0.036 C 
ATOM     61  H25 ACE d           3.672  -5.990   4.357  0.00  0.00     0.051 H 
ATOM     62  H26 ACE d           4.863  -4.916   3.547  0.00  0.00     0.051 H 
BRANCH  60  63
ATOM     63  CG  ACE d           5.434  -5.539   5.553  0.00  0.00     0.217 C 
ATOM     64  OD1 ACE d           4.970  -6.057   6.596  0.00  0.00    -0.274 OA
ATOM     65  ND2 ACE d           6.504  -4.759   5.503  0.00  0.00    -0.370 N 
ATOM     66  H27 ACE d           7.004  -4.541   6.341  0.00  0.00     0.159 HD
ATOM     67  H28 ACE d           6.810  -4.387   4.626  0.00  0.00     0.159 HD
ENDBRANCH  60  63
ENDBRANCH  53  60
ENDBRANCH  51  53
ENDBRANCH   6  49
TORSDOF 13
ENDMDL
MODEL 10
REMARK VINA RESULT:      -3.5      3.554      7.455
REMARK  13 active torsions:
REMARK  status: ('A' for Active; 'I' for Inactive)
REMARK    1  A    between atoms: C_1  and  CH3_3 
REMARK       I    between atoms: N_4  and  C_1 
REMARK    2  A    between atoms: CA_5  and  N_4 
REMARK    3  A    between atoms: C_6  and  CA_5 
REMARK    4  A    between atoms: CA_5  and  CB_8 
REMARK       I    between atoms: N_26  and  C_6 
REMARK    5  A    between atoms: CB_8  and  CG_9 
REMARK    6  A    between atoms: CZ_14  and  OH_15 
REMARK    7  A    between atoms: OH_15  and  P_16 
REMARK    8  A    between atoms: CA_28  and  N_26 
REMARK    9  A    between atoms: C_27  and  CA_28 
REMARK       I    between atoms: C_27  and  N_29 
REMARK   10  A    between atoms: N_29  and  CA_30 
REMARK   11  A    between atoms: CA_30  and  C_31 
REMARK   12  A    between atoms: CA_30  and  CB_33 
REMARK       I    between atoms: C_31  and  N_37 
REMARK   13  A    between atoms: CB_33  and  CG_34 
REMARK       I    between atoms: CG_34  and  ND2_36 
ROOT
ATOM      1  CD  ACE d           4.167  -5.238  -3.050  0.00  0.00    -0.065 C 
ATOM      2  CG  ACE d           5.146  -4.397  -2.188  0.00  0.00    -0.062 C 
ATOM      3  CE  ACE d           4.499  -6.733  -2.882  0.00  0.00    -0.062 C 
ATOM      4  CB  ACE d           6.644  -4.647  -2.559  0.00  0.00    -0.033 C 
ATOM      5  CH  ACE d           5.985  -7.006  -3.182  0.00  0.00    -0.033 C 
ATOM      6  CA  ACE d           7.008  -6.137  -2.424  0.00  0.00     0.114 C 
ATOM      7  H12 ACE d           4.271  -4.954  -4.108  0.00  0.00     0.033 H 
ATOM      8  H13 ACE d           3.134  -5.052  -2.721  0.00  0.00     0.033 H 
ATOM      9  H14 ACE d           4.996  -4.659  -1.130  0.00  0.00     0.033 H 
ATOM     10  H15 ACE d           4.919  -3.331  -2.337  0.00  0.00     0.033 H 
ATOM     11  H16 ACE d           3.879  -7.320  -3.576  0.00  0.00     0.033 H 
ATOM     12  H17 ACE d           4.279  -7.037  -1.848  0.00  0.00     0.033 H 
ATOM     13  H18 ACE d           7.284  -4.059  -1.885  0.00  0.00     0.037 H 
ATOM     14  H19 ACE d           6.815  -4.329  -3.599  0.00  0.00     0.037 H 
ATOM     15  H20 ACE d           6.144  -6.846  -4.258  0.00  0.00     0.037 H 
ATOM     16  H21 ACE d           6.189  -8.057  -2.933  0.00  0.00     0.037 H 
ENDROOT
BRANCH   6  17
ATOM     17  N   ACE d           6.943  -6.567  -1.022  0.00  0.00    -0.341 N 
ATOM     18  C   ACE d           7.510  -5.900  -0.025  0.00  0.00     0.241 C 
ATOM     19  O   ACE d           8.112  -4.846  -0.161  0.00  0.00    -0.271 OA
ATOM     20  H22 ACE d           6.446  -7.408  -0.807  0.00  0.00     0.163 HD
BRANCH  18  21
ATOM     21  CA  ACE d           7.367  -6.536   1.351  0.00  0.00     0.093 C 
ATOM     22  H5  ACE d           7.675  -5.822   2.128  0.00  0.00     0.088 H 
BRANCH  21  23
ATOM     23  N   ACE d           5.941  -6.917   1.540  0.00  0.00    -0.348 N 
ATOM     24  C   ACE d           5.158  -6.238   2.396  0.00  0.00     0.214 C 
ATOM     25  O   ACE d           5.532  -5.251   3.040  0.00  0.00    -0.274 OA
ATOM     26  H4  ACE d           5.562  -7.686   1.025  0.00  0.00     0.163 HD
BRANCH  24  27
ATOM     27  CH3 ACE d           3.700  -6.745   2.542  0.00  0.00    -0.003 C 
ATOM     28  H1  ACE d           3.705  -7.832   2.708  0.00  0.00     0.040 H 
ATOM     29  H2  ACE d           3.140  -6.516   1.623  0.00  0.00     0.040 H 
ATOM     30  H3  ACE d           3.223  -6.245   3.397  0.00  0.00     0.040 H 
ENDBRANCH  24  27
ENDBRANCH  21  23
BRANCH  21  31
ATOM     31  CB  ACE d           8.247  -7.833   1.440  0.00  0.00    -0.014 C 
ATOM     32  H6  ACE d           8.666  -8.056   0.448  0.00  0.00     0.043 H 
ATOM     33  H7  ACE d           7.621  -8.675   1.771  0.00  0.00     0.043 H 
BRANCH  31  34
ATOM     34  CG  ACE d           9.387  -7.634   2.434  0.00  0.00    -0.056 A 
ATOM     35  CD1 ACE d          10.126  -6.468   2.348  0.00  0.00    -0.074 A 
ATOM     36  CE1 ACE d          11.228  -6.319   3.191  0.00  0.00    -0.050 A 
ATOM     37  H8  ACE d           9.856  -5.691   1.643  0.00  0.00     0.084 H 
ATOM     38  CZ  ACE d          11.551  -7.321   4.131  0.00  0.00     0.082 A 
ATOM     39  H10 ACE d          11.839  -5.426   3.123  0.00  0.00     0.087 H 
ATOM     40  CE2 ACE d          10.821  -8.497   4.219  0.00  0.00    -0.050 A 
ATOM     41  CD2 ACE d           9.689  -8.650   3.383  0.00  0.00    -0.074 A 
ATOM     42  H11 ACE d          11.110  -9.280   4.912  0.00  0.00     0.087 H 
ATOM     43  H9  ACE d           9.061  -9.530   3.464  0.00  0.00     0.084 H 
BRANCH  38  44
ATOM     44  OH  ACE d          12.665  -7.004   4.876  0.00  0.00    -0.240 OA
BRANCH  44  45
ATOM     45  P   ACE d          12.933  -5.513   5.536  0.00  0.00     0.427 P 
ATOM     46  O1P ACE d          13.652  -5.872   6.894  0.00  0.00    -0.617 OA
ATOM     47  O2P ACE d          13.814  -4.686   4.703  0.00  0.00    -0.617 OA
ATOM     48  O3P ACE d          11.606  -4.934   5.846  0.00  0.00    -0.617 OA
ENDBRANCH  44  45
ENDBRANCH  38  44
ENDBRANCH  31  34
ENDBRANCH  21  31
ENDBRANCH  18  21
ENDBRANCH   6  17
BRANCH   6  49
ATOM     49  C   ACE d           8.473  -6.293  -2.926  0.00  0.00     0.246 C 
ATOM     50  O   ACE d           9.196  -5.313  -3.282  0.00  0.00    -0.271 OA
ATOM     51  N   ACE d           8.958  -7.551  -2.824  0.00  0.00    -0.345 N 
ATOM     52  H23 ACE d           8.361  -8.282  -2.493  0.00  0.00     0.163 HD
BRANCH  51  53
ATOM     53  CA  ACE d          10.347  -7.863  -3.192  0.00  0.00     0.097 C 
ATOM     54  H24 ACE d          10.922  -6.927  -3.139  0.00  0.00     0.088 H 
BRANCH  53  55
ATOM     55  C   ACE d          10.478  -8.378  -4.622  0.00  0.00     0.238 C 
ATOM     56  O   ACE d           9.480  -8.522  -5.306  0.00  0.00    -0.271 OA
ATOM     57  N   ACE d          11.664  -8.777  -5.033  0.00  0.00    -0.368 N 
ATOM     58  H29 ACE d          11.781  -9.120  -5.966  0.00  0.00     0.159 HD
ATOM     59  H30 ACE d          12.448  -8.737  -4.413  0.00  0.00     0.159 HD
ENDBRANCH  53  55
BRANCH  53  60
ATOM     60  CB  ACE d          10.948  -8.838  -2.140  0.00  0.00     0.036 C 
ATOM     61  H25 ACE d          11.026  -8.317  -1.174  0.00  0.00     0.051 H 
ATOM     62  H26 ACE d          11.950  -9.148  -2.471  0.00  0.00     0.051 H 
BRANCH  60  63
ATOM     63  CG  ACE d          10.062 -10.104  -1.960  0.00  0.00     0.217 C 
ATOM     64  OD1 ACE d           8.940 -10.005  -1.410  0.00  0.00    -0.274 OA
ATOM     65  ND2 ACE d          10.585 -11.229  -2.424  0.00  0.00    -0.370 N 
ATOM     66  H27 ACE d          10.077 -12.086  -2.346  0.00  0.00     0.159 HD
ATOM     67  H28 ACE d          11.489 -11.220  -2.853  0.00  0.00     0.159 HD
ENDBRANCH  60  63
ENDBRANCH  53  60
ENDBRANCH  51  53
ENDBRANCH   6  49
TORSDOF 13
ENDMDL
