MODEL 1
REMARK VINA RESULT:      -8.8      0.000      0.000
REMARK  5 active torsions:
REMARK  status: ('A' for Active; 'I' for Inactive)
REMARK    1  A    between atoms: C1_1  and  C7_7 
REMARK    2  A    between atoms: C7_7  and  N1_8 
REMARK    3  A    between atoms: C8_12  and  C1'_13 
REMARK    4  A    between atoms: C5'_17  and  C1''_20 
REMARK    5  A    between atoms: C6'_18  and  O6'_19 
ROOT
ATOM      1  C1' MOL d          43.274  -2.195  32.189  0.00  0.00     0.025 A 
ATOM      2  C2' MOL d          42.400  -3.087  32.800  0.00  0.00    -0.068 A 
ATOM      3  C3' MOL d          42.129  -3.029  34.148  0.00  0.00    -0.081 A 
ATOM      4  C4' MOL d          42.728  -2.066  34.925  0.00  0.00    -0.070 A 
ATOM      5  C5' MOL d          43.627  -1.122  34.380  0.00  0.00     0.008 A 
ATOM      6  C6' MOL d          43.877  -1.220  33.010  0.00  0.00     0.089 A 
ATOM      7  H10 MOL d          41.918  -3.850  32.199  0.00  0.00     0.085 H 
ATOM      8  H11 MOL d          41.444  -3.741  34.596  0.00  0.00     0.083 H 
ATOM      9  H12 MOL d          42.505  -2.031  35.985  0.00  0.00     0.085 H 
ENDROOT
BRANCH   1  10
ATOM     10  C8  MOL d          43.536  -2.261  30.819  0.00  0.00     0.046 A 
ATOM     11  N3  MOL d          43.691  -1.205  30.083  0.00  0.00    -0.355 N 
ATOM     12  C4  MOL d          43.856  -1.650  28.890  0.00  0.00     0.043 A 
ATOM     13  H8  MOL d          43.684  -0.221  30.389  0.00  0.00     0.166 HD
ATOM     14  C3  MOL d          44.076  -0.950  27.750  0.00  0.00    -0.055 A 
ATOM     15  C5  MOL d          43.797  -2.983  28.950  0.00  0.00    -0.006 A 
ATOM     16  C2  MOL d          44.243  -1.696  26.584  0.00  0.00    -0.067 A 
ATOM     17  H2  MOL d          44.119   0.133  27.745  0.00  0.00     0.087 H 
ATOM     18  C1  MOL d          44.189  -3.131  26.568  0.00  0.00     0.008 A 
ATOM     19  H1  MOL d          44.422  -1.171  25.653  0.00  0.00     0.085 H 
ATOM     20  C6  MOL d          43.955  -3.782  27.812  0.00  0.00    -0.057 A 
ATOM     21  H3  MOL d          43.901  -4.863  27.876  0.00  0.00     0.086 H 
ATOM     22  CN4 MOL d          43.587  -3.419  30.187  0.00  0.00    -0.044 A 
ATOM     23  H9  MOL d          43.487  -4.434  30.568  0.00  0.00     0.088 H 
BRANCH  18  24
ATOM     24  C7  MOL d          44.378  -3.824  25.357  0.00  0.00     0.102 C 
ATOM     25  N2  MOL d          44.674  -3.154  24.260  0.00  0.00    -0.385 N 
ATOM     26  H6  MOL d          44.767  -2.129  24.292  0.00  0.00     0.157 HD
ATOM     27  H7  MOL d          44.811  -3.656  23.371  0.00  0.00     0.157 HD
BRANCH  24  28
ATOM     28  N1  MOL d          44.260  -5.131  25.311  0.00  0.00    -0.385 N 
ATOM     29  H4  MOL d          44.968  -5.728  25.762  0.00  0.00     0.157 HD
ATOM     30  H5  MOL d          43.460  -5.558  24.823  0.00  0.00     0.157 HD
ENDBRANCH  24  28
ENDBRANCH  18  24
ENDBRANCH   1  10
BRANCH   6  31
ATOM     31  O6' MOL d          44.766  -0.335  32.438  0.00  0.00    -0.359 OA
ATOM     32  H13 MOL d          44.491  -0.142  31.549  0.00  0.00     0.217 HD
ENDBRANCH   6  31
BRANCH   5  33
ATOM     33  C1' MOL d          44.206  -0.127  35.204  0.00  0.00    -0.023 A 
ATOM     34  C2' MOL d          45.191  -0.406  36.140  0.00  0.00    -0.072 A 
ATOM     35  C3' MOL d          45.727   0.566  36.959  0.00  0.00    -0.082 A 
ATOM     36  H14 MOL d          45.553  -1.423  36.232  0.00  0.00     0.084 H 
ATOM     37  C4' MOL d          45.299   1.867  36.870  0.00  0.00    -0.083 A 
ATOM     38  H15 MOL d          46.492   0.300  37.679  0.00  0.00     0.083 H 
ATOM     39  C5' MOL d          44.317   2.208  35.948  0.00  0.00    -0.082 A 
ATOM     40  H16 MOL d          45.725   2.625  37.516  0.00  0.00     0.083 H 
ATOM     41  C6' MOL d          43.784   1.216  35.129  0.00  0.00    -0.072 A 
ATOM     42  H17 MOL d          43.970   3.232  35.868  0.00  0.00     0.083 H 
ATOM     43  H18 MOL d          43.020   1.485  34.409  0.00  0.00     0.084 H 
ENDBRANCH   5  33
TORSDOF 5
ENDMDL
MODEL 2
REMARK VINA RESULT:      -7.0      1.007      1.553
REMARK  5 active torsions:
REMARK  status: ('A' for Active; 'I' for Inactive)
REMARK    1  A    between atoms: C1_1  and  C7_7 
REMARK    2  A    between atoms: C7_7  and  N1_8 
REMARK    3  A    between atoms: C8_12  and  C1'_13 
REMARK    4  A    between atoms: C5'_17  and  C1''_20 
REMARK    5  A    between atoms: C6'_18  and  O6'_19 
ROOT
ATOM      1  C1' MOL d          43.382  -2.343  32.725  0.00  0.00     0.025 A 
ATOM      2  C2' MOL d          42.813  -3.280  33.582  0.00  0.00    -0.068 A 
ATOM      3  C3' MOL d          42.695  -3.049  34.933  0.00  0.00    -0.081 A 
ATOM      4  C4' MOL d          43.144  -1.864  35.466  0.00  0.00    -0.070 A 
ATOM      5  C5' MOL d          43.733  -0.861  34.664  0.00  0.00     0.008 A 
ATOM      6  C6' MOL d          43.837  -1.138  33.300  0.00  0.00     0.089 A 
ATOM      7  H10 MOL d          42.452  -4.217  33.174  0.00  0.00     0.085 H 
ATOM      8  H11 MOL d          42.249  -3.800  35.576  0.00  0.00     0.083 H 
ATOM      9  H12 MOL d          43.044  -1.695  36.532  0.00  0.00     0.085 H 
ENDROOT
BRANCH   1  10
ATOM     10  C8  MOL d          43.491  -2.587  31.355  0.00  0.00     0.046 A 
ATOM     11  N3  MOL d          43.347  -3.768  30.839  0.00  0.00    -0.355 N 
ATOM     12  C4  MOL d          43.568  -3.615  29.584  0.00  0.00     0.043 A 
ATOM     13  H8  MOL d          43.106  -4.641  31.330  0.00  0.00     0.166 HD
ATOM     14  C3  MOL d          43.527  -4.544  28.598  0.00  0.00    -0.055 A 
ATOM     15  C5  MOL d          43.841  -2.322  29.382  0.00  0.00    -0.006 A 
ATOM     16  C2  MOL d          43.792  -4.094  27.306  0.00  0.00    -0.067 A 
ATOM     17  H2  MOL d          43.300  -5.584  28.805  0.00  0.00     0.087 H 
ATOM     18  C1  MOL d          44.096  -2.721  27.011  0.00  0.00     0.008 A 
ATOM     19  H1  MOL d          43.767  -4.808  26.491  0.00  0.00     0.085 H 
ATOM     20  C6  MOL d          44.116  -1.815  28.108  0.00  0.00    -0.057 A 
ATOM     21  H3  MOL d          44.339  -0.764  27.961  0.00  0.00     0.086 H 
ATOM     22  CN4 MOL d          43.802  -1.622  30.510  0.00  0.00    -0.044 A 
ATOM     23  H9  MOL d          43.977  -0.562  30.687  0.00  0.00     0.088 H 
BRANCH  18  24
ATOM     24  C7  MOL d          44.343  -2.331  25.681  0.00  0.00     0.102 C 
ATOM     25  N2  MOL d          44.229  -1.062  25.340  0.00  0.00    -0.385 N 
ATOM     26  H6  MOL d          43.962  -0.361  26.046  0.00  0.00     0.157 HD
ATOM     27  H7  MOL d          44.406  -0.772  24.367  0.00  0.00     0.157 HD
BRANCH  24  28
ATOM     28  N1  MOL d          44.682  -3.221  24.777  0.00  0.00    -0.385 N 
ATOM     29  H4  MOL d          44.623  -4.226  24.995  0.00  0.00     0.157 HD
ATOM     30  H5  MOL d          45.008  -2.913  23.849  0.00  0.00     0.157 HD
ENDBRANCH  24  28
ENDBRANCH  18  24
ENDBRANCH   1  10
BRANCH   6  31
ATOM     31  O6' MOL d          44.426  -0.199  32.480  0.00  0.00    -0.359 OA
ATOM     32  H13 MOL d          45.203  -0.572  32.080  0.00  0.00     0.217 HD
ENDBRANCH   6  31
BRANCH   5  33
ATOM     33  C1' MOL d          44.160   0.358  35.242  0.00  0.00    -0.023 A 
ATOM     34  C2' MOL d          45.232   0.440  36.119  0.00  0.00    -0.072 A 
ATOM     35  C3' MOL d          45.621   1.629  36.699  0.00  0.00    -0.082 A 
ATOM     36  H14 MOL d          45.783  -0.462  36.356  0.00  0.00     0.084 H 
ATOM     37  C4' MOL d          44.951   2.794  36.420  0.00  0.00    -0.083 A 
ATOM     38  H15 MOL d          46.463   1.643  37.382  0.00  0.00     0.083 H 
ATOM     39  C5' MOL d          43.871   2.775  35.546  0.00  0.00    -0.082 A 
ATOM     40  H16 MOL d          45.263   3.724  36.880  0.00  0.00     0.083 H 
ATOM     41  C6' MOL d          43.489   1.567  34.968  0.00  0.00    -0.072 A 
ATOM     42  H17 MOL d          43.334   3.689  35.318  0.00  0.00     0.083 H 
ATOM     43  H18 MOL d          42.648   1.557  34.285  0.00  0.00     0.084 H 
ENDBRANCH   5  33
TORSDOF 5
ENDMDL
MODEL 3
REMARK VINA RESULT:      -6.9      2.856      8.352
REMARK  5 active torsions:
REMARK  status: ('A' for Active; 'I' for Inactive)
REMARK    1  A    between atoms: C1_1  and  C7_7 
REMARK    2  A    between atoms: C7_7  and  N1_8 
REMARK    3  A    between atoms: C8_12  and  C1'_13 
REMARK    4  A    between atoms: C5'_17  and  C1''_20 
REMARK    5  A    between atoms: C6'_18  and  O6'_19 
ROOT
ATOM      1  C1' MOL d          43.393  -2.502  31.345  0.00  0.00     0.025 A 
ATOM      2  C2' MOL d          43.074  -3.789  31.766  0.00  0.00    -0.068 A 
ATOM      3  C3' MOL d          43.004  -4.843  30.885  0.00  0.00    -0.081 A 
ATOM      4  C4' MOL d          43.256  -4.636  29.550  0.00  0.00    -0.070 A 
ATOM      5  C5' MOL d          43.588  -3.360  29.042  0.00  0.00     0.008 A 
ATOM      6  C6' MOL d          43.644  -2.318  29.969  0.00  0.00     0.089 A 
ATOM      7  H10 MOL d          42.876  -3.966  32.817  0.00  0.00     0.085 H 
ATOM      8  H11 MOL d          42.750  -5.834  31.243  0.00  0.00     0.083 H 
ATOM      9  H12 MOL d          43.198  -5.477  28.867  0.00  0.00     0.085 H 
ENDROOT
BRANCH   1  10
ATOM     10  C8  MOL d          43.467  -1.441  32.250  0.00  0.00     0.046 A 
ATOM     11  N3  MOL d          44.515  -0.685  32.361  0.00  0.00    -0.355 N 
ATOM     12  C4  MOL d          44.242   0.128  33.314  0.00  0.00     0.043 A 
ATOM     13  H8  MOL d          45.381  -0.729  31.803  0.00  0.00     0.166 HD
ATOM     14  C3  MOL d          45.003   1.133  33.813  0.00  0.00    -0.055 A 
ATOM     15  C5  MOL d          43.014  -0.168  33.752  0.00  0.00    -0.006 A 
ATOM     16  C2  MOL d          44.445   1.884  34.846  0.00  0.00    -0.067 A 
ATOM     17  H2  MOL d          45.995   1.342  33.428  0.00  0.00     0.087 H 
ATOM     18  C1  MOL d          43.134   1.624  35.373  0.00  0.00     0.008 A 
ATOM     19  H1  MOL d          45.024   2.697  35.270  0.00  0.00     0.085 H 
ATOM     20  C6  MOL d          42.406   0.549  34.788  0.00  0.00    -0.057 A 
ATOM     21  H3  MOL d          41.410   0.295  35.134  0.00  0.00     0.086 H 
ATOM     22  CN4 MOL d          42.479  -1.184  33.086  0.00  0.00    -0.044 A 
ATOM     23  H9  MOL d          41.508  -1.665  33.198  0.00  0.00     0.088 H 
BRANCH  18  24
ATOM     24  C7  MOL d          42.625   2.428  36.410  0.00  0.00     0.102 C 
ATOM     25  N2  MOL d          42.510   3.729  36.233  0.00  0.00    -0.385 N 
ATOM     26  H6  MOL d          42.791   4.153  35.337  0.00  0.00     0.157 HD
ATOM     27  H7  MOL d          42.141   4.322  36.990  0.00  0.00     0.157 HD
BRANCH  24  28
ATOM     28  N1  MOL d          42.267   1.892  37.555  0.00  0.00    -0.385 N 
ATOM     29  H4  MOL d          42.361   2.431  38.428  0.00  0.00     0.157 HD
ATOM     30  H5  MOL d          41.892   0.933  37.579  0.00  0.00     0.157 HD
ENDBRANCH  24  28
ENDBRANCH  18  24
ENDBRANCH   1  10
BRANCH   6  31
ATOM     31  O6' MOL d          43.941  -1.050  29.517  0.00  0.00    -0.359 OA
ATOM     32  H13 MOL d          43.161  -0.659  29.139  0.00  0.00     0.217 HD
ENDBRANCH   6  31
BRANCH   5  33
ATOM     33  C1' MOL d          43.868  -3.188  27.665  0.00  0.00    -0.023 A 
ATOM     34  C2' MOL d          44.187  -1.957  27.110  0.00  0.00    -0.072 A 
ATOM     35  C3' MOL d          44.428  -1.796  25.763  0.00  0.00    -0.082 A 
ATOM     36  H14 MOL d          44.248  -1.092  27.759  0.00  0.00     0.084 H 
ATOM     37  C4' MOL d          44.365  -2.869  24.909  0.00  0.00    -0.083 A 
ATOM     38  H15 MOL d          44.670  -0.813  25.374  0.00  0.00     0.083 H 
ATOM     39  C5' MOL d          44.054  -4.128  25.407  0.00  0.00    -0.082 A 
ATOM     40  H16 MOL d          44.557  -2.734  23.851  0.00  0.00     0.083 H 
ATOM     41  C6' MOL d          43.811  -4.276  26.770  0.00  0.00    -0.072 A 
ATOM     42  H17 MOL d          44.000  -4.983  24.743  0.00  0.00     0.083 H 
ATOM     43  H18 MOL d          43.571  -5.260  27.156  0.00  0.00     0.084 H 
ENDBRANCH   5  33
TORSDOF 5
ENDMDL
MODEL 4
REMARK VINA RESULT:      -6.3      2.282      3.376
REMARK  5 active torsions:
REMARK  status: ('A' for Active; 'I' for Inactive)
REMARK    1  A    between atoms: C1_1  and  C7_7 
REMARK    2  A    between atoms: C7_7  and  N1_8 
REMARK    3  A    between atoms: C8_12  and  C1'_13 
REMARK    4  A    between atoms: C5'_17  and  C1''_20 
REMARK    5  A    between atoms: C6'_18  and  O6'_19 
ROOT
ATOM      1  C1' MOL d          42.730  -1.883  32.063  0.00  0.00     0.025 A 
ATOM      2  C2' MOL d          42.094  -0.707  32.444  0.00  0.00    -0.068 A 
ATOM      3  C3' MOL d          41.627  -0.517  33.725  0.00  0.00    -0.081 A 
ATOM      4  C4' MOL d          41.790  -1.506  34.665  0.00  0.00    -0.070 A 
ATOM      5  C5' MOL d          42.427  -2.730  34.358  0.00  0.00     0.008 A 
ATOM      6  C6' MOL d          42.881  -2.882  33.047  0.00  0.00     0.089 A 
ATOM      7  H10 MOL d          41.961   0.083  31.713  0.00  0.00     0.085 H 
ATOM      8  H11 MOL d          41.132   0.410  33.991  0.00  0.00     0.083 H 
ATOM      9  H12 MOL d          41.418  -1.343  35.670  0.00  0.00     0.085 H 
ENDROOT
BRANCH   1  10
ATOM     10  C8  MOL d          43.205  -2.061  30.761  0.00  0.00     0.046 A 
ATOM     11  N3  MOL d          44.018  -1.227  30.191  0.00  0.00    -0.355 N 
ATOM     12  C4  MOL d          44.184  -1.681  29.003  0.00  0.00     0.043 A 
ATOM     13  H8  MOL d          44.440  -0.382  30.603  0.00  0.00     0.166 HD
ATOM     14  C3  MOL d          44.958  -1.182  28.007  0.00  0.00    -0.055 A 
ATOM     15  C5  MOL d          43.454  -2.795  28.896  0.00  0.00    -0.006 A 
ATOM     16  C2  MOL d          44.970  -1.896  26.810  0.00  0.00    -0.067 A 
ATOM     17  H2  MOL d          45.537  -0.275  28.136  0.00  0.00     0.087 H 
ATOM     18  C1  MOL d          44.209  -3.100  26.618  0.00  0.00     0.008 A 
ATOM     19  H1  MOL d          45.577  -1.529  25.991  0.00  0.00     0.085 H 
ATOM     20  C6  MOL d          43.426  -3.550  27.718  0.00  0.00    -0.057 A 
ATOM     21  H3  MOL d          42.826  -4.450  27.646  0.00  0.00     0.086 H 
ATOM     22  CN4 MOL d          42.801  -3.073  30.018  0.00  0.00    -0.044 A 
ATOM     23  H9  MOL d          42.129  -3.897  30.255  0.00  0.00     0.088 H 
BRANCH  18  24
ATOM     24  C7  MOL d          44.275  -3.779  25.387  0.00  0.00     0.102 C 
ATOM     25  N2  MOL d          44.266  -5.098  25.366  0.00  0.00    -0.385 N 
ATOM     26  H6  MOL d          44.208  -5.626  26.248  0.00  0.00     0.157 HD
ATOM     27  H7  MOL d          44.316  -5.599  24.467  0.00  0.00     0.157 HD
BRANCH  24  28
ATOM     28  N1  MOL d          44.349  -3.110  24.259  0.00  0.00    -0.385 N 
ATOM     29  H4  MOL d          43.582  -2.480  23.983  0.00  0.00     0.157 HD
ATOM     30  H5  MOL d          45.174  -3.215  23.651  0.00  0.00     0.157 HD
ENDBRANCH  24  28
ENDBRANCH  18  24
ENDBRANCH   1  10
BRANCH   6  31
ATOM     31  O6' MOL d          43.488  -4.069  32.694  0.00  0.00    -0.359 OA
ATOM     32  H13 MOL d          44.353  -4.109  33.084  0.00  0.00     0.217 HD
ENDBRANCH   6  31
BRANCH   5  33
ATOM     33  C1' MOL d          42.601  -3.716  35.358  0.00  0.00    -0.023 A 
ATOM     34  C2' MOL d          42.432  -5.072  35.115  0.00  0.00    -0.072 A 
ATOM     35  C3' MOL d          42.575  -6.022  36.104  0.00  0.00    -0.082 A 
ATOM     36  H14 MOL d          42.179  -5.395  34.112  0.00  0.00     0.084 H 
ATOM     37  C4' MOL d          42.901  -5.653  37.384  0.00  0.00    -0.083 A 
ATOM     38  H15 MOL d          42.429  -7.070  35.867  0.00  0.00     0.083 H 
ATOM     39  C5' MOL d          43.087  -4.310  37.688  0.00  0.00    -0.082 A 
ATOM     40  H16 MOL d          43.013  -6.405  38.156  0.00  0.00     0.083 H 
ATOM     41  C6' MOL d          42.938  -3.361  36.679  0.00  0.00    -0.072 A 
ATOM     42  H17 MOL d          43.344  -4.005  38.696  0.00  0.00     0.083 H 
ATOM     43  H18 MOL d          43.086  -2.314  36.919  0.00  0.00     0.084 H 
ENDBRANCH   5  33
TORSDOF 5
ENDMDL
