MODEL 1
REMARK VINA RESULT:     -10.4      0.000      0.000
REMARK  3 active torsions:
REMARK  status: ('A' for Active; 'I' for Inactive)
REMARK    1  A    between atoms: C14_16  and  N2_2 
REMARK    2  A    between atoms: C8_10  and  C18_20 
REMARK    3  A    between atoms: C18_20  and  C10_12 
ROOT
ATOM      1  N1  HUX d           5.588  69.771  65.219  0.00  0.00    -0.252 NA
ATOM      2  C1  HUX d           6.218  70.783  68.736  0.00  0.00     0.036 A 
ATOM      3  C2  HUX d           6.412  70.500  67.292  0.00  0.00    -0.033 A 
ATOM      4  C3  HUX d           5.289  70.054  66.620  0.00  0.00     0.071 A 
ATOM      5  C4  HUX d           4.580  69.287  64.464  0.00  0.00     0.044 A 
ATOM      6  C5  HUX d           5.023  68.982  62.932  0.00  0.00    -0.018 C 
ATOM      7  C6  HUX d           4.082  67.977  62.245  0.00  0.00    -0.032 C 
ATOM      8  C7  HUX d           4.098  66.465  62.961  0.00  0.00    -0.096 C 
ATOM      9  C8  HUX d           3.257  66.007  63.890  0.00  0.00    -0.083 C 
ATOM     10  C9  HUX d           2.161  66.953  64.325  0.00  0.00    -0.037 C 
ATOM     11  C11 HUX d           2.255  68.415  63.908  0.00  0.00    -0.020 C 
ATOM     12  C12 HUX d           2.656  68.475  62.370  0.00  0.00    -0.051 C 
ATOM     13  C13 HUX d           3.284  69.020  64.869  0.00  0.00    -0.002 A 
ATOM     14  C14 HUX d           2.981  69.335  66.308  0.00  0.00     0.047 A 
ATOM     15  C15 HUX d           4.027  69.839  67.119  0.00  0.00     0.019 A 
ATOM     16  C16 HUX d           3.788  70.149  68.575  0.00  0.00    -0.067 A 
ATOM     17  C17 HUX d           4.835  70.584  69.299  0.00  0.00    -0.061 A 
ATOM     18 CL1  HUX d           7.450  71.264  69.746  0.00  0.00    -0.084 Cl
ATOM     19  H3  HUX d           7.368  70.633  66.798  0.00  0.00     0.089 H 
ATOM     20  H4  HUX d           6.043  68.568  62.933  0.00  0.00     0.043 H 
ATOM     21  H5  HUX d           5.010  69.924  62.364  0.00  0.00     0.043 H 
ATOM     22  H6  HUX d           4.367  67.887  61.187  0.00  0.00     0.046 H 
ATOM     23  H7  HUX d           4.879  65.781  62.632  0.00  0.00     0.077 H 
ATOM     24  H8  HUX d           2.130  66.931  65.424  0.00  0.00     0.040 H 
ATOM     25  H9  HUX d           1.215  66.561  63.922  0.00  0.00     0.040 H 
ATOM     26  H13 HUX d           1.287  68.922  64.040  0.00  0.00     0.048 H 
ATOM     27  H14 HUX d           1.984  67.833  61.781  0.00  0.00     0.035 H 
ATOM     28  H15 HUX d           2.588  69.510  62.005  0.00  0.00     0.035 H 
ATOM     29  H16 HUX d           2.808  70.027  69.022  0.00  0.00     0.085 H 
ATOM     30  H17 HUX d           4.675  70.803  70.349  0.00  0.00     0.086 H 
ENDROOT
BRANCH   9  31
ATOM     31  C18 HUX d           3.473  64.547  64.453  0.00  0.00    -0.048 C 
ATOM     32  H18 HUX d           2.638  63.938  64.076  0.00  0.00     0.039 H 
ATOM     33  H19 HUX d           3.409  64.620  65.549  0.00  0.00     0.039 H 
BRANCH  31  34
ATOM     34  C10 HUX d           4.768  63.766  64.136  0.00  0.00    -0.073 C 
ATOM     35  H10 HUX d           4.808  63.543  63.059  0.00  0.00     0.028 H 
ATOM     36  H11 HUX d           4.777  62.825  64.706  0.00  0.00     0.028 H 
ATOM     37  H12 HUX d           5.641  64.373  64.417  0.00  0.00     0.028 H 
ENDBRANCH  31  34
ENDBRANCH   9  31
BRANCH  14  38
ATOM     38  N2  HUX d           1.698  69.074  66.754  0.00  0.00    -0.398 N 
ATOM     39  H1  HUX d           0.964  68.811  66.082  0.00  0.00     0.156 HD
ATOM     40  H2  HUX d           1.477  69.144  67.758  0.00  0.00     0.156 HD
ENDBRANCH  14  38
TORSDOF 3
ENDMDL
