MODEL 1
REMARK VINA RESULT:     -11.9      0.000      0.000
REMARK  9 active torsions:
REMARK  status: ('A' for Active; 'I' for Inactive)
REMARK    1  A    between atoms: C16_2  and  C17_3 
REMARK       I    between atoms: C16_2  and  N7_10 
REMARK    2  A    between atoms: C40_7  and  C44_8 
REMARK    3  A    between atoms: C8_14  and  C18_30 
REMARK    4  A    between atoms: C14_20  and  C37_21 
REMARK    5  A    between atoms: C14_20  and  C38_22 
REMARK    6  A    between atoms: C6_27  and  O36_28 
REMARK    7  A    between atoms: C21_34  and  O24_37 
REMARK    8  A    between atoms: O24_37  and  C25_38 
REMARK    9  A    between atoms: C25_38  and  C26_39 
ROOT
ATOM      1  O35 XNC d          26.953   6.650  40.136  0.00  0.00    -0.265 OA
ATOM      2  C16 XNC d          27.988   6.249  39.628  0.00  0.00     0.278 C 
ATOM      3  N7  XNC d          28.271   6.456  38.267  0.00  0.00    -0.296 N 
ATOM      4  C4  XNC d          29.576   6.381  37.709  0.00  0.00     0.068 A 
ATOM      5  C3  XNC d          30.598   7.223  38.173  0.00  0.00    -0.054 A 
ATOM      6  C2  XNC d          31.867   7.180  37.613  0.00  0.00    -0.078 A 
ATOM      7  C8  XNC d          27.161   6.763  37.340  0.00  0.00     0.086 C 
ATOM      8  C9  XNC d          26.705   5.486  36.683  0.00  0.00     0.087 C 
ATOM      9  S12 XNC d          25.000   5.345  36.660  0.00  0.00     0.176 S 
ATOM     10  O32 XNC d          24.462   6.521  35.980  0.00  0.00    -0.223 OA
ATOM     11  O33 XNC d          24.455   5.324  37.997  0.00  0.00    -0.223 OA
ATOM     12  C13 XNC d          24.582   3.808  35.814  0.00  0.00     0.040 C 
ATOM     13  C14 XNC d          25.598   3.426  34.742  0.00  0.00    -0.029 C 
ATOM     14  C15 XNC d          26.951   3.292  35.481  0.00  0.00    -0.018 C 
ATOM     15  C10 XNC d          27.513   4.532  36.162  0.00  0.00     0.030 C 
ATOM     16  N11 XNC d          28.901   4.573  36.155  0.00  0.00    -0.354 N 
ATOM     17  C5  XNC d          29.842   5.477  36.674  0.00  0.00     0.093 A 
ATOM     18  C6  XNC d          31.118   5.428  36.142  0.00  0.00     0.094 A 
ATOM     19  C1  XNC d          32.114   6.277  36.609  0.00  0.00    -0.049 A 
ATOM     20  H7  XNC d          30.393   7.916  38.981  0.00  0.00     0.087 H 
ATOM     21  H8  XNC d          32.647   7.847  37.961  0.00  0.00     0.083 H 
ATOM     22  H9  XNC d          26.308   7.155  37.913  0.00  0.00     0.090 H 
ATOM     23  H10 XNC d          23.597   3.926  35.338  0.00  0.00     0.057 H 
ATOM     24  H11 XNC d          24.535   2.999  36.558  0.00  0.00     0.057 H 
ATOM     25  H18 XNC d          27.695   2.957  34.743  0.00  0.00     0.043 H 
ATOM     26  H19 XNC d          26.828   2.520  36.254  0.00  0.00     0.043 H 
ATOM     27  H20 XNC d          29.329   3.773  35.667  0.00  0.00     0.166 HD
ATOM     28  H22 XNC d          33.106   6.224  36.174  0.00  0.00     0.087 H 
ENDROOT
BRANCH   7  29
ATOM     29  C18 XNC d          27.658   7.894  36.409  0.00  0.00     0.009 A 
ATOM     30  C23 XNC d          27.931   9.141  36.955  0.00  0.00     0.127 A 
ATOM     31  F34 XNC d          27.751   9.314  38.262  0.00  0.00    -0.205 F 
ATOM     32  C22 XNC d          28.369  10.197  36.153  0.00  0.00    -0.013 A 
ATOM     33  C21 XNC d          28.541  10.004  34.781  0.00  0.00     0.072 A 
ATOM     34  H23 XNC d          28.575  11.166  36.594  0.00  0.00     0.092 H 
ATOM     35  C20 XNC d          28.269   8.743  34.231  0.00  0.00    -0.050 A 
ATOM     36  C19 XNC d          27.825   7.703  35.038  0.00  0.00    -0.069 A 
ATOM     37  H24 XNC d          28.407   8.580  33.168  0.00  0.00     0.087 H 
ATOM     38  H25 XNC d          27.607   6.736  34.599  0.00  0.00     0.084 H 
BRANCH  33  39
ATOM     39  O24 XNC d          28.993  11.054  34.024  0.00  0.00    -0.347 OA
BRANCH  39  40
ATOM     40  C25 XNC d          29.410  10.910  32.648  0.00  0.00     0.050 C 
ATOM     41  H26 XNC d          29.973   9.971  32.537  0.00  0.00     0.082 H 
ATOM     42  H27 XNC d          30.053  11.758  32.374  0.00  0.00     0.082 H 
BRANCH  40  43
ATOM     43  C26 XNC d          28.197  10.881  31.728  0.00  0.00    -0.034 A 
ATOM     44  C31 XNC d          28.174  10.022  30.645  0.00  0.00    -0.075 A 
ATOM     45  C30 XNC d          27.061   9.954  29.815  0.00  0.00    -0.082 A 
ATOM     46  H28 XNC d          29.034   9.394  30.440  0.00  0.00     0.084 H 
ATOM     47  C29 XNC d          25.964  10.766  30.062  0.00  0.00    -0.083 A 
ATOM     48  H29 XNC d          27.051   9.268  28.976  0.00  0.00     0.083 H 
ATOM     49  C28 XNC d          25.983  11.644  31.158  0.00  0.00    -0.082 A 
ATOM     50  H30 XNC d          25.097  10.724  29.413  0.00  0.00     0.083 H 
ATOM     51  C27 XNC d          27.093  11.695  31.992  0.00  0.00    -0.075 A 
ATOM     52  H31 XNC d          25.130  12.284  31.354  0.00  0.00     0.083 H 
ATOM     53  H32 XNC d          27.102  12.365  32.844  0.00  0.00     0.084 H 
ENDBRANCH  40  43
ENDBRANCH  39  40
ENDBRANCH  33  39
ENDBRANCH   7  29
BRANCH   2  54
ATOM     54  C17 XNC d          28.954   5.544  40.509  0.00  0.00     0.125 A 
ATOM     55  C43 XNC d          29.065   4.163  40.487  0.00  0.00    -0.050 A 
ATOM     56  C42 XNC d          29.987   3.558  41.337  0.00  0.00    -0.079 A 
ATOM     57  H1  XNC d          28.448   3.567  39.824  0.00  0.00     0.087 H 
ATOM     58  C41 XNC d          30.804   4.343  42.172  0.00  0.00    -0.059 A 
ATOM     59  H2  XNC d          30.076   2.478  41.356  0.00  0.00     0.083 H 
ATOM     60  C40 XNC d          30.708   5.725  42.166  0.00  0.00     0.031 A 
ATOM     61  H3  XNC d          31.519   3.859  42.828  0.00  0.00     0.086 H 
ATOM     62  N39 XNC d          29.774   6.312  41.337  0.00  0.00    -0.248 NA
BRANCH  60  63
ATOM     63  C44 XNC d          31.555   6.594  43.056  0.00  0.00    -0.035 C 
ATOM     64  H4  XNC d          32.523   6.785  42.569  0.00  0.00     0.035 H 
ATOM     65  H5  XNC d          31.723   6.083  44.015  0.00  0.00     0.035 H 
ATOM     66  H6  XNC d          31.040   7.550  43.235  0.00  0.00     0.035 H 
ENDBRANCH  60  63
ENDBRANCH   2  54
BRANCH  18  67
ATOM     67  O36 XNC d          31.429   4.563  35.135  0.00  0.00    -0.358 OA
ATOM     68  H21 XNC d          32.335   4.690  34.879  0.00  0.00     0.217 HD
ENDBRANCH  18  67
BRANCH  13  69
ATOM     69  C37 XNC d          25.195   2.054  34.146  0.00  0.00    -0.068 C 
ATOM     70  H12 XNC d          25.743   1.254  34.665  0.00  0.00     0.028 H 
ATOM     71  H13 XNC d          25.442   2.033  33.075  0.00  0.00     0.028 H 
ATOM     72  H14 XNC d          24.113   1.901  34.276  0.00  0.00     0.028 H 
ENDBRANCH  13  69
BRANCH  13  73
ATOM     73  C38 XNC d          25.682   4.491  33.614  0.00  0.00    -0.068 C 
ATOM     74  H15 XNC d          24.688   4.935  33.455  0.00  0.00     0.028 H 
ATOM     75  H16 XNC d          26.023   4.014  32.684  0.00  0.00     0.028 H 
ATOM     76  H17 XNC d          26.393   5.277  33.905  0.00  0.00     0.028 H 
ENDBRANCH  13  73
TORSDOF 9
ENDMDL
MODEL 2
REMARK VINA RESULT:      -9.0      2.642      7.293
REMARK  9 active torsions:
REMARK  status: ('A' for Active; 'I' for Inactive)
REMARK    1  A    between atoms: C16_2  and  C17_3 
REMARK       I    between atoms: C16_2  and  N7_10 
REMARK    2  A    between atoms: C40_7  and  C44_8 
REMARK    3  A    between atoms: C8_14  and  C18_30 
REMARK    4  A    between atoms: C14_20  and  C37_21 
REMARK    5  A    between atoms: C14_20  and  C38_22 
REMARK    6  A    between atoms: C6_27  and  O36_28 
REMARK    7  A    between atoms: C21_34  and  O24_37 
REMARK    8  A    between atoms: O24_37  and  C25_38 
REMARK    9  A    between atoms: C25_38  and  C26_39 
ROOT
ATOM      1  O35 XNC d          29.857   5.263  33.249  0.00  0.00    -0.265 OA
ATOM      2  C16 XNC d          29.216   6.005  33.976  0.00  0.00     0.278 C 
ATOM      3  N7  XNC d          29.070   5.747  35.350  0.00  0.00    -0.296 N 
ATOM      4  C4  XNC d          28.693   6.731  36.305  0.00  0.00     0.068 A 
ATOM      5  C3  XNC d          29.472   7.885  36.481  0.00  0.00    -0.054 A 
ATOM      6  C2  XNC d          29.131   8.836  37.433  0.00  0.00    -0.078 A 
ATOM      7  C8  XNC d          29.307   4.378  35.855  0.00  0.00     0.086 C 
ATOM      8  C9  XNC d          27.989   3.653  35.944  0.00  0.00     0.087 C 
ATOM      9  S12 XNC d          28.080   2.069  35.307  0.00  0.00     0.176 S 
ATOM     10  O32 XNC d          29.134   1.356  36.026  0.00  0.00    -0.223 OA
ATOM     11  O33 XNC d          28.435   2.081  33.908  0.00  0.00    -0.223 OA
ATOM     12  C13 XNC d          26.463   1.295  35.511  0.00  0.00     0.040 C 
ATOM     13  C14 XNC d          25.715   1.802  36.740  0.00  0.00    -0.029 C 
ATOM     14  C15 XNC d          25.568   3.329  36.537  0.00  0.00    -0.018 C 
ATOM     15  C10 XNC d          26.841   4.159  36.455  0.00  0.00     0.030 C 
ATOM     16  N11 XNC d          26.690   5.436  36.978  0.00  0.00    -0.354 N 
ATOM     17  C5  XNC d          27.552   6.540  37.092  0.00  0.00     0.093 A 
ATOM     18  C6  XNC d          27.211   7.508  38.019  0.00  0.00     0.094 A 
ATOM     19  C1  XNC d          28.000   8.641  38.185  0.00  0.00    -0.049 A 
ATOM     20  H7  XNC d          30.351   8.036  35.865  0.00  0.00     0.087 H 
ATOM     21  H8  XNC d          29.747   9.716  37.579  0.00  0.00     0.083 H 
ATOM     22  H9  XNC d          29.931   3.829  35.134  0.00  0.00     0.090 H 
ATOM     23  H10 XNC d          26.603   0.208  35.609  0.00  0.00     0.057 H 
ATOM     24  H11 XNC d          25.856   1.508  34.618  0.00  0.00     0.057 H 
ATOM     25  H18 XNC d          24.977   3.716  37.380  0.00  0.00     0.043 H 
ATOM     26  H19 XNC d          25.014   3.484  35.600  0.00  0.00     0.043 H 
ATOM     27  H20 XNC d          25.751   5.612  37.362  0.00  0.00     0.166 HD
ATOM     28  H22 XNC d          27.716   9.384  38.922  0.00  0.00     0.087 H 
ENDROOT
BRANCH   7  29
ATOM     29  C18 XNC d          30.121   4.521  37.163  0.00  0.00     0.009 A 
ATOM     30  C23 XNC d          31.435   4.963  37.091  0.00  0.00     0.127 A 
ATOM     31  F34 XNC d          31.944   5.245  35.894  0.00  0.00    -0.205 F 
ATOM     32  C22 XNC d          32.213   5.095  38.243  0.00  0.00    -0.013 A 
ATOM     33  C21 XNC d          31.669   4.783  39.490  0.00  0.00     0.072 A 
ATOM     34  H23 XNC d          33.239   5.439  38.169  0.00  0.00     0.092 H 
ATOM     35  C20 XNC d          30.341   4.341  39.563  0.00  0.00    -0.050 A 
ATOM     36  C19 XNC d          29.579   4.205  38.408  0.00  0.00    -0.069 A 
ATOM     37  H24 XNC d          29.906   4.103  40.527  0.00  0.00     0.087 H 
ATOM     38  H25 XNC d          28.557   3.850  38.476  0.00  0.00     0.084 H 
BRANCH  33  39
ATOM     39  O24 XNC d          32.453   4.943  40.604  0.00  0.00    -0.347 OA
BRANCH  39  40
ATOM     40  C25 XNC d          33.108   6.188  40.932  0.00  0.00     0.050 C 
ATOM     41  H26 XNC d          33.865   6.412  40.167  0.00  0.00     0.082 H 
ATOM     42  H27 XNC d          33.595   6.094  41.913  0.00  0.00     0.082 H 
BRANCH  40  43
ATOM     43  C26 XNC d          32.094   7.323  40.982  0.00  0.00    -0.034 A 
ATOM     44  C31 XNC d          31.067   7.289  41.907  0.00  0.00    -0.075 A 
ATOM     45  C30 XNC d          30.153   8.333  41.993  0.00  0.00    -0.082 A 
ATOM     46  H28 XNC d          30.973   6.439  42.574  0.00  0.00     0.084 H 
ATOM     47  C29 XNC d          30.258   9.416  41.133  0.00  0.00    -0.083 A 
ATOM     48  H29 XNC d          29.360   8.300  42.731  0.00  0.00     0.083 H 
ATOM     49  C28 XNC d          31.295   9.454  40.187  0.00  0.00    -0.082 A 
ATOM     50  H30 XNC d          29.542  10.229  41.190  0.00  0.00     0.083 H 
ATOM     51  C27 XNC d          32.214   8.414  40.117  0.00  0.00    -0.075 A 
ATOM     52  H31 XNC d          31.380  10.296  39.510  0.00  0.00     0.083 H 
ATOM     53  H32 XNC d          33.021   8.450  39.395  0.00  0.00     0.084 H 
ENDBRANCH  40  43
ENDBRANCH  39  40
ENDBRANCH  33  39
ENDBRANCH   7  29
BRANCH   2  54
ATOM     54  C17 XNC d          28.602   7.208  33.357  0.00  0.00     0.125 A 
ATOM     55  C43 XNC d          27.323   7.165  32.827  0.00  0.00    -0.050 A 
ATOM     56  C42 XNC d          26.802   8.325  32.257  0.00  0.00    -0.079 A 
ATOM     57  H1  XNC d          26.741   6.252  32.854  0.00  0.00     0.087 H 
ATOM     58  C41 XNC d          27.555   9.513  32.254  0.00  0.00    -0.059 A 
ATOM     59  H2  XNC d          25.813   8.311  31.815  0.00  0.00     0.083 H 
ATOM     60  C40 XNC d          28.823   9.555  32.812  0.00  0.00     0.031 A 
ATOM     61  H3  XNC d          27.137  10.408  31.808  0.00  0.00     0.086 H 
ATOM     62  N39 XNC d          29.337   8.394  33.353  0.00  0.00    -0.248 NA
BRANCH  60  63
ATOM     63  C44 XNC d          29.660  10.805  32.813  0.00  0.00    -0.035 C 
ATOM     64  H4  XNC d          29.064  11.645  33.197  0.00  0.00     0.035 H 
ATOM     65  H5  XNC d          29.988  11.027  31.787  0.00  0.00     0.035 H 
ATOM     66  H6  XNC d          30.541  10.657  33.455  0.00  0.00     0.035 H 
ENDBRANCH  60  63
ENDBRANCH   2  54
BRANCH  18  67
ATOM     67  O36 XNC d          26.107   7.372  38.808  0.00  0.00    -0.358 OA
ATOM     68  H21 XNC d          26.128   6.525  39.236  0.00  0.00     0.217 HD
ENDBRANCH  18  67
BRANCH  13  69
ATOM     69  C37 XNC d          24.312   1.146  36.769  0.00  0.00    -0.068 C 
ATOM     70  H12 XNC d          24.391   0.097  36.449  0.00  0.00     0.028 H 
ATOM     71  H13 XNC d          23.640   1.687  36.086  0.00  0.00     0.028 H 
ATOM     72  H14 XNC d          23.907   1.189  37.791  0.00  0.00     0.028 H 
ENDBRANCH  13  69
BRANCH  13  73
ATOM     73  C38 XNC d          26.476   1.485  38.056  0.00  0.00    -0.068 C 
ATOM     74  H15 XNC d          25.933   0.709  38.616  0.00  0.00     0.028 H 
ATOM     75  H16 XNC d          26.546   2.396  38.668  0.00  0.00     0.028 H 
ATOM     76  H17 XNC d          27.487   1.125  37.817  0.00  0.00     0.028 H 
ENDBRANCH  13  73
TORSDOF 9
ENDMDL
