MODEL 1
REMARK VINA RESULT:      -4.5      0.000      0.000
REMARK  8 active torsions:
REMARK  status: ('A' for Active; 'I' for Inactive)
REMARK    1  A    between atoms: C5'_1  and  C4'_2 
REMARK    2  A    between atoms: C4'_2  and  O2'_3 
REMARK    3  A    between atoms: O2'_3  and  C3'_4 
REMARK    4  A    between atoms: C3'_4  and  C2'_6 
REMARK    5  A    between atoms: C2'_6  and  C1'_7 
REMARK    6  A    between atoms: C1'_7  and  C1_8 
REMARK    7  A    between atoms: C4_12  and  O4_13 
REMARK    8  A    between atoms: C3_14  and  O3_15 
ROOT
ATOM      1  C1' MOL d           6.891 -16.465 116.665  0.00  0.00    -0.067 C 
ATOM      2  H7  MOL d           6.975 -15.494 117.150  0.00  0.00     0.085 H 
ENDROOT
BRANCH   1   3
ATOM      3  C2' MOL d           6.924 -17.799 117.410  0.00  0.00    -0.010 C 
ATOM      4  H6  MOL d           6.099 -18.509 117.448  0.00  0.00     0.092 H 
BRANCH   3   5
ATOM      5  C3' MOL d           8.277 -17.998 118.095  0.00  0.00     0.282 C 
ATOM      6  O1' MOL d           8.345 -18.336 119.277  0.00  0.00    -0.260 OA
BRANCH   5   7
ATOM      7  O2' MOL d           9.406 -17.807 117.362  0.00  0.00    -0.319 OA
BRANCH   7   8
ATOM      8  C4' MOL d           9.665 -18.920 116.499  0.00  0.00     0.026 C 
ATOM      9  H4  MOL d          10.461 -19.546 116.927  0.00  0.00     0.074 H 
ATOM     10  H5  MOL d           8.751 -19.521 116.380  0.00  0.00     0.074 H 
BRANCH   8  11
ATOM     11  C5' MOL d          10.108 -18.371 115.139  0.00  0.00    -0.056 C 
ATOM     12  H1  MOL d          11.184 -18.145 115.169  0.00  0.00     0.030 H 
ATOM     13  H2  MOL d           9.546 -17.452 114.915  0.00  0.00     0.030 H 
ATOM     14  H3  MOL d           9.911 -19.121 114.359  0.00  0.00     0.030 H 
ENDBRANCH   8  11
ENDBRANCH   7   8
ENDBRANCH   5   7
ENDBRANCH   3   5
ENDBRANCH   1   3
BRANCH   1  15
ATOM     15  C1  MOL d           6.726 -16.658 115.158  0.00  0.00    -0.033 A 
ATOM     16  C2  MOL d           6.449 -17.905 114.610  0.00  0.00    -0.038 A 
ATOM     17  C3  MOL d           6.224 -18.029 113.241  0.00  0.00     0.099 A 
ATOM     18  H8  MOL d           6.408 -18.782 115.247  0.00  0.00     0.089 H 
ATOM     19  C4  MOL d           6.282 -16.906 112.423  0.00  0.00     0.098 A 
ATOM     20  C5  MOL d           6.566 -15.659 112.969  0.00  0.00    -0.047 A 
ATOM     21  C6  MOL d           6.789 -15.538 114.338  0.00  0.00    -0.070 A 
ATOM     22  H10 MOL d           6.615 -14.785 112.331  0.00  0.00     0.087 H 
ATOM     23  H9  MOL d           7.011 -14.566 114.765  0.00  0.00     0.084 H 
BRANCH  17  24
ATOM     24  O3  MOL d           5.926 -19.236 112.690  0.00  0.00    -0.358 OA
ATOM     25  H12 MOL d           6.342 -19.305 111.838  0.00  0.00     0.217 HD
ENDBRANCH  17  24
BRANCH  19  26
ATOM     26  O4  MOL d           6.065 -17.028 111.087  0.00  0.00    -0.358 OA
ATOM     27  H11 MOL d           6.831 -17.413 110.677  0.00  0.00     0.217 HD
ENDBRANCH  19  26
ENDBRANCH   1  15
TORSDOF 8
ENDMDL
MODEL 2
REMARK VINA RESULT:      -4.4      1.239      1.595
REMARK  8 active torsions:
REMARK  status: ('A' for Active; 'I' for Inactive)
REMARK    1  A    between atoms: C5'_1  and  C4'_2 
REMARK    2  A    between atoms: C4'_2  and  O2'_3 
REMARK    3  A    between atoms: O2'_3  and  C3'_4 
REMARK    4  A    between atoms: C3'_4  and  C2'_6 
REMARK    5  A    between atoms: C2'_6  and  C1'_7 
REMARK    6  A    between atoms: C1'_7  and  C1_8 
REMARK    7  A    between atoms: C4_12  and  O4_13 
REMARK    8  A    between atoms: C3_14  and  O3_15 
ROOT
ATOM      1  C1' MOL d           6.987 -16.515 116.741  0.00  0.00    -0.067 C 
ATOM      2  H7  MOL d           7.165 -15.559 117.230  0.00  0.00     0.085 H 
ENDROOT
BRANCH   1   3
ATOM      3  C2' MOL d           6.913 -17.852 117.477  0.00  0.00    -0.010 C 
ATOM      4  H6  MOL d           6.340 -18.715 117.141  0.00  0.00     0.092 H 
BRANCH   3   5
ATOM      5  C3' MOL d           7.756 -17.809 118.753  0.00  0.00     0.282 C 
ATOM      6  O1' MOL d           7.406 -17.136 119.722  0.00  0.00    -0.260 OA
BRANCH   5   7
ATOM      7  O2' MOL d           8.896 -18.549 118.798  0.00  0.00    -0.319 OA
BRANCH   7   8
ATOM      8  C4' MOL d           8.666 -19.894 118.363  0.00  0.00     0.026 C 
ATOM      9  H4  MOL d           7.610 -20.020 118.082  0.00  0.00     0.074 H 
ATOM     10  H5  MOL d           9.305 -20.121 117.498  0.00  0.00     0.074 H 
BRANCH   8  11
ATOM     11  C5' MOL d           9.010 -20.831 119.525  0.00  0.00    -0.056 C 
ATOM     12  H1  MOL d           9.227 -21.836 119.134  0.00  0.00     0.030 H 
ATOM     13  H2  MOL d           8.158 -20.884 120.219  0.00  0.00     0.030 H 
ATOM     14  H3  MOL d           9.893 -20.447 120.058  0.00  0.00     0.030 H 
ENDBRANCH   8  11
ENDBRANCH   7   8
ENDBRANCH   5   7
ENDBRANCH   3   5
ENDBRANCH   1   3
BRANCH   1  15
ATOM     15  C1  MOL d           6.782 -16.680 115.236  0.00  0.00    -0.033 A 
ATOM     16  C2  MOL d           6.514 -17.922 114.670  0.00  0.00    -0.038 A 
ATOM     17  C3  MOL d           6.250 -18.022 113.307  0.00  0.00     0.099 A 
ATOM     18  H8  MOL d           6.510 -18.811 115.291  0.00  0.00     0.089 H 
ATOM     19  C4  MOL d           6.262 -16.882 112.511  0.00  0.00     0.098 A 
ATOM     20  C5  MOL d           6.537 -15.641 113.074  0.00  0.00    -0.047 A 
ATOM     21  C6  MOL d           6.797 -15.543 114.438  0.00  0.00    -0.070 A 
ATOM     22  H10 MOL d           6.549 -14.753 112.453  0.00  0.00     0.087 H 
ATOM     23  H9  MOL d           7.013 -14.576 114.879  0.00  0.00     0.084 H 
BRANCH  17  24
ATOM     24  O3  MOL d           5.960 -19.224 112.740  0.00  0.00    -0.358 OA
ATOM     25  H12 MOL d           6.696 -19.509 112.211  0.00  0.00     0.217 HD
ENDBRANCH  17  24
BRANCH  19  26
ATOM     26  O4  MOL d           6.007 -16.982 111.179  0.00  0.00    -0.358 OA
ATOM     27  H11 MOL d           5.319 -16.370 110.943  0.00  0.00     0.217 HD
ENDBRANCH  19  26
ENDBRANCH   1  15
TORSDOF 8
ENDMDL
MODEL 3
REMARK VINA RESULT:      -4.2      1.457      4.802
REMARK  8 active torsions:
REMARK  status: ('A' for Active; 'I' for Inactive)
REMARK    1  A    between atoms: C5'_1  and  C4'_2 
REMARK    2  A    between atoms: C4'_2  and  O2'_3 
REMARK    3  A    between atoms: O2'_3  and  C3'_4 
REMARK    4  A    between atoms: C3'_4  and  C2'_6 
REMARK    5  A    between atoms: C2'_6  and  C1'_7 
REMARK    6  A    between atoms: C1'_7  and  C1_8 
REMARK    7  A    between atoms: C4_12  and  O4_13 
REMARK    8  A    between atoms: C3_14  and  O3_15 
ROOT
ATOM      1  C1' MOL d           5.271 -16.228 115.122  0.00  0.00    -0.067 C 
ATOM      2  H7  MOL d           4.217 -16.206 115.397  0.00  0.00     0.085 H 
ENDROOT
BRANCH   1   3
ATOM      3  C2' MOL d           5.803 -15.839 113.744  0.00  0.00    -0.010 C 
ATOM      4  H6  MOL d           6.026 -14.820 113.430  0.00  0.00     0.092 H 
BRANCH   3   5
ATOM      5  C3' MOL d           5.978 -17.080 112.866  0.00  0.00     0.282 C 
ATOM      6  O1' MOL d           5.003 -17.688 112.427  0.00  0.00    -0.260 OA
BRANCH   5   7
ATOM      7  O2' MOL d           7.241 -17.486 112.568  0.00  0.00    -0.319 OA
BRANCH   7   8
ATOM      8  C4' MOL d           8.204 -16.468 112.866  0.00  0.00     0.026 C 
ATOM      9  H4  MOL d           8.639 -16.080 111.933  0.00  0.00     0.074 H 
ATOM     10  H5  MOL d           7.720 -15.646 113.414  0.00  0.00     0.074 H 
BRANCH   8  11
ATOM     11  C5' MOL d           9.302 -17.095 113.731  0.00  0.00    -0.056 C 
ATOM     12  H1  MOL d           9.359 -16.564 114.693  0.00  0.00     0.030 H 
ATOM     13  H2  MOL d          10.268 -17.017 113.210  0.00  0.00     0.030 H 
ATOM     14  H3  MOL d           9.067 -18.155 113.910  0.00  0.00     0.030 H 
ENDBRANCH   8  11
ENDBRANCH   7   8
ENDBRANCH   5   7
ENDBRANCH   3   5
ENDBRANCH   1   3
BRANCH   1  15
ATOM     15  C1  MOL d           6.393 -16.653 116.068  0.00  0.00    -0.033 A 
ATOM     16  C2  MOL d           6.613 -17.989 116.383  0.00  0.00    -0.038 A 
ATOM     17  C3  MOL d           7.696 -18.346 117.182  0.00  0.00     0.099 A 
ATOM     18  H8  MOL d           5.942 -18.753 116.006  0.00  0.00     0.089 H 
ATOM     19  C4  MOL d           8.552 -17.366 117.670  0.00  0.00     0.098 A 
ATOM     20  C5  MOL d           8.329 -16.029 117.362  0.00  0.00    -0.047 A 
ATOM     21  C6  MOL d           7.248 -15.674 116.561  0.00  0.00    -0.070 A 
ATOM     22  H10 MOL d           8.995 -15.264 117.745  0.00  0.00     0.087 H 
ATOM     23  H9  MOL d           7.072 -14.632 116.320  0.00  0.00     0.084 H 
BRANCH  17  24
ATOM     24  O3  MOL d           7.942 -19.650 117.479  0.00  0.00    -0.358 OA
ATOM     25  H12 MOL d           7.259 -20.194 117.105  0.00  0.00     0.217 HD
ENDBRANCH  17  24
BRANCH  19  26
ATOM     26  O4  MOL d           9.607 -17.716 118.453  0.00  0.00    -0.358 OA
ATOM     27  H11 MOL d           9.934 -16.946 118.903  0.00  0.00     0.217 HD
ENDBRANCH  19  26
ENDBRANCH   1  15
TORSDOF 8
ENDMDL
MODEL 4
REMARK VINA RESULT:      -3.8      1.690      2.112
REMARK  8 active torsions:
REMARK  status: ('A' for Active; 'I' for Inactive)
REMARK    1  A    between atoms: C5'_1  and  C4'_2 
REMARK    2  A    between atoms: C4'_2  and  O2'_3 
REMARK    3  A    between atoms: O2'_3  and  C3'_4 
REMARK    4  A    between atoms: C3'_4  and  C2'_6 
REMARK    5  A    between atoms: C2'_6  and  C1'_7 
REMARK    6  A    between atoms: C1'_7  and  C1_8 
REMARK    7  A    between atoms: C4_12  and  O4_13 
REMARK    8  A    between atoms: C3_14  and  O3_15 
ROOT
ATOM      1  C1' MOL d           8.652 -15.560 115.595  0.00  0.00    -0.067 C 
ATOM      2  H7  MOL d           9.715 -15.609 115.363  0.00  0.00     0.085 H 
ENDROOT
BRANCH   1   3
ATOM      3  C2' MOL d           8.087 -15.002 116.900  0.00  0.00    -0.010 C 
ATOM      4  H6  MOL d           7.383 -14.174 116.968  0.00  0.00     0.092 H 
BRANCH   3   5
ATOM      5  C3' MOL d           8.648 -15.769 118.099  0.00  0.00     0.282 C 
ATOM      6  O1' MOL d           8.727 -15.241 119.209  0.00  0.00    -0.260 OA
BRANCH   5   7
ATOM      7  O2' MOL d           9.044 -17.056 117.915  0.00  0.00    -0.319 OA
BRANCH   7   8
ATOM      8  C4' MOL d           8.047 -17.981 118.364  0.00  0.00     0.026 C 
ATOM      9  H4  MOL d           8.489 -18.686 119.084  0.00  0.00     0.074 H 
ATOM     10  H5  MOL d           7.222 -17.435 118.845  0.00  0.00     0.074 H 
BRANCH   8  11
ATOM     11  C5' MOL d           7.525 -18.744 117.143  0.00  0.00    -0.056 C 
ATOM     12  H1  MOL d           8.041 -19.712 117.067  0.00  0.00     0.030 H 
ATOM     13  H2  MOL d           7.716 -18.154 116.233  0.00  0.00     0.030 H 
ATOM     14  H3  MOL d           6.443 -18.912 117.250  0.00  0.00     0.030 H 
ENDBRANCH   8  11
ENDBRANCH   7   8
ENDBRANCH   5   7
ENDBRANCH   3   5
ENDBRANCH   1   3
BRANCH   1  15
ATOM     15  C1  MOL d           7.549 -16.041 114.655  0.00  0.00    -0.033 A 
ATOM     16  C2  MOL d           7.820 -16.893 113.590  0.00  0.00    -0.038 A 
ATOM     17  C3  MOL d           6.777 -17.377 112.804  0.00  0.00     0.099 A 
ATOM     18  H8  MOL d           8.842 -17.180 113.372  0.00  0.00     0.089 H 
ATOM     19  C4  MOL d           5.467 -17.004 113.081  0.00  0.00     0.098 A 
ATOM     20  C5  MOL d           5.195 -16.146 114.141  0.00  0.00    -0.047 A 
ATOM     21  C6  MOL d           6.238 -15.666 114.927  0.00  0.00    -0.070 A 
ATOM     22  H10 MOL d           4.174 -15.853 114.355  0.00  0.00     0.087 H 
ATOM     23  H9  MOL d           6.028 -14.997 115.754  0.00  0.00     0.084 H 
BRANCH  17  24
ATOM     24  O3  MOL d           7.019 -18.232 111.775  0.00  0.00    -0.358 OA
ATOM     25  H12 MOL d           6.517 -17.961 111.015  0.00  0.00     0.217 HD
ENDBRANCH  17  24
BRANCH  19  26
ATOM     26  O4  MOL d           4.450 -17.475 112.312  0.00  0.00    -0.358 OA
ATOM     27  H11 MOL d           4.797 -18.077 111.664  0.00  0.00     0.217 HD
ENDBRANCH  19  26
ENDBRANCH   1  15
TORSDOF 8
ENDMDL
MODEL 5
REMARK VINA RESULT:      -3.8      1.907      2.868
REMARK  8 active torsions:
REMARK  status: ('A' for Active; 'I' for Inactive)
REMARK    1  A    between atoms: C5'_1  and  C4'_2 
REMARK    2  A    between atoms: C4'_2  and  O2'_3 
REMARK    3  A    between atoms: O2'_3  and  C3'_4 
REMARK    4  A    between atoms: C3'_4  and  C2'_6 
REMARK    5  A    between atoms: C2'_6  and  C1'_7 
REMARK    6  A    between atoms: C1'_7  and  C1_8 
REMARK    7  A    between atoms: C4_12  and  O4_13 
REMARK    8  A    between atoms: C3_14  and  O3_15 
ROOT
ATOM      1  C1' MOL d           8.196 -16.362 116.377  0.00  0.00    -0.067 C 
ATOM      2  H7  MOL d           9.233 -16.694 116.401  0.00  0.00     0.085 H 
ENDROOT
BRANCH   1   3
ATOM      3  C2' MOL d           7.523 -15.578 117.502  0.00  0.00    -0.010 C 
ATOM      4  H6  MOL d           7.221 -14.533 117.436  0.00  0.00     0.092 H 
BRANCH   3   5
ATOM      5  C3' MOL d           7.332 -16.464 118.734  0.00  0.00     0.282 C 
ATOM      6  O1' MOL d           7.375 -17.690 118.646  0.00  0.00    -0.260 OA
BRANCH   5   7
ATOM      7  O2' MOL d           7.131 -15.862 119.937  0.00  0.00    -0.319 OA
BRANCH   7   8
ATOM      8  C4' MOL d           8.023 -16.371 120.934  0.00  0.00     0.026 C 
ATOM      9  H4  MOL d           8.761 -17.041 120.468  0.00  0.00     0.074 H 
ATOM     10  H5  MOL d           8.545 -15.538 121.428  0.00  0.00     0.074 H 
BRANCH   8  11
ATOM     11  C5' MOL d           7.191 -17.147 121.961  0.00  0.00    -0.056 C 
ATOM     12  H1  MOL d           6.626 -17.940 121.449  0.00  0.00     0.030 H 
ATOM     13  H2  MOL d           6.492 -16.460 122.459  0.00  0.00     0.030 H 
ATOM     14  H3  MOL d           7.860 -17.597 122.709  0.00  0.00     0.030 H 
ENDBRANCH   8  11
ENDBRANCH   7   8
ENDBRANCH   5   7
ENDBRANCH   3   5
ENDBRANCH   1   3
BRANCH   1  15
ATOM     15  C1  MOL d           7.240 -16.626 115.215  0.00  0.00    -0.033 A 
ATOM     16  C2  MOL d           7.273 -17.820 114.502  0.00  0.00    -0.038 A 
ATOM     17  C3  MOL d           6.333 -18.059 113.503  0.00  0.00     0.099 A 
ATOM     18  H8  MOL d           8.030 -18.564 114.724  0.00  0.00     0.089 H 
ATOM     19  C4  MOL d           5.366 -17.103 113.215  0.00  0.00     0.098 A 
ATOM     20  C5  MOL d           5.337 -15.906 113.922  0.00  0.00    -0.047 A 
ATOM     21  C6  MOL d           6.276 -15.669 114.922  0.00  0.00    -0.070 A 
ATOM     22  H10 MOL d           4.585 -15.159 113.695  0.00  0.00     0.087 H 
ATOM     23  H9  MOL d           6.255 -14.737 115.474  0.00  0.00     0.084 H 
BRANCH  17  24
ATOM     24  O3  MOL d           6.332 -19.231 112.813  0.00  0.00    -0.358 OA
ATOM     25  H12 MOL d           6.646 -19.077 111.929  0.00  0.00     0.217 HD
ENDBRANCH  17  24
BRANCH  19  26
ATOM     26  O4  MOL d           4.450 -17.336 112.238  0.00  0.00    -0.358 OA
ATOM     27  H11 MOL d           3.699 -17.783 112.610  0.00  0.00     0.217 HD
ENDBRANCH  19  26
ENDBRANCH   1  15
TORSDOF 8
ENDMDL
MODEL 6
REMARK VINA RESULT:      -3.6      2.119      2.998
REMARK  8 active torsions:
REMARK  status: ('A' for Active; 'I' for Inactive)
REMARK    1  A    between atoms: C5'_1  and  C4'_2 
REMARK    2  A    between atoms: C4'_2  and  O2'_3 
REMARK    3  A    between atoms: O2'_3  and  C3'_4 
REMARK    4  A    between atoms: C3'_4  and  C2'_6 
REMARK    5  A    between atoms: C2'_6  and  C1'_7 
REMARK    6  A    between atoms: C1'_7  and  C1_8 
REMARK    7  A    between atoms: C4_12  and  O4_13 
REMARK    8  A    between atoms: C3_14  and  O3_15 
ROOT
ATOM      1  C1' MOL d           8.384 -18.616 116.393  0.00  0.00    -0.067 C 
ATOM      2  H7  MOL d           9.196 -19.181 115.938  0.00  0.00     0.085 H 
ENDROOT
BRANCH   1   3
ATOM      3  C2' MOL d           7.980 -18.731 117.862  0.00  0.00    -0.010 C 
ATOM      4  H6  MOL d           7.212 -18.127 118.343  0.00  0.00     0.092 H 
BRANCH   3   5
ATOM      5  C3' MOL d           8.807 -19.810 118.563  0.00  0.00     0.282 C 
ATOM      6  O1' MOL d           8.443 -20.986 118.565  0.00  0.00    -0.260 OA
BRANCH   5   7
ATOM      7  O2' MOL d           9.966 -19.442 119.172  0.00  0.00    -0.319 OA
BRANCH   7   8
ATOM      8  C4' MOL d          10.037 -19.946 120.510  0.00  0.00     0.026 C 
ATOM      9  H4  MOL d           9.643 -20.972 120.545  0.00  0.00     0.074 H 
ATOM     10  H5  MOL d          11.082 -19.943 120.855  0.00  0.00     0.074 H 
BRANCH   8  11
ATOM     11  C5' MOL d           9.191 -19.033 121.404  0.00  0.00    -0.056 C 
ATOM     12  H1  MOL d           8.287 -19.571 121.726  0.00  0.00     0.030 H 
ATOM     13  H2  MOL d           8.902 -18.134 120.840  0.00  0.00     0.030 H 
ATOM     14  H3  MOL d           9.777 -18.739 122.287  0.00  0.00     0.030 H 
ENDBRANCH   8  11
ENDBRANCH   7   8
ENDBRANCH   5   7
ENDBRANCH   3   5
ENDBRANCH   1   3
BRANCH   1  15
ATOM     15  C1  MOL d           7.511 -17.615 115.638  0.00  0.00    -0.033 A 
ATOM     16  C2  MOL d           7.803 -17.234 114.333  0.00  0.00    -0.038 A 
ATOM     17  C3  MOL d           6.939 -16.383 113.648  0.00  0.00     0.099 A 
ATOM     18  H8  MOL d           8.702 -17.599 113.849  0.00  0.00     0.089 H 
ATOM     19  C4  MOL d           5.790 -15.910 114.270  0.00  0.00     0.098 A 
ATOM     20  C5  MOL d           5.501 -16.284 115.578  0.00  0.00    -0.047 A 
ATOM     21  C6  MOL d           6.364 -17.137 116.261  0.00  0.00    -0.070 A 
ATOM     22  H10 MOL d           4.607 -15.913 116.065  0.00  0.00     0.087 H 
ATOM     23  H9  MOL d           6.141 -17.429 117.280  0.00  0.00     0.084 H 
BRANCH  17  24
ATOM     24  O3  MOL d           7.194 -16.020 112.362  0.00  0.00    -0.358 OA
ATOM     25  H12 MOL d           6.865 -16.690 111.774  0.00  0.00     0.217 HD
ENDBRANCH  17  24
BRANCH  19  26
ATOM     26  O4  MOL d           4.950 -15.077 113.602  0.00  0.00    -0.358 OA
ATOM     27  H11 MOL d           4.127 -15.523 113.439  0.00  0.00     0.217 HD
ENDBRANCH  19  26
ENDBRANCH   1  15
TORSDOF 8
ENDMDL
MODEL 7
REMARK VINA RESULT:      -3.4      2.046      5.940
REMARK  8 active torsions:
REMARK  status: ('A' for Active; 'I' for Inactive)
REMARK    1  A    between atoms: C5'_1  and  C4'_2 
REMARK    2  A    between atoms: C4'_2  and  O2'_3 
REMARK    3  A    between atoms: O2'_3  and  C3'_4 
REMARK    4  A    between atoms: C3'_4  and  C2'_6 
REMARK    5  A    between atoms: C2'_6  and  C1'_7 
REMARK    6  A    between atoms: C1'_7  and  C1_8 
REMARK    7  A    between atoms: C4_12  and  O4_13 
REMARK    8  A    between atoms: C3_14  and  O3_15 
ROOT
ATOM      1  C1' MOL d           6.836 -16.014 116.906  0.00  0.00    -0.067 C 
ATOM      2  H7  MOL d           6.938 -14.936 117.015  0.00  0.00     0.085 H 
ENDROOT
BRANCH   1   3
ATOM      3  C2' MOL d           6.015 -16.688 115.808  0.00  0.00    -0.010 C 
ATOM      4  H6  MOL d           5.493 -17.638 115.918  0.00  0.00     0.092 H 
BRANCH   3   5
ATOM      5  C3' MOL d           6.028 -15.844 114.532  0.00  0.00     0.282 C 
ATOM      6  O1' MOL d           5.153 -15.006 114.318  0.00  0.00    -0.260 OA
BRANCH   5   7
ATOM      7  O2' MOL d           7.043 -16.029 113.646  0.00  0.00    -0.319 OA
BRANCH   7   8
ATOM      8  C4' MOL d           6.912 -17.276 112.954  0.00  0.00     0.026 C 
ATOM      9  H4  MOL d           7.762 -17.930 113.199  0.00  0.00     0.074 H 
ATOM     10  H5  MOL d           5.974 -17.769 113.246  0.00  0.00     0.074 H 
BRANCH   8  11
ATOM     11  C5' MOL d           6.899 -16.982 111.450  0.00  0.00    -0.056 C 
ATOM     12  H1  MOL d           6.017 -16.374 111.203  0.00  0.00     0.030 H 
ATOM     13  H2  MOL d           6.860 -17.929 110.892  0.00  0.00     0.030 H 
ATOM     14  H3  MOL d           7.812 -16.432 111.176  0.00  0.00     0.030 H 
ENDBRANCH   8  11
ENDBRANCH   7   8
ENDBRANCH   5   7
ENDBRANCH   3   5
ENDBRANCH   1   3
BRANCH   1  15
ATOM     15  C1  MOL d           7.495 -17.034 117.833  0.00  0.00    -0.033 A 
ATOM     16  C2  MOL d           7.523 -16.853 119.212  0.00  0.00    -0.038 A 
ATOM     17  C3  MOL d           8.058 -17.843 120.032  0.00  0.00     0.099 A 
ATOM     18  H8  MOL d           7.127 -15.942 119.648  0.00  0.00     0.089 H 
ATOM     19  C4  MOL d           8.571 -19.008 119.472  0.00  0.00     0.098 A 
ATOM     20  C5  MOL d           8.551 -19.186 118.093  0.00  0.00    -0.047 A 
ATOM     21  C6  MOL d           8.012 -18.197 117.275  0.00  0.00    -0.070 A 
ATOM     22  H10 MOL d           8.953 -20.093 117.656  0.00  0.00     0.087 H 
ATOM     23  H9  MOL d           7.996 -18.334 116.200  0.00  0.00     0.084 H 
BRANCH  17  24
ATOM     24  O3  MOL d           8.071 -17.696 121.384  0.00  0.00    -0.358 OA
ATOM     25  H12 MOL d           8.966 -17.743 121.698  0.00  0.00     0.217 HD
ENDBRANCH  17  24
BRANCH  19  26
ATOM     26  O4  MOL d           9.096 -19.971 120.273  0.00  0.00    -0.358 OA
ATOM     27  H11 MOL d          10.006 -20.114 120.040  0.00  0.00     0.217 HD
ENDBRANCH  19  26
ENDBRANCH   1  15
TORSDOF 8
ENDMDL
MODEL 8
REMARK VINA RESULT:      -3.1      1.675      2.774
REMARK  8 active torsions:
REMARK  status: ('A' for Active; 'I' for Inactive)
REMARK    1  A    between atoms: C5'_1  and  C4'_2 
REMARK    2  A    between atoms: C4'_2  and  O2'_3 
REMARK    3  A    between atoms: O2'_3  and  C3'_4 
REMARK    4  A    between atoms: C3'_4  and  C2'_6 
REMARK    5  A    between atoms: C2'_6  and  C1'_7 
REMARK    6  A    between atoms: C1'_7  and  C1_8 
REMARK    7  A    between atoms: C4_12  and  O4_13 
REMARK    8  A    between atoms: C3_14  and  O3_15 
ROOT
ATOM      1  C1' MOL d           8.628 -18.495 115.911  0.00  0.00    -0.067 C 
ATOM      2  H7  MOL d           9.675 -18.788 115.975  0.00  0.00     0.085 H 
ENDROOT
BRANCH   1   3
ATOM      3  C2' MOL d           7.601 -18.746 117.013  0.00  0.00    -0.010 C 
ATOM      4  H6  MOL d           6.522 -18.774 116.862  0.00  0.00     0.092 H 
BRANCH   3   5
ATOM      5  C3' MOL d           8.297 -18.952 118.360  0.00  0.00     0.282 C 
ATOM      6  O1' MOL d           8.565 -20.082 118.768  0.00  0.00    -0.260 OA
BRANCH   5   7
ATOM      7  O2' MOL d           8.630 -17.854 119.089  0.00  0.00    -0.319 OA
BRANCH   7   8
ATOM      8  C4' MOL d           7.468 -17.198 119.609  0.00  0.00     0.026 C 
ATOM      9  H4  MOL d           6.561 -17.666 119.200  0.00  0.00     0.074 H 
ATOM     10  H5  MOL d           7.457 -17.274 120.706  0.00  0.00     0.074 H 
BRANCH   8  11
ATOM     11  C5' MOL d           7.529 -15.726 119.189  0.00  0.00    -0.056 C 
ATOM     12  H1  MOL d           8.192 -15.621 118.317  0.00  0.00     0.030 H 
ATOM     13  H2  MOL d           7.919 -15.123 120.022  0.00  0.00     0.030 H 
ATOM     14  H3  MOL d           6.519 -15.378 118.925  0.00  0.00     0.030 H 
ENDBRANCH   8  11
ENDBRANCH   7   8
ENDBRANCH   5   7
ENDBRANCH   3   5
ENDBRANCH   1   3
BRANCH   1  15
ATOM     15  C1  MOL d           8.012 -17.784 114.708  0.00  0.00    -0.033 A 
ATOM     16  C2  MOL d           8.768 -16.956 113.885  0.00  0.00    -0.038 A 
ATOM     17  C3  MOL d           8.192 -16.391 112.750  0.00  0.00     0.099 A 
ATOM     18  H8  MOL d           9.805 -16.752 114.127  0.00  0.00     0.089 H 
ATOM     19  C4  MOL d           6.861 -16.649 112.443  0.00  0.00     0.098 A 
ATOM     20  C5  MOL d           6.102 -17.470 113.270  0.00  0.00    -0.047 A 
ATOM     21  C6  MOL d           6.679 -18.037 114.402  0.00  0.00    -0.070 A 
ATOM     22  H10 MOL d           5.063 -17.668 113.032  0.00  0.00     0.087 H 
ATOM     23  H9  MOL d           6.089 -18.677 115.047  0.00  0.00     0.084 H 
BRANCH  17  24
ATOM     24  O3  MOL d           8.923 -15.600 111.919  0.00  0.00    -0.358 OA
ATOM     25  H12 MOL d           9.400 -16.145 111.303  0.00  0.00     0.217 HD
ENDBRANCH  17  24
BRANCH  19  26
ATOM     26  O4  MOL d           6.300 -16.094 111.337  0.00  0.00    -0.358 OA
ATOM     27  H11 MOL d           6.472 -16.648 110.584  0.00  0.00     0.217 HD
ENDBRANCH  19  26
ENDBRANCH   1  15
TORSDOF 8
ENDMDL
MODEL 9
REMARK VINA RESULT:      -2.7      2.675      4.307
REMARK  8 active torsions:
REMARK  status: ('A' for Active; 'I' for Inactive)
REMARK    1  A    between atoms: C5'_1  and  C4'_2 
REMARK    2  A    between atoms: C4'_2  and  O2'_3 
REMARK    3  A    between atoms: O2'_3  and  C3'_4 
REMARK    4  A    between atoms: C3'_4  and  C2'_6 
REMARK    5  A    between atoms: C2'_6  and  C1'_7 
REMARK    6  A    between atoms: C1'_7  and  C1_8 
REMARK    7  A    between atoms: C4_12  and  O4_13 
REMARK    8  A    between atoms: C3_14  and  O3_15 
ROOT
ATOM      1  C1' MOL d           7.594 -16.485 120.066  0.00  0.00    -0.067 C 
ATOM      2  H7  MOL d           7.724 -15.432 120.309  0.00  0.00     0.085 H 
ENDROOT
BRANCH   1   3
ATOM      3  C2' MOL d           7.400 -17.585 121.110  0.00  0.00    -0.010 C 
ATOM      4  H6  MOL d           6.482 -18.154 121.248  0.00  0.00     0.092 H 
BRANCH   3   5
ATOM      5  C3' MOL d           8.675 -17.775 121.933  0.00  0.00     0.282 C 
ATOM      6  O1' MOL d           9.359 -16.810 122.274  0.00  0.00    -0.260 OA
BRANCH   5   7
ATOM      7  O2' MOL d           9.028 -19.037 122.294  0.00  0.00    -0.319 OA
BRANCH   7   8
ATOM      8  C4' MOL d           9.843 -19.660 121.295  0.00  0.00     0.026 C 
ATOM      9  H4  MOL d           9.812 -19.070 120.367  0.00  0.00     0.074 H 
ATOM     10  H5  MOL d          10.881 -19.731 121.650  0.00  0.00     0.074 H 
BRANCH   8  11
ATOM     11  C5' MOL d           9.284 -21.063 121.037  0.00  0.00    -0.056 C 
ATOM     12  H1  MOL d           8.234 -21.105 121.363  0.00  0.00     0.030 H 
ATOM     13  H2  MOL d           9.873 -21.802 121.602  0.00  0.00     0.030 H 
ATOM     14  H3  MOL d           9.343 -21.291 119.963  0.00  0.00     0.030 H 
ENDBRANCH   8  11
ENDBRANCH   7   8
ENDBRANCH   5   7
ENDBRANCH   3   5
ENDBRANCH   1   3
BRANCH   1  15
ATOM     15  C1  MOL d           7.584 -17.041 118.644  0.00  0.00    -0.033 A 
ATOM     16  C2  MOL d           8.274 -18.202 118.311  0.00  0.00    -0.038 A 
ATOM     17  C3  MOL d           8.175 -18.725 117.024  0.00  0.00     0.099 A 
ATOM     18  H8  MOL d           8.888 -18.700 119.053  0.00  0.00     0.089 H 
ATOM     19  C4  MOL d           7.393 -18.082 116.071  0.00  0.00     0.098 A 
ATOM     20  C5  MOL d           6.709 -16.917 116.401  0.00  0.00    -0.047 A 
ATOM     21  C6  MOL d           6.807 -16.398 117.688  0.00  0.00    -0.070 A 
ATOM     22  H10 MOL d           6.101 -16.415 115.657  0.00  0.00     0.087 H 
ATOM     23  H9  MOL d           6.274 -15.489 117.947  0.00  0.00     0.084 H 
BRANCH  17  24
ATOM     24  O3  MOL d           8.821 -19.873 116.687  0.00  0.00    -0.358 OA
ATOM     25  H12 MOL d           8.270 -20.618 116.898  0.00  0.00     0.217 HD
ENDBRANCH  17  24
BRANCH  19  26
ATOM     26  O4  MOL d           7.299 -18.592 114.814  0.00  0.00    -0.358 OA
ATOM     27  H11 MOL d           7.773 -19.414 114.772  0.00  0.00     0.217 HD
ENDBRANCH  19  26
ENDBRANCH   1  15
TORSDOF 8
ENDMDL
MODEL 10
REMARK VINA RESULT:      -2.7      2.157      6.271
REMARK  8 active torsions:
REMARK  status: ('A' for Active; 'I' for Inactive)
REMARK    1  A    between atoms: C5'_1  and  C4'_2 
REMARK    2  A    between atoms: C4'_2  and  O2'_3 
REMARK    3  A    between atoms: O2'_3  and  C3'_4 
REMARK    4  A    between atoms: C3'_4  and  C2'_6 
REMARK    5  A    between atoms: C2'_6  and  C1'_7 
REMARK    6  A    between atoms: C1'_7  and  C1_8 
REMARK    7  A    between atoms: C4_12  and  O4_13 
REMARK    8  A    between atoms: C3_14  and  O3_15 
ROOT
ATOM      1  C1' MOL d           8.284 -16.827 116.769  0.00  0.00    -0.067 C 
ATOM      2  H7  MOL d           8.546 -15.843 116.383  0.00  0.00     0.085 H 
ENDROOT
BRANCH   1   3
ATOM      3  C2' MOL d           7.881 -18.010 115.891  0.00  0.00    -0.010 C 
ATOM      4  H6  MOL d           8.433 -18.947 115.820  0.00  0.00     0.092 H 
BRANCH   3   5
ATOM      5  C3' MOL d           6.593 -17.698 115.126  0.00  0.00     0.282 C 
ATOM      6  O1' MOL d           5.807 -16.842 115.532  0.00  0.00    -0.260 OA
BRANCH   5   7
ATOM      7  O2' MOL d           6.345 -18.378 113.975  0.00  0.00    -0.319 OA
BRANCH   7   8
ATOM      8  C4' MOL d           5.915 -17.499 112.930  0.00  0.00     0.026 C 
ATOM      9  H4  MOL d           5.096 -17.965 112.363  0.00  0.00     0.074 H 
ATOM     10  H5  MOL d           5.568 -16.548 113.360  0.00  0.00     0.074 H 
BRANCH   8  11
ATOM     11  C5' MOL d           7.110 -17.246 112.004  0.00  0.00    -0.056 C 
ATOM     12  H1  MOL d           7.627 -16.326 112.316  0.00  0.00     0.030 H 
ATOM     13  H2  MOL d           6.755 -17.134 110.969  0.00  0.00     0.030 H 
ATOM     14  H3  MOL d           7.806 -18.096 112.064  0.00  0.00     0.030 H 
ENDBRANCH   8  11
ENDBRANCH   7   8
ENDBRANCH   5   7
ENDBRANCH   3   5
ENDBRANCH   1   3
BRANCH   1  15
ATOM     15  C1  MOL d           8.275 -17.189 118.253  0.00  0.00    -0.033 A 
ATOM     16  C2  MOL d           7.511 -16.477 119.172  0.00  0.00    -0.038 A 
ATOM     17  C3  MOL d           7.462 -16.886 120.502  0.00  0.00     0.099 A 
ATOM     18  H8  MOL d           6.953 -15.604 118.852  0.00  0.00     0.089 H 
ATOM     19  C4  MOL d           8.183 -18.002 120.913  0.00  0.00     0.098 A 
ATOM     20  C5  MOL d           8.954 -18.710 119.996  0.00  0.00    -0.047 A 
ATOM     21  C6  MOL d           8.998 -18.301 118.667  0.00  0.00    -0.070 A 
ATOM     22  H10 MOL d           9.518 -19.578 120.317  0.00  0.00     0.087 H 
ATOM     23  H9  MOL d           9.599 -18.852 117.952  0.00  0.00     0.084 H 
BRANCH  17  24
ATOM     24  O3  MOL d           6.700 -16.219 121.409  0.00  0.00    -0.358 OA
ATOM     25  H12 MOL d           6.948 -16.486 122.287  0.00  0.00     0.217 HD
ENDBRANCH  17  24
BRANCH  19  26
ATOM     26  O4  MOL d           8.138 -18.399 122.211  0.00  0.00    -0.358 OA
ATOM     27  H11 MOL d           8.751 -17.882 122.721  0.00  0.00     0.217 HD
ENDBRANCH  19  26
ENDBRANCH   1  15
TORSDOF 8
ENDMDL
