REMARK  7 active torsions:
REMARK  status: ('A' for Active; 'I' for Inactive)
REMARK    1  A    between atoms: CE_10  and  N1_1 
REMARK    2  A    between atoms: CA_3  and  N_2 
REMARK    3  A    between atoms: CA_3  and  C_4 
REMARK    4  A    between atoms: CB_7  and  CA_3 
REMARK    5  A    between atoms: CG_8  and  CB_7 
REMARK    6  A    between atoms: CD_9  and  CG_8 
REMARK    7  A    between atoms: CD_9  and  CE_10 
ROOT
ATOM      1  CB  MOL d          23.021 -16.585   7.493  0.00  0.00    -0.029 C 
ATOM      2  H5  MOL d          23.810 -17.220   7.064  0.00  0.00     0.036 H 
ATOM      3  H6  MOL d          23.052 -16.653   8.591  0.00  0.00     0.036 H 
ENDROOT
BRANCH   1   4
ATOM      4  CA  MOL d          21.648 -17.099   7.003  0.00  0.00     0.182 C 
ATOM      5  H4  MOL d          21.411 -18.028   7.542  0.00  0.00     0.101 H 
BRANCH   4   6
ATOM      6  N   MOL d          21.728 -17.394   5.547  0.00  0.00    -0.065 N 
ATOM      7  H1  MOL d          22.467 -18.059   5.379  0.00  0.00     0.275 HD
ATOM      8  H2  MOL d          21.921 -16.543   5.042  0.00  0.00     0.275 HD
ATOM      9  H3  MOL d          20.851 -17.780   5.234  0.00  0.00     0.275 HD
ENDBRANCH   4   6
BRANCH   4  10
ATOM     10  C   MOL d          20.521 -16.083   7.270  0.00  0.00     0.204 C 
ATOM     11  OXT MOL d          19.827 -15.644   6.305  0.00  0.00    -0.646 OA
ATOM     12  O   MOL d          20.288 -15.689   8.452  0.00  0.00    -0.646 OA
ENDBRANCH   4  10
ENDBRANCH   1   4
BRANCH   1  13
ATOM     13  CG  MOL d          23.281 -15.135   7.083  0.00  0.00    -0.061 C 
ATOM     14  H7  MOL d          22.498 -14.490   7.509  0.00  0.00     0.033 H 
ATOM     15  H8  MOL d          23.263 -15.058   5.986  0.00  0.00     0.033 H 
BRANCH  13  16
ATOM     16  CD  MOL d          24.635 -14.687   7.596  0.00  0.00    -0.044 C 
ATOM     17  H9  MOL d          25.429 -15.304   7.151  0.00  0.00     0.035 H 
ATOM     18  H10 MOL d          24.671 -14.777   8.692  0.00  0.00     0.035 H 
BRANCH  16  19
ATOM     19  CE  MOL d          24.815 -13.234   7.188  0.00  0.00     0.054 C 
ATOM     20  H11 MOL d          24.033 -12.977   6.458  0.00  0.00     0.073 H 
ATOM     21  H12 MOL d          24.703 -12.604   8.083  0.00  0.00     0.073 H 
BRANCH  19  22
ATOM     22  N1  MOL d          26.102 -12.961   6.595  0.00  0.00    -0.156 N 
ATOM     23  O2  MOL d          26.688 -11.806   6.848  0.00  0.00    -0.537 OA
ATOM     24  O1  MOL d          26.675 -13.818   5.777  0.00  0.00    -0.537 OA
ENDBRANCH  19  22
ENDBRANCH  16  19
ENDBRANCH  13  16
ENDBRANCH   1  13
TORSDOF 7
