MODEL 1
REMARK VINA RESULT:      -5.1      0.000      0.000
REMARK  7 active torsions:
REMARK  status: ('A' for Active; 'I' for Inactive)
REMARK    1  A    between atoms: CE_10  and  N1_1 
REMARK    2  A    between atoms: CA_3  and  N_2 
REMARK    3  A    between atoms: CA_3  and  C_4 
REMARK    4  A    between atoms: CB_7  and  CA_3 
REMARK    5  A    between atoms: CG_8  and  CB_7 
REMARK    6  A    between atoms: CD_9  and  CG_8 
REMARK    7  A    between atoms: CD_9  and  CE_10 
ROOT
ATOM      1  CB  MOL d          24.047 -15.705   8.301  0.00  0.00    -0.029 C 
ATOM      2  H5  MOL d          23.618 -15.371   9.257  0.00  0.00     0.036 H 
ATOM      3  H6  MOL d          25.084 -16.036   8.460  0.00  0.00     0.036 H 
ENDROOT
BRANCH   1   4
ATOM      4  CA  MOL d          24.053 -14.513   7.316  0.00  0.00     0.182 C 
ATOM      5  H4  MOL d          23.287 -13.792   7.638  0.00  0.00     0.101 H 
BRANCH   4   6
ATOM      6  N   MOL d          23.711 -15.004   5.954  0.00  0.00    -0.065 N 
ATOM      7  H1  MOL d          23.741 -14.235   5.303  0.00  0.00     0.275 HD
ATOM      8  H2  MOL d          22.784 -15.400   5.963  0.00  0.00     0.275 HD
ATOM      9  H3  MOL d          24.375 -15.708   5.674  0.00  0.00     0.275 HD
ENDBRANCH   4   6
BRANCH   4  10
ATOM     10  C   MOL d          25.414 -13.794   7.287  0.00  0.00     0.204 C 
ATOM     11  OXT MOL d          26.465 -14.420   7.618  0.00  0.00    -0.646 OA
ATOM     12  O   MOL d          25.483 -12.579   6.930  0.00  0.00    -0.646 OA
ENDBRANCH   4  10
ENDBRANCH   1   4
BRANCH   1  13
ATOM     13  CG  MOL d          23.228 -16.887   7.781  0.00  0.00    -0.061 C 
ATOM     14  H7  MOL d          23.780 -17.821   7.965  0.00  0.00     0.033 H 
ATOM     15  H8  MOL d          23.060 -16.767   6.701  0.00  0.00     0.033 H 
BRANCH  13  16
ATOM     16  CD  MOL d          21.892 -16.945   8.495  0.00  0.00    -0.044 C 
ATOM     17  H9  MOL d          21.716 -16.006   9.040  0.00  0.00     0.035 H 
ATOM     18  H10 MOL d          21.879 -17.788   9.202  0.00  0.00     0.035 H 
BRANCH  16  19
ATOM     19  CE  MOL d          20.821 -17.140   7.434  0.00  0.00     0.054 C 
ATOM     20  H11 MOL d          21.181 -17.884   6.708  0.00  0.00     0.073 H 
ATOM     21  H12 MOL d          19.910 -17.515   7.924  0.00  0.00     0.073 H 
BRANCH  19  22
ATOM     22  N1  MOL d          20.492 -15.928   6.723  0.00  0.00    -0.156 N 
ATOM     23  O2  MOL d          19.838 -14.974   7.358  0.00  0.00    -0.537 OA
ATOM     24  O1  MOL d          20.791 -15.778   5.450  0.00  0.00    -0.537 OA
ENDBRANCH  19  22
ENDBRANCH  16  19
ENDBRANCH  13  16
ENDBRANCH   1  13
TORSDOF 7
ENDMDL
MODEL 2
REMARK VINA RESULT:      -5.0      1.565      5.156
REMARK  7 active torsions:
REMARK  status: ('A' for Active; 'I' for Inactive)
REMARK    1  A    between atoms: CE_10  and  N1_1 
REMARK    2  A    between atoms: CA_3  and  N_2 
REMARK    3  A    between atoms: CA_3  and  C_4 
REMARK    4  A    between atoms: CB_7  and  CA_3 
REMARK    5  A    between atoms: CG_8  and  CB_7 
REMARK    6  A    between atoms: CD_9  and  CG_8 
REMARK    7  A    between atoms: CD_9  and  CE_10 
ROOT
ATOM      1  CB  MOL d          22.662 -17.004   7.316  0.00  0.00    -0.029 C 
ATOM      2  H5  MOL d          23.565 -17.464   6.890  0.00  0.00     0.036 H 
ATOM      3  H6  MOL d          22.237 -17.671   8.082  0.00  0.00     0.036 H 
ENDROOT
BRANCH   1   4
ATOM      4  CA  MOL d          21.621 -16.816   6.190  0.00  0.00     0.182 C 
ATOM      5  H4  MOL d          21.425 -17.795   5.729  0.00  0.00     0.101 H 
BRANCH   4   6
ATOM      6  N   MOL d          22.177 -15.901   5.157  0.00  0.00    -0.065 N 
ATOM      7  H1  MOL d          21.869 -16.197   4.244  0.00  0.00     0.275 HD
ATOM      8  H2  MOL d          23.185 -15.924   5.196  0.00  0.00     0.275 HD
ATOM      9  H3  MOL d          21.855 -14.962   5.332  0.00  0.00     0.275 HD
ENDBRANCH   4   6
BRANCH   4  10
ATOM     10  C   MOL d          20.288 -16.256   6.721  0.00  0.00     0.204 C 
ATOM     11  OXT MOL d          19.710 -16.823   7.696  0.00  0.00    -0.646 OA
ATOM     12  O   MOL d          19.771 -15.229   6.186  0.00  0.00    -0.646 OA
ENDBRANCH   4  10
ENDBRANCH   1   4
BRANCH   1  13
ATOM     13  CG  MOL d          23.051 -15.681   7.978  0.00  0.00    -0.061 C 
ATOM     14  H7  MOL d          22.782 -15.714   9.044  0.00  0.00     0.033 H 
ATOM     15  H8  MOL d          22.510 -14.857   7.489  0.00  0.00     0.033 H 
BRANCH  13  16
ATOM     16  CD  MOL d          24.543 -15.453   7.843  0.00  0.00    -0.044 C 
ATOM     17  H9  MOL d          24.983 -16.219   7.187  0.00  0.00     0.035 H 
ATOM     18  H10 MOL d          25.022 -15.498   8.832  0.00  0.00     0.035 H 
BRANCH  16  19
ATOM     19  CE  MOL d          24.737 -14.074   7.234  0.00  0.00     0.054 C 
ATOM     20  H11 MOL d          24.354 -14.091   6.202  0.00  0.00     0.073 H 
ATOM     21  H12 MOL d          24.162 -13.347   7.826  0.00  0.00     0.073 H 
BRANCH  19  22
ATOM     22  N1  MOL d          26.116 -13.651   7.203  0.00  0.00    -0.156 N 
ATOM     23  O2  MOL d          26.724 -13.544   6.037  0.00  0.00    -0.537 OA
ATOM     24  O1  MOL d          26.784 -13.414   8.312  0.00  0.00    -0.537 OA
ENDBRANCH  19  22
ENDBRANCH  16  19
ENDBRANCH  13  16
ENDBRANCH   1  13
TORSDOF 7
ENDMDL
MODEL 3
REMARK VINA RESULT:      -4.5      1.819      4.860
REMARK  7 active torsions:
REMARK  status: ('A' for Active; 'I' for Inactive)
REMARK    1  A    between atoms: CE_10  and  N1_1 
REMARK    2  A    between atoms: CA_3  and  N_2 
REMARK    3  A    between atoms: CA_3  and  C_4 
REMARK    4  A    between atoms: CB_7  and  CA_3 
REMARK    5  A    between atoms: CG_8  and  CB_7 
REMARK    6  A    between atoms: CD_9  and  CG_8 
REMARK    7  A    between atoms: CD_9  and  CE_10 
ROOT
ATOM      1  CB  MOL d          22.089 -15.126   7.208  0.00  0.00    -0.029 C 
ATOM      2  H5  MOL d          21.426 -14.376   7.662  0.00  0.00     0.036 H 
ATOM      3  H6  MOL d          22.773 -14.631   6.502  0.00  0.00     0.036 H 
ENDROOT
BRANCH   1   4
ATOM      4  CA  MOL d          21.227 -16.146   6.430  0.00  0.00     0.182 C 
ATOM      5  H4  MOL d          20.926 -15.692   5.475  0.00  0.00     0.101 H 
BRANCH   4   6
ATOM      6  N   MOL d          20.007 -16.459   7.222  0.00  0.00    -0.065 N 
ATOM      7  H1  MOL d          20.128 -17.342   7.692  0.00  0.00     0.275 HD
ATOM      8  H2  MOL d          19.211 -16.513   6.605  0.00  0.00     0.275 HD
ATOM      9  H3  MOL d          19.855 -15.733   7.905  0.00  0.00     0.275 HD
ENDBRANCH   4   6
BRANCH   4  10
ATOM     10  C   MOL d          22.000 -17.444   6.126  0.00  0.00     0.204 C 
ATOM     11  OXT MOL d          21.996 -18.392   6.968  0.00  0.00    -0.646 OA
ATOM     12  O   MOL d          22.637 -17.563   5.037  0.00  0.00    -0.646 OA
ENDBRANCH   4  10
ENDBRANCH   1   4
BRANCH   1  13
ATOM     13  CG  MOL d          22.916 -15.783   8.314  0.00  0.00    -0.061 C 
ATOM     14  H7  MOL d          22.711 -16.864   8.328  0.00  0.00     0.033 H 
ATOM     15  H8  MOL d          22.640 -15.345   9.284  0.00  0.00     0.033 H 
BRANCH  13  16
ATOM     16  CD  MOL d          24.393 -15.555   8.061  0.00  0.00    -0.044 C 
ATOM     17  H9  MOL d          24.854 -16.474   7.671  0.00  0.00     0.035 H 
ATOM     18  H10 MOL d          24.894 -15.261   8.995  0.00  0.00     0.035 H 
BRANCH  16  19
ATOM     19  CE  MOL d          24.509 -14.439   7.036  0.00  0.00     0.054 C 
ATOM     20  H11 MOL d          24.565 -14.890   6.034  0.00  0.00     0.073 H 
ATOM     21  H12 MOL d          23.611 -13.808   7.104  0.00  0.00     0.073 H 
BRANCH  19  22
ATOM     22  N1  MOL d          25.670 -13.604   7.228  0.00  0.00    -0.156 N 
ATOM     23  O2  MOL d          26.771 -14.146   7.714  0.00  0.00    -0.537 OA
ATOM     24  O1  MOL d          25.636 -12.314   6.971  0.00  0.00    -0.537 OA
ENDBRANCH  19  22
ENDBRANCH  16  19
ENDBRANCH  13  16
ENDBRANCH   1  13
TORSDOF 7
ENDMDL
MODEL 4
REMARK VINA RESULT:      -4.2      2.163      2.437
REMARK  7 active torsions:
REMARK  status: ('A' for Active; 'I' for Inactive)
REMARK    1  A    between atoms: CE_10  and  N1_1 
REMARK    2  A    between atoms: CA_3  and  N_2 
REMARK    3  A    between atoms: CA_3  and  C_4 
REMARK    4  A    between atoms: CB_7  and  CA_3 
REMARK    5  A    between atoms: CG_8  and  CB_7 
REMARK    6  A    between atoms: CD_9  and  CG_8 
REMARK    7  A    between atoms: CD_9  and  CE_10 
ROOT
ATOM      1  CB  MOL d          22.291 -15.200   8.047  0.00  0.00    -0.029 C 
ATOM      2  H5  MOL d          21.937 -14.385   8.695  0.00  0.00     0.036 H 
ATOM      3  H6  MOL d          22.902 -15.899   8.638  0.00  0.00     0.036 H 
ENDROOT
BRANCH   1   4
ATOM      4  CA  MOL d          23.169 -14.599   6.926  0.00  0.00     0.182 C 
ATOM      5  H4  MOL d          22.759 -13.616   6.652  0.00  0.00     0.101 H 
BRANCH   4   6
ATOM      6  N   MOL d          23.120 -15.491   5.736  0.00  0.00    -0.065 N 
ATOM      7  H1  MOL d          22.618 -16.334   5.968  0.00  0.00     0.275 HD
ATOM      8  H2  MOL d          24.058 -15.726   5.454  0.00  0.00     0.275 HD
ATOM      9  H3  MOL d          22.649 -15.017   4.981  0.00  0.00     0.275 HD
ENDBRANCH   4   6
BRANCH   4  10
ATOM     10  C   MOL d          24.630 -14.407   7.376  0.00  0.00     0.204 C 
ATOM     11  OXT MOL d          25.230 -15.342   7.985  0.00  0.00    -0.646 OA
ATOM     12  O   MOL d          25.230 -13.316   7.136  0.00  0.00    -0.646 OA
ENDBRANCH   4  10
ENDBRANCH   1   4
BRANCH   1  13
ATOM     13  CG  MOL d          21.077 -15.952   7.498  0.00  0.00    -0.061 C 
ATOM     14  H7  MOL d          21.295 -16.299   6.477  0.00  0.00     0.033 H 
ATOM     15  H8  MOL d          20.209 -15.276   7.478  0.00  0.00     0.033 H 
BRANCH  13  16
ATOM     16  CD  MOL d          20.765 -17.145   8.379  0.00  0.00    -0.044 C 
ATOM     17  H9  MOL d          19.718 -17.103   8.712  0.00  0.00     0.035 H 
ATOM     18  H10 MOL d          21.430 -17.149   9.256  0.00  0.00     0.035 H 
BRANCH  16  19
ATOM     19  CE  MOL d          20.996 -18.395   7.546  0.00  0.00     0.054 C 
ATOM     20  H11 MOL d          20.776 -19.275   8.168  0.00  0.00     0.073 H 
ATOM     21  H12 MOL d          20.310 -18.372   6.686  0.00  0.00     0.073 H 
BRANCH  19  22
ATOM     22  N1  MOL d          22.346 -18.511   7.050  0.00  0.00    -0.156 N 
ATOM     23  O2  MOL d          22.542 -18.588   5.747  0.00  0.00    -0.537 OA
ATOM     24  O1  MOL d          23.373 -18.586   7.870  0.00  0.00    -0.537 OA
ENDBRANCH  19  22
ENDBRANCH  16  19
ENDBRANCH  13  16
ENDBRANCH   1  13
TORSDOF 7
ENDMDL
MODEL 5
REMARK VINA RESULT:      -4.2      1.501      1.961
REMARK  7 active torsions:
REMARK  status: ('A' for Active; 'I' for Inactive)
REMARK    1  A    between atoms: CE_10  and  N1_1 
REMARK    2  A    between atoms: CA_3  and  N_2 
REMARK    3  A    between atoms: CA_3  and  C_4 
REMARK    4  A    between atoms: CB_7  and  CA_3 
REMARK    5  A    between atoms: CG_8  and  CB_7 
REMARK    6  A    between atoms: CD_9  and  CG_8 
REMARK    7  A    between atoms: CD_9  and  CE_10 
ROOT
ATOM      1  CB  MOL d          23.678 -17.263   8.183  0.00  0.00    -0.029 C 
ATOM      2  H5  MOL d          24.522 -17.793   8.648  0.00  0.00     0.036 H 
ATOM      3  H6  MOL d          23.794 -17.276   7.089  0.00  0.00     0.036 H 
ENDROOT
BRANCH   1   4
ATOM      4  CA  MOL d          23.688 -15.794   8.665  0.00  0.00     0.182 C 
ATOM      5  H4  MOL d          24.165 -15.756   9.656  0.00  0.00     0.101 H 
BRANCH   4   6
ATOM      6  N   MOL d          22.287 -15.310   8.787  0.00  0.00    -0.065 N 
ATOM      7  H1  MOL d          22.268 -14.307   8.686  0.00  0.00     0.275 HD
ATOM      8  H2  MOL d          21.921 -15.563   9.692  0.00  0.00     0.275 HD
ATOM      9  H3  MOL d          21.722 -15.731   8.066  0.00  0.00     0.275 HD
ENDBRANCH   4   6
BRANCH   4  10
ATOM     10  C   MOL d          24.478 -14.877   7.711  0.00  0.00     0.204 C 
ATOM     11  OXT MOL d          25.719 -14.698   7.893  0.00  0.00    -0.646 OA
ATOM     12  O   MOL d          23.887 -14.306   6.746  0.00  0.00    -0.646 OA
ENDBRANCH   4  10
ENDBRANCH   1   4
BRANCH   1  13
ATOM     13  CG  MOL d          22.382 -17.987   8.549  0.00  0.00    -0.061 C 
ATOM     14  H7  MOL d          21.694 -17.280   9.035  0.00  0.00     0.033 H 
ATOM     15  H8  MOL d          22.609 -18.812   9.240  0.00  0.00     0.033 H 
BRANCH  13  16
ATOM     16  CD  MOL d          21.730 -18.544   7.299  0.00  0.00    -0.044 C 
ATOM     17  H9  MOL d          20.646 -18.645   7.453  0.00  0.00     0.035 H 
ATOM     18  H10 MOL d          22.160 -19.527   7.056  0.00  0.00     0.035 H 
BRANCH  16  19
ATOM     19  CE  MOL d          22.005 -17.563   6.170  0.00  0.00     0.054 C 
ATOM     20  H11 MOL d          22.980 -17.086   6.352  0.00  0.00     0.073 H 
ATOM     21  H12 MOL d          22.041 -18.122   5.224  0.00  0.00     0.073 H 
BRANCH  19  22
ATOM     22  N1  MOL d          21.005 -16.530   6.053  0.00  0.00    -0.156 N 
ATOM     23  O2  MOL d          21.082 -15.680   5.047  0.00  0.00    -0.537 OA
ATOM     24  O1  MOL d          20.052 -16.394   6.951  0.00  0.00    -0.537 OA
ENDBRANCH  19  22
ENDBRANCH  16  19
ENDBRANCH  13  16
ENDBRANCH   1  13
TORSDOF 7
ENDMDL
MODEL 6
REMARK VINA RESULT:      -4.1      1.823      2.095
REMARK  7 active torsions:
REMARK  status: ('A' for Active; 'I' for Inactive)
REMARK    1  A    between atoms: CE_10  and  N1_1 
REMARK    2  A    between atoms: CA_3  and  N_2 
REMARK    3  A    between atoms: CA_3  and  C_4 
REMARK    4  A    between atoms: CB_7  and  CA_3 
REMARK    5  A    between atoms: CG_8  and  CB_7 
REMARK    6  A    between atoms: CD_9  and  CG_8 
REMARK    7  A    between atoms: CD_9  and  CE_10 
ROOT
ATOM      1  CB  MOL d          23.417 -16.439   8.787  0.00  0.00    -0.029 C 
ATOM      2  H5  MOL d          22.806 -15.623   9.199  0.00  0.00     0.036 H 
ATOM      3  H6  MOL d          24.072 -16.841   9.575  0.00  0.00     0.036 H 
ENDROOT
BRANCH   1   4
ATOM      4  CA  MOL d          24.298 -15.875   7.649  0.00  0.00     0.182 C 
ATOM      5  H4  MOL d          24.841 -16.709   7.182  0.00  0.00     0.101 H 
BRANCH   4   6
ATOM      6  N   MOL d          25.284 -14.920   8.223  0.00  0.00    -0.065 N 
ATOM      7  H1  MOL d          24.813 -14.068   8.487  0.00  0.00     0.275 HD
ATOM      8  H2  MOL d          25.991 -14.713   7.535  0.00  0.00     0.275 HD
ATOM      9  H3  MOL d          25.716 -15.331   9.036  0.00  0.00     0.275 HD
ENDBRANCH   4   6
BRANCH   4  10
ATOM     10  C   MOL d          23.461 -15.172   6.563  0.00  0.00     0.204 C 
ATOM     11  OXT MOL d          23.151 -13.951   6.698  0.00  0.00    -0.646 OA
ATOM     12  O   MOL d          23.084 -15.814   5.537  0.00  0.00    -0.646 OA
ENDBRANCH   4  10
ENDBRANCH   1   4
BRANCH   1  13
ATOM     13  CG  MOL d          22.487 -17.554   8.306  0.00  0.00    -0.061 C 
ATOM     14  H7  MOL d          22.833 -18.517   8.709  0.00  0.00     0.033 H 
ATOM     15  H8  MOL d          22.501 -17.590   7.207  0.00  0.00     0.033 H 
BRANCH  13  16
ATOM     16  CD  MOL d          21.072 -17.289   8.782  0.00  0.00    -0.044 C 
ATOM     17  H9  MOL d          21.052 -16.395   9.422  0.00  0.00     0.035 H 
ATOM     18  H10 MOL d          20.698 -18.155   9.348  0.00  0.00     0.035 H 
BRANCH  16  19
ATOM     19  CE  MOL d          20.214 -17.065   7.548  0.00  0.00     0.054 C 
ATOM     20  H11 MOL d          20.667 -17.609   6.705  0.00  0.00     0.073 H 
ATOM     21  H12 MOL d          19.208 -17.465   7.745  0.00  0.00     0.073 H 
BRANCH  19  22
ATOM     22  N1  MOL d          20.090 -15.675   7.182  0.00  0.00    -0.156 N 
ATOM     23  O2  MOL d          20.293 -14.753   8.103  0.00  0.00    -0.537 OA
ATOM     24  O1  MOL d          19.734 -15.316   5.966  0.00  0.00    -0.537 OA
ENDBRANCH  19  22
ENDBRANCH  16  19
ENDBRANCH  13  16
ENDBRANCH   1  13
TORSDOF 7
ENDMDL
MODEL 7
REMARK VINA RESULT:      -4.0      1.752      4.430
REMARK  7 active torsions:
REMARK  status: ('A' for Active; 'I' for Inactive)
REMARK    1  A    between atoms: CE_10  and  N1_1 
REMARK    2  A    between atoms: CA_3  and  N_2 
REMARK    3  A    between atoms: CA_3  and  C_4 
REMARK    4  A    between atoms: CB_7  and  CA_3 
REMARK    5  A    between atoms: CG_8  and  CB_7 
REMARK    6  A    between atoms: CD_9  and  CG_8 
REMARK    7  A    between atoms: CD_9  and  CE_10 
ROOT
ATOM      1  CB  MOL d          22.304 -17.703   6.212  0.00  0.00    -0.029 C 
ATOM      2  H5  MOL d          23.261 -17.342   5.807  0.00  0.00     0.036 H 
ATOM      3  H6  MOL d          22.070 -18.687   5.778  0.00  0.00     0.036 H 
ENDROOT
BRANCH   1   4
ATOM      4  CA  MOL d          21.190 -16.708   5.814  0.00  0.00     0.182 C 
ATOM      5  H4  MOL d          20.517 -17.206   5.100  0.00  0.00     0.101 H 
BRANCH   4   6
ATOM      6  N   MOL d          21.803 -15.525   5.153  0.00  0.00    -0.065 N 
ATOM      7  H1  MOL d          21.747 -15.633   4.152  0.00  0.00     0.275 HD
ATOM      8  H2  MOL d          22.770 -15.451   5.429  0.00  0.00     0.275 HD
ATOM      9  H3  MOL d          21.309 -14.692   5.430  0.00  0.00     0.275 HD
ENDBRANCH   4   6
BRANCH   4  10
ATOM     10  C   MOL d          20.357 -16.256   7.029  0.00  0.00     0.204 C 
ATOM     11  OXT MOL d          20.371 -15.040   7.385  0.00  0.00    -0.646 OA
ATOM     12  O   MOL d          19.660 -17.098   7.670  0.00  0.00    -0.646 OA
ENDBRANCH   4  10
ENDBRANCH   1   4
BRANCH   1  13
ATOM     13  CG  MOL d          22.438 -17.853   7.728  0.00  0.00    -0.061 C 
ATOM     14  H7  MOL d          22.355 -18.917   7.997  0.00  0.00     0.033 H 
ATOM     15  H8  MOL d          21.635 -17.286   8.222  0.00  0.00     0.033 H 
BRANCH  13  16
ATOM     16  CD  MOL d          23.782 -17.322   8.184  0.00  0.00    -0.044 C 
ATOM     17  H9  MOL d          24.507 -17.372   7.358  0.00  0.00     0.035 H 
ATOM     18  H10 MOL d          24.153 -17.915   9.033  0.00  0.00     0.035 H 
BRANCH  16  19
ATOM     19  CE  MOL d          23.578 -15.878   8.609  0.00  0.00     0.054 C 
ATOM     20  H11 MOL d          22.512 -15.628   8.496  0.00  0.00     0.073 H 
ATOM     21  H12 MOL d          23.867 -15.781   9.666  0.00  0.00     0.073 H 
BRANCH  19  22
ATOM     22  N1  MOL d          24.352 -14.938   7.835  0.00  0.00    -0.156 N 
ATOM     23  O2  MOL d          23.743 -14.219   6.910  0.00  0.00    -0.537 OA
ATOM     24  O1  MOL d          25.652 -14.818   8.003  0.00  0.00    -0.537 OA
ENDBRANCH  19  22
ENDBRANCH  16  19
ENDBRANCH  13  16
ENDBRANCH   1  13
TORSDOF 7
ENDMDL
MODEL 8
REMARK VINA RESULT:      -3.1      2.206      2.873
REMARK  7 active torsions:
REMARK  status: ('A' for Active; 'I' for Inactive)
REMARK    1  A    between atoms: CE_10  and  N1_1 
REMARK    2  A    between atoms: CA_3  and  N_2 
REMARK    3  A    between atoms: CA_3  and  C_4 
REMARK    4  A    between atoms: CB_7  and  CA_3 
REMARK    5  A    between atoms: CG_8  and  CB_7 
REMARK    6  A    between atoms: CD_9  and  CG_8 
REMARK    7  A    between atoms: CD_9  and  CE_10 
ROOT
ATOM      1  CB  MOL d          22.411 -17.635   7.015  0.00  0.00    -0.029 C 
ATOM      2  H5  MOL d          21.638 -17.064   7.550  0.00  0.00     0.036 H 
ATOM      3  H6  MOL d          22.203 -18.712   7.110  0.00  0.00     0.036 H 
ENDROOT
BRANCH   1   4
ATOM      4  CA  MOL d          23.784 -17.337   7.659  0.00  0.00     0.182 C 
ATOM      5  H4  MOL d          24.563 -17.466   6.894  0.00  0.00     0.101 H 
BRANCH   4   6
ATOM      6  N   MOL d          24.027 -18.305   8.762  0.00  0.00    -0.065 N 
ATOM      7  H1  MOL d          23.740 -17.897   9.638  0.00  0.00     0.275 HD
ATOM      8  H2  MOL d          25.010 -18.529   8.802  0.00  0.00     0.275 HD
ATOM      9  H3  MOL d          23.497 -19.146   8.593  0.00  0.00     0.275 HD
ENDBRANCH   4   6
BRANCH   4  10
ATOM     10  C   MOL d          23.869 -15.897   8.199  0.00  0.00     0.204 C 
ATOM     11  OXT MOL d          22.870 -15.384   8.787  0.00  0.00    -0.646 OA
ATOM     12  O   MOL d          24.936 -15.227   8.058  0.00  0.00    -0.646 OA
ENDBRANCH   4  10
ENDBRANCH   1   4
BRANCH   1  13
ATOM     13  CG  MOL d          22.366 -17.254   5.535  0.00  0.00    -0.061 C 
ATOM     14  H7  MOL d          21.629 -17.888   5.018  0.00  0.00     0.033 H 
ATOM     15  H8  MOL d          23.359 -17.409   5.089  0.00  0.00     0.033 H 
BRANCH  13  16
ATOM     16  CD  MOL d          21.969 -15.799   5.387  0.00  0.00    -0.044 C 
ATOM     17  H9  MOL d          22.252 -15.432   4.390  0.00  0.00     0.035 H 
ATOM     18  H10 MOL d          22.469 -15.192   6.157  0.00  0.00     0.035 H 
BRANCH  16  19
ATOM     19  CE  MOL d          20.461 -15.721   5.561  0.00  0.00     0.054 C 
ATOM     20  H11 MOL d          20.087 -14.864   4.982  0.00  0.00     0.073 H 
ATOM     21  H12 MOL d          20.017 -16.650   5.172  0.00  0.00     0.073 H 
BRANCH  19  22
ATOM     22  N1  MOL d          20.052 -15.559   6.935  0.00  0.00    -0.156 N 
ATOM     23  O2  MOL d          19.662 -16.622   7.614  0.00  0.00    -0.537 OA
ATOM     24  O1  MOL d          20.017 -14.373   7.504  0.00  0.00    -0.537 OA
ENDBRANCH  19  22
ENDBRANCH  16  19
ENDBRANCH  13  16
ENDBRANCH   1  13
TORSDOF 7
ENDMDL
MODEL 9
REMARK VINA RESULT:      -2.7      2.181      4.257
REMARK  7 active torsions:
REMARK  status: ('A' for Active; 'I' for Inactive)
REMARK    1  A    between atoms: CE_10  and  N1_1 
REMARK    2  A    between atoms: CA_3  and  N_2 
REMARK    3  A    between atoms: CA_3  and  C_4 
REMARK    4  A    between atoms: CB_7  and  CA_3 
REMARK    5  A    between atoms: CG_8  and  CB_7 
REMARK    6  A    between atoms: CD_9  and  CG_8 
REMARK    7  A    between atoms: CD_9  and  CE_10 
ROOT
ATOM      1  CB  MOL d          21.662 -16.440   8.783  0.00  0.00    -0.029 C 
ATOM      2  H5  MOL d          22.240 -17.298   8.410  0.00  0.00     0.036 H 
ATOM      3  H6  MOL d          21.591 -16.494   9.880  0.00  0.00     0.036 H 
ENDROOT
BRANCH   1   4
ATOM      4  CA  MOL d          20.235 -16.507   8.190  0.00  0.00     0.182 C 
ATOM      5  H4  MOL d          19.512 -16.357   9.005  0.00  0.00     0.101 H 
BRANCH   4   6
ATOM      6  N   MOL d          20.016 -17.852   7.594  0.00  0.00    -0.065 N 
ATOM      7  H1  MOL d          19.536 -18.439   8.257  0.00  0.00     0.275 HD
ATOM      8  H2  MOL d          20.906 -18.265   7.362  0.00  0.00     0.275 HD
ATOM      9  H3  MOL d          19.459 -17.762   6.759  0.00  0.00     0.275 HD
ENDBRANCH   4   6
BRANCH   4  10
ATOM     10  C   MOL d          19.999 -15.417   7.127  0.00  0.00     0.204 C 
ATOM     11  OXT MOL d          20.062 -15.714   5.896  0.00  0.00    -0.646 OA
ATOM     12  O   MOL d          19.742 -14.228   7.482  0.00  0.00    -0.646 OA
ENDBRANCH   4  10
ENDBRANCH   1   4
BRANCH   1  13
ATOM     13  CG  MOL d          22.393 -15.153   8.400  0.00  0.00    -0.061 C 
ATOM     14  H7  MOL d          22.457 -14.495   9.280  0.00  0.00     0.033 H 
ATOM     15  H8  MOL d          21.836 -14.642   7.601  0.00  0.00     0.033 H 
BRANCH  13  16
ATOM     16  CD  MOL d          23.790 -15.477   7.911  0.00  0.00    -0.044 C 
ATOM     17  H9  MOL d          24.499 -15.446   8.751  0.00  0.00     0.035 H 
ATOM     18  H10 MOL d          24.098 -14.751   7.144  0.00  0.00     0.035 H 
BRANCH  16  19
ATOM     19  CE  MOL d          23.748 -16.875   7.317  0.00  0.00     0.054 C 
ATOM     20  H11 MOL d          24.777 -17.261   7.260  0.00  0.00     0.073 H 
ATOM     21  H12 MOL d          23.151 -17.519   7.981  0.00  0.00     0.073 H 
BRANCH  19  22
ATOM     22  N1  MOL d          23.169 -16.919   5.996  0.00  0.00    -0.156 N 
ATOM     23  O2  MOL d          22.570 -18.026   5.600  0.00  0.00    -0.537 OA
ATOM     24  O1  MOL d          23.268 -15.899   5.171  0.00  0.00    -0.537 OA
ENDBRANCH  19  22
ENDBRANCH  16  19
ENDBRANCH  13  16
ENDBRANCH   1  13
TORSDOF 7
ENDMDL
