MODEL 1
REMARK VINA RESULT:      -5.3      0.000      0.000
REMARK  5 active torsions:
REMARK  status: ('A' for Active; 'I' for Inactive)
REMARK    1  A    between atoms: C2_3  and  O1_2 
REMARK    2  A    between atoms: C4_7  and  O2_4 
REMARK    3  A    between atoms: C12_18  and  O5_10 
REMARK    4  A    between atoms: C13_19  and  O6_12 
REMARK    5  A    between atoms: C10_16  and  C9_15 
ROOT
ATOM      1  C1  LU2 d          20.519  40.782  41.486  0.00  0.00    -0.017 A 
ATOM      2  C2  LU2 d          21.020  41.102  42.724  0.00  0.00     0.071 A 
ATOM      3  C3  LU2 d          21.984  42.105  42.860  0.00  0.00    -0.018 A 
ATOM      4  O3  LU2 d          23.257  43.931  39.345  0.00  0.00    -0.287 OA
ATOM      5  C4  LU2 d          22.430  42.783  41.740  0.00  0.00     0.085 A 
ATOM      6  O4  LU2 d          20.455  41.100  39.210  0.00  0.00    -0.309 OA
ATOM      7  C5  LU2 d          21.924  42.460  40.478  0.00  0.00     0.081 A 
ATOM      8  C6  LU2 d          20.988  41.462  40.377  0.00  0.00     0.095 A 
ATOM      9  C7  LU2 d          22.357  43.091  39.336  0.00  0.00     0.190 A 
ATOM     10  C8  LU2 d          21.871  42.654  38.127  0.00  0.00    -0.000 A 
ATOM     11  C9  LU2 d          20.888  41.692  38.097  0.00  0.00     0.090 A 
ATOM     12  H1  LU2 d          19.767  40.007  41.380  0.00  0.00     0.092 H 
ATOM     13  H4  LU2 d          22.381  42.350  43.838  0.00  0.00     0.092 H 
ATOM     14  H7  LU2 d          22.262  43.066  37.198  0.00  0.00     0.094 H 
ENDROOT
BRANCH  11  15
ATOM     15  C10 LU2 d          20.359  41.242  36.932  0.00  0.00     0.001 A 
ATOM     16  C11 LU2 d          20.872  41.624  35.665  0.00  0.00    -0.036 A 
ATOM     17  C12 LU2 d          20.301  41.171  34.486  0.00  0.00     0.099 A 
ATOM     18  H8  LU2 d          21.730  42.284  35.619  0.00  0.00     0.089 H 
ATOM     19  C13 LU2 d          19.218  40.327  34.711  0.00  0.00     0.098 A 
ATOM     20  C14 LU2 d          18.702  39.943  35.937  0.00  0.00    -0.047 A 
ATOM     21  C15 LU2 d          19.272  40.405  37.073  0.00  0.00    -0.068 A 
ATOM     22  H9  LU2 d          17.847  39.278  35.986  0.00  0.00     0.087 H 
ATOM     23  H10 LU2 d          18.892  40.130  38.049  0.00  0.00     0.085 H 
BRANCH  17  24
ATOM     24  O5  LU2 d          20.707  41.508  33.147  0.00  0.00    -0.358 OA
ATOM     25  H5  LU2 d          20.098  42.139  32.782  0.00  0.00     0.217 HD
ENDBRANCH  17  24
BRANCH  19  26
ATOM     26  O6  LU2 d          18.604  39.835  33.653  0.00  0.00    -0.358 OA
ATOM     27  H6  LU2 d          18.313  40.548  33.097  0.00  0.00     0.217 HD
ENDBRANCH  19  26
ENDBRANCH  11  15
BRANCH   2  28
ATOM     28  O1  LU2 d          20.601  40.419  43.779  0.00  0.00    -0.361 OA
ATOM     29  H2  LU2 d          21.205  39.707  43.955  0.00  0.00     0.217 HD
ENDBRANCH   2  28
BRANCH   5  30
ATOM     30  O2  LU2 d          23.346  43.744  41.900  0.00  0.00    -0.360 OA
ATOM     31  H3  LU2 d          24.149  43.492  41.458  0.00  0.00     0.217 HD
ENDBRANCH   5  30
TORSDOF 5
ENDMDL
MODEL 2
REMARK VINA RESULT:      -3.1      1.323      6.649
REMARK  5 active torsions:
REMARK  status: ('A' for Active; 'I' for Inactive)
REMARK    1  A    between atoms: C2_3  and  O1_2 
REMARK    2  A    between atoms: C4_7  and  O2_4 
REMARK    3  A    between atoms: C12_18  and  O5_10 
REMARK    4  A    between atoms: C13_19  and  O6_12 
REMARK    5  A    between atoms: C10_16  and  C9_15 
ROOT
ATOM      1  C1  LU2 d          19.700  40.545  36.391  0.00  0.00    -0.017 A 
ATOM      2  C2  LU2 d          19.550  40.486  35.027  0.00  0.00     0.071 A 
ATOM      3  C3  LU2 d          20.348  41.275  34.193  0.00  0.00    -0.018 A 
ATOM      4  O3  LU2 d          23.058  43.804  36.082  0.00  0.00    -0.287 OA
ATOM      5  C4  LU2 d          21.298  42.114  34.746  0.00  0.00     0.085 A 
ATOM      6  O4  LU2 d          20.736  41.403  38.256  0.00  0.00    -0.309 OA
ATOM      7  C5  LU2 d          21.453  42.178  36.134  0.00  0.00     0.081 A 
ATOM      8  C6  LU2 d          20.646  41.401  36.925  0.00  0.00     0.095 A 
ATOM      9  C7  LU2 d          22.367  43.017  36.727  0.00  0.00     0.190 A 
ATOM     10  C8  LU2 d          22.395  43.081  38.100  0.00  0.00    -0.000 A 
ATOM     11  C9  LU2 d          21.605  42.229  38.836  0.00  0.00     0.090 A 
ATOM     12  H1  LU2 d          19.086  39.929  37.039  0.00  0.00     0.092 H 
ATOM     13  H4  LU2 d          20.222  41.230  33.117  0.00  0.00     0.092 H 
ATOM     14  H7  LU2 d          23.040  43.801  38.601  0.00  0.00     0.094 H 
ENDROOT
BRANCH  11  15
ATOM     15  C10 LU2 d          21.612  42.237  40.193  0.00  0.00     0.001 A 
ATOM     16  C11 LU2 d          21.288  41.091  40.963  0.00  0.00    -0.036 A 
ATOM     17  C12 LU2 d          21.278  41.128  42.349  0.00  0.00     0.099 A 
ATOM     18  H8  LU2 d          21.044  40.164  40.456  0.00  0.00     0.089 H 
ATOM     19  C13 LU2 d          21.620  42.379  42.849  0.00  0.00     0.098 A 
ATOM     20  C14 LU2 d          21.938  43.511  42.116  0.00  0.00    -0.047 A 
ATOM     21  C15 LU2 d          21.934  43.450  40.765  0.00  0.00    -0.068 A 
ATOM     22  H9  LU2 d          22.189  44.437  42.621  0.00  0.00     0.087 H 
ATOM     23  H10 LU2 d          22.172  44.316  40.159  0.00  0.00     0.085 H 
BRANCH  17  24
ATOM     24  O5  LU2 d          20.939  40.046  43.237  0.00  0.00    -0.358 OA
ATOM     25  H5  LU2 d          21.404  39.261  42.971  0.00  0.00     0.217 HD
ENDBRANCH  17  24
BRANCH  19  26
ATOM     26  O6  LU2 d          21.646  42.522  44.159  0.00  0.00    -0.358 OA
ATOM     27  H6  LU2 d          21.561  41.670  44.571  0.00  0.00     0.217 HD
ENDBRANCH  19  26
ENDBRANCH  11  15
BRANCH   2  28
ATOM     28  O1  LU2 d          18.614  39.698  34.519  0.00  0.00    -0.361 OA
ATOM     29  H2  LU2 d          19.017  38.908  34.178  0.00  0.00     0.217 HD
ENDBRANCH   2  28
BRANCH   5  30
ATOM     30  O2  LU2 d          22.053  42.851  33.925  0.00  0.00    -0.360 OA
ATOM     31  H3  LU2 d          22.463  43.553  34.418  0.00  0.00     0.217 HD
ENDBRANCH   5  30
TORSDOF 5
ENDMDL
MODEL 3
REMARK VINA RESULT:      -3.1      1.269      6.600
REMARK  5 active torsions:
REMARK  status: ('A' for Active; 'I' for Inactive)
REMARK    1  A    between atoms: C2_3  and  O1_2 
REMARK    2  A    between atoms: C4_7  and  O2_4 
REMARK    3  A    between atoms: C12_18  and  O5_10 
REMARK    4  A    between atoms: C13_19  and  O6_12 
REMARK    5  A    between atoms: C10_16  and  C9_15 
ROOT
ATOM      1  C1  LU2 d          19.676  40.537  36.379  0.00  0.00    -0.017 A 
ATOM      2  C2  LU2 d          19.554  40.455  35.014  0.00  0.00     0.071 A 
ATOM      3  C3  LU2 d          20.366  41.231  34.182  0.00  0.00    -0.018 A 
ATOM      4  O3  LU2 d          23.036  43.796  36.079  0.00  0.00    -0.287 OA
ATOM      5  C4  LU2 d          21.304  42.080  34.738  0.00  0.00     0.085 A 
ATOM      6  O4  LU2 d          20.676  41.428  38.248  0.00  0.00    -0.309 OA
ATOM      7  C5  LU2 d          21.432  42.169  36.127  0.00  0.00     0.081 A 
ATOM      8  C6  LU2 d          20.611  41.404  36.917  0.00  0.00     0.095 A 
ATOM      9  C7  LU2 d          22.334  43.018  36.724  0.00  0.00     0.190 A 
ATOM     10  C8  LU2 d          22.335  43.106  38.095  0.00  0.00    -0.000 A 
ATOM     11  C9  LU2 d          21.532  42.266  38.831  0.00  0.00     0.090 A 
ATOM     12  H1  LU2 d          19.051  39.931  37.026  0.00  0.00     0.092 H 
ATOM     13  H4  LU2 d          20.261  41.167  33.105  0.00  0.00     0.092 H 
ATOM     14  H7  LU2 d          22.969  43.836  38.597  0.00  0.00     0.094 H 
ENDROOT
BRANCH  11  15
ATOM     15  C10 LU2 d          21.512  42.298  40.187  0.00  0.00     0.001 A 
ATOM     16  C11 LU2 d          21.908  43.441  40.929  0.00  0.00    -0.036 A 
ATOM     17  C12 LU2 d          21.904  43.443  42.315  0.00  0.00     0.099 A 
ATOM     18  H8  LU2 d          22.221  44.333  40.399  0.00  0.00     0.089 H 
ATOM     19  C13 LU2 d          21.470  42.233  42.846  0.00  0.00     0.098 A 
ATOM     20  C14 LU2 d          21.080  41.106  42.142  0.00  0.00    -0.047 A 
ATOM     21  C15 LU2 d          21.101  41.127  40.790  0.00  0.00    -0.068 A 
ATOM     22  H9  LU2 d          20.761  40.215  42.670  0.00  0.00     0.087 H 
ATOM     23  H10 LU2 d          20.808  40.263  40.206  0.00  0.00     0.085 H 
BRANCH  17  24
ATOM     24  O5  LU2 d          22.309  44.523  43.177  0.00  0.00    -0.358 OA
ATOM     25  H5  LU2 d          22.000  44.356  44.059  0.00  0.00     0.217 HD
ENDBRANCH  17  24
BRANCH  19  26
ATOM     26  O6  LU2 d          21.423  42.130  44.159  0.00  0.00    -0.358 OA
ATOM     27  H6  LU2 d          20.769  41.485  44.402  0.00  0.00     0.217 HD
ENDBRANCH  19  26
ENDBRANCH  11  15
BRANCH   2  28
ATOM     28  O1  LU2 d          18.628  39.657  34.502  0.00  0.00    -0.361 OA
ATOM     29  H2  LU2 d          18.064  39.339  35.198  0.00  0.00     0.217 HD
ENDBRANCH   2  28
BRANCH   5  30
ATOM     30  O2  LU2 d          22.074  42.804  33.920  0.00  0.00    -0.360 OA
ATOM     31  H3  LU2 d          21.666  42.852  33.062  0.00  0.00     0.217 HD
ENDBRANCH   5  30
TORSDOF 5
ENDMDL
