MODEL 1
REMARK VINA RESULT:      -7.4      0.000      0.000
REMARK  2 active torsions:
REMARK  status: ('A' for Active; 'I' for Inactive)
REMARK    1  A    between atoms: C6_1  and  N4_2 
REMARK    2  A    between atoms: C8_7  and  N2_8 
ROOT
ATOM      1  C6  DQU d          18.271  16.751  19.169  0.00  0.00     0.026 C 
ATOM      2  C1  DQU d          16.961  16.454  18.779  0.00  0.00    -0.056 C 
ATOM      3  C2  DQU d          15.977  16.251  19.723  0.00  0.00    -0.051 C 
ATOM      4  C3  DQU d          16.270  16.480  21.086  0.00  0.00     0.091 A 
ATOM      5  N3  DQU d          15.280  16.400  22.042  0.00  0.00    -0.064 NA
ATOM      6  C8  DQU d          15.521  16.574  23.314  0.00  0.00     0.701 A 
ATOM      7  N1  DQU d          16.795  16.952  23.797  0.00  0.00    -0.154 N 
ATOM      8  C7  DQU d          17.839  17.130  22.865  0.00  0.00     0.272 A 
ATOM      9  O1  DQU d          19.000  17.350  23.244  0.00  0.00    -0.267 OA
ATOM     10  C4  DQU d          17.567  16.894  21.454  0.00  0.00     0.064 A 
ATOM     11  C5  DQU d          18.540  17.076  20.478  0.00  0.00    -0.040 C 
ATOM     12  H3  DQU d          16.717  16.381  17.725  0.00  0.00     0.087 H 
ATOM     13  H4  DQU d          14.989  15.921  19.423  0.00  0.00     0.087 H 
ATOM     14  H7  DQU d          16.952  17.090  24.775  0.00  0.00     0.187 HD
ATOM     15  H8  DQU d          19.511  17.474  20.749  0.00  0.00     0.088 H 
ENDROOT
BRANCH   1  16
ATOM     16  N4  DQU d          19.290  17.037  18.112  0.00  0.00    -0.399 N 
ATOM     17  H1  DQU d          19.095  16.796  17.130  0.00  0.00     0.156 HD
ATOM     18  H2  DQU d          20.187  17.474  18.366  0.00  0.00     0.156 HD
ENDBRANCH   1  16
BRANCH   6  19
ATOM     19  N2  DQU d          14.533  16.462  24.286  0.00  0.00    -0.233 N 
ATOM     20  H5  DQU d          13.576  16.191  24.020  0.00  0.00     0.174 HD
ATOM     21  H6  DQU d          14.758  16.651  25.274  0.00  0.00     0.174 HD
ENDBRANCH   6  19
TORSDOF 2
ENDMDL
