MODEL 1
REMARK VINA RESULT:      -7.4      0.000      0.000
REMARK  2 active torsions:
REMARK  status: ('A' for Active; 'I' for Inactive)
REMARK    1  A    between atoms: C6_1  and  N4_2 
REMARK    2  A    between atoms: C8_7  and  N2_8 
ROOT
ATOM      1  C6  DQU d          18.265  16.762  19.164  0.00  0.00     0.026 C 
ATOM      2  C1  DQU d          16.955  16.464  18.775  0.00  0.00    -0.056 C 
ATOM      3  C2  DQU d          15.972  16.260  19.720  0.00  0.00    -0.051 C 
ATOM      4  C3  DQU d          16.267  16.488  21.083  0.00  0.00     0.091 A 
ATOM      5  N3  DQU d          15.278  16.407  22.041  0.00  0.00    -0.064 NA
ATOM      6  C8  DQU d          15.521  16.579  23.312  0.00  0.00     0.701 A 
ATOM      7  N1  DQU d          16.795  16.958  23.795  0.00  0.00    -0.154 N 
ATOM      8  C7  DQU d          17.838  17.137  22.861  0.00  0.00     0.272 A 
ATOM      9  O1  DQU d          18.999  17.358  23.239  0.00  0.00    -0.267 OA
ATOM     10  C4  DQU d          17.563  16.903  21.450  0.00  0.00     0.064 A 
ATOM     11  C5  DQU d          18.535  17.086  20.473  0.00  0.00    -0.040 C 
ATOM     12  H3  DQU d          16.710  16.392  17.722  0.00  0.00     0.087 H 
ATOM     13  H4  DQU d          14.984  15.929  19.421  0.00  0.00     0.087 H 
ATOM     14  H7  DQU d          16.953  17.095  24.773  0.00  0.00     0.187 HD
ATOM     15  H8  DQU d          19.506  17.485  20.743  0.00  0.00     0.088 H 
ENDROOT
BRANCH   1  16
ATOM     16  N4  DQU d          19.283  17.049  18.106  0.00  0.00    -0.399 N 
ATOM     17  H1  DQU d          19.584  16.302  17.465  0.00  0.00     0.156 HD
ATOM     18  H2  DQU d          19.681  17.995  18.017  0.00  0.00     0.156 HD
ENDBRANCH   1  16
BRANCH   6  19
ATOM     19  N2  DQU d          14.534  16.466  24.286  0.00  0.00    -0.233 N 
ATOM     20  H5  DQU d          14.707  16.817  25.238  0.00  0.00     0.174 HD
ATOM     21  H6  DQU d          13.629  16.030  24.054  0.00  0.00     0.174 HD
ENDBRANCH   6  19
TORSDOF 2
ENDMDL
MODEL 2
REMARK VINA RESULT:      -6.8      1.933      4.972
REMARK  2 active torsions:
REMARK  status: ('A' for Active; 'I' for Inactive)
REMARK    1  A    between atoms: C6_1  and  N4_2 
REMARK    2  A    between atoms: C8_7  and  N2_8 
ROOT
ATOM      1  C6  DQU d          16.135  16.494  22.985  0.00  0.00     0.026 C 
ATOM      2  C1  DQU d          17.451  16.891  23.244  0.00  0.00    -0.056 C 
ATOM      3  C2  DQU d          18.362  17.011  22.217  0.00  0.00    -0.051 C 
ATOM      4  C3  DQU d          17.922  16.861  20.882  0.00  0.00     0.091 A 
ATOM      5  N3  DQU d          18.781  17.089  19.828  0.00  0.00    -0.064 NA
ATOM      6  C8  DQU d          18.418  16.928  18.584  0.00  0.00     0.701 A 
ATOM      7  N1  DQU d          17.091  16.604  18.219  0.00  0.00    -0.154 N 
ATOM      8  C7  DQU d          16.138  16.434  19.245  0.00  0.00     0.272 A 
ATOM      9  O1  DQU d          14.990  16.038  18.987  0.00  0.00    -0.267 OA
ATOM     10  C4  DQU d          16.565  16.576  20.630  0.00  0.00     0.064 A 
ATOM     11  C5  DQU d          15.675  16.448  21.690  0.00  0.00    -0.040 C 
ATOM     12  H3  DQU d          17.757  17.106  24.261  0.00  0.00     0.087 H 
ATOM     13  H4  DQU d          19.405  17.218  22.430  0.00  0.00     0.087 H 
ATOM     14  H7  DQU d          16.835  16.497  17.258  0.00  0.00     0.187 HD
ATOM     15  H8  DQU d          14.617  16.313  21.496  0.00  0.00     0.088 H 
ENDROOT
BRANCH   1  16
ATOM     16  N4  DQU d          15.160  16.450  24.118  0.00  0.00    -0.399 N 
ATOM     17  H1  DQU d          14.475  15.683  24.179  0.00  0.00     0.156 HD
ATOM     18  H2  DQU d          15.173  17.185  24.839  0.00  0.00     0.156 HD
ENDBRANCH   1  16
BRANCH   6  19
ATOM     19  N2  DQU d          19.290  17.125  17.517  0.00  0.00    -0.233 N 
ATOM     20  H5  DQU d          20.086  16.487  17.378  0.00  0.00     0.174 HD
ATOM     21  H6  DQU d          19.138  17.909  16.866  0.00  0.00     0.174 HD
ENDBRANCH   6  19
TORSDOF 2
ENDMDL
MODEL 3
REMARK VINA RESULT:      -5.4      1.863      2.661
REMARK  2 active torsions:
REMARK  status: ('A' for Active; 'I' for Inactive)
REMARK    1  A    between atoms: C6_1  and  N4_2 
REMARK    2  A    between atoms: C8_7  and  N2_8 
ROOT
ATOM      1  C6  DQU d          18.783  17.103  18.600  0.00  0.00     0.026 C 
ATOM      2  C1  DQU d          19.631  17.290  19.696  0.00  0.00    -0.056 C 
ATOM      3  C2  DQU d          19.130  17.278  20.980  0.00  0.00    -0.051 C 
ATOM      4  C3  DQU d          17.774  16.939  21.189  0.00  0.00     0.091 A 
ATOM      5  N3  DQU d          17.271  16.803  22.466  0.00  0.00    -0.064 NA
ATOM      6  C8  DQU d          16.017  16.523  22.696  0.00  0.00     0.701 A 
ATOM      7  N1  DQU d          15.101  16.241  21.656  0.00  0.00    -0.154 N 
ATOM      8  C7  DQU d          15.567  16.284  20.325  0.00  0.00     0.272 A 
ATOM      9  O1  DQU d          14.782  16.157  19.372  0.00  0.00    -0.267 OA
ATOM     10  C4  DQU d          16.958  16.637  20.080  0.00  0.00     0.064 A 
ATOM     11  C5  DQU d          17.492  16.672  18.797  0.00  0.00    -0.040 C 
ATOM     12  H3  DQU d          20.691  17.447  19.535  0.00  0.00     0.087 H 
ATOM     13  H4  DQU d          19.769  17.525  21.820  0.00  0.00     0.087 H 
ATOM     14  H7  DQU d          14.147  16.018  21.859  0.00  0.00     0.187 HD
ATOM     15  H8  DQU d          16.890  16.360  17.951  0.00  0.00     0.088 H 
ENDROOT
BRANCH   1  16
ATOM     16  N4  DQU d          19.379  17.049  17.228  0.00  0.00    -0.399 N 
ATOM     17  H1  DQU d          18.884  16.559  16.470  0.00  0.00     0.156 HD
ATOM     18  H2  DQU d          20.285  17.503  17.042  0.00  0.00     0.156 HD
ENDBRANCH   1  16
BRANCH   6  19
ATOM     19  N2  DQU d          15.496  16.417  23.982  0.00  0.00    -0.233 N 
ATOM     20  H5  DQU d          14.696  15.795  24.165  0.00  0.00     0.174 HD
ATOM     21  H6  DQU d          15.911  16.962  24.752  0.00  0.00     0.174 HD
ENDBRANCH   6  19
TORSDOF 2
ENDMDL
MODEL 4
REMARK VINA RESULT:      -4.8      2.159      4.143
REMARK  2 active torsions:
REMARK  status: ('A' for Active; 'I' for Inactive)
REMARK    1  A    between atoms: C6_1  and  N4_2 
REMARK    2  A    between atoms: C8_7  and  N2_8 
ROOT
ATOM      1  C6  DQU d          17.717  17.218  22.800  0.00  0.00     0.026 C 
ATOM      2  C1  DQU d          16.412  16.768  23.023  0.00  0.00    -0.056 C 
ATOM      3  C2  DQU d          15.584  16.464  21.964  0.00  0.00    -0.051 C 
ATOM      4  C3  DQU d          16.108  16.480  20.651  0.00  0.00     0.091 A 
ATOM      5  N3  DQU d          15.340  16.070  19.582  0.00  0.00    -0.064 NA
ATOM      6  C8  DQU d          15.781  16.102  18.353  0.00  0.00     0.701 A 
ATOM      7  N1  DQU d          17.109  16.468  18.035  0.00  0.00    -0.154 N 
ATOM      8  C7  DQU d          17.976  16.825  19.089  0.00  0.00     0.272 A 
ATOM      9  O1  DQU d          19.114  17.262  18.857  0.00  0.00    -0.267 OA
ATOM     10  C4  DQU d          17.461  16.823  20.451  0.00  0.00     0.064 A 
ATOM     11  C5  DQU d          18.265  17.138  21.541  0.00  0.00    -0.040 C 
ATOM     12  H3  DQU d          16.048  16.658  24.038  0.00  0.00     0.087 H 
ATOM     13  H4  DQU d          14.543  16.216  22.135  0.00  0.00     0.087 H 
ATOM     14  H7  DQU d          17.426  16.474  17.086  0.00  0.00     0.187 HD
ATOM     15  H8  DQU d          19.324  17.319  21.398  0.00  0.00     0.088 H 
ENDROOT
BRANCH   1  16
ATOM     16  N4  DQU d          18.606  17.465  23.978  0.00  0.00    -0.399 N 
ATOM     17  H1  DQU d          19.481  16.933  24.084  0.00  0.00     0.156 HD
ATOM     18  H2  DQU d          18.342  18.168  24.683  0.00  0.00     0.156 HD
ENDBRANCH   1  16
BRANCH   6  19
ATOM     19  N2  DQU d          15.000  15.720  17.266  0.00  0.00    -0.233 N 
ATOM     20  H5  DQU d          15.416  15.170  16.501  0.00  0.00     0.174 HD
ATOM     21  H6  DQU d          14.005  15.987  17.228  0.00  0.00     0.174 HD
ENDBRANCH   6  19
TORSDOF 2
ENDMDL
