MODEL 1
REMARK VINA RESULT:     -10.5      0.000      0.000
REMARK  9 active torsions:
REMARK  status: ('A' for Active; 'I' for Inactive)
REMARK    1  A    between atoms: C9_2  and  O37_1 
REMARK    2  A    between atoms: C7_6  and  C6_7 
REMARK    3  A    between atoms: N3_14  and  C25_28 
REMARK    4  A    between atoms: N2_17  and  C21_26 
REMARK    5  A    between atoms: C21_26  and  C26_36 
REMARK    6  A    between atoms: C23_30  and  N4_31 
REMARK    7  A    between atoms: N4_31  and  C28_32 
REMARK    8  A    between atoms: C22_33  and  O6_34 
REMARK    9  A    between atoms: O6_34  and  C27_35 
ROOT
ATOM      1  C21 UCN d           5.629   4.170  14.525  0.00  0.00     0.168 C 
ATOM      2  O4  UCN d           5.590   3.740  15.873  0.00  0.00    -0.333 OA
ATOM      3  C25 UCN d           4.504   3.894  16.795  0.00  0.00     0.115 C 
ATOM      4  C24 UCN d           3.146   3.538  16.070  0.00  0.00     0.005 C 
ATOM      5  C23 UCN d           3.351   3.120  14.586  0.00  0.00     0.134 C 
ATOM      6  C22 UCN d           4.199   4.195  13.806  0.00  0.00     0.113 C 
ATOM      7  H12 UCN d           4.655   3.231  17.659  0.00  0.00     0.118 H 
ATOM      8  H13 UCN d           2.489   4.420  16.100  0.00  0.00     0.042 H 
ATOM      9  H14 UCN d           2.667   2.707  16.608  0.00  0.00     0.042 H 
ATOM     10  H15 UCN d           3.896   2.165  14.549  0.00  0.00     0.088 H 
ATOM     11  H21 UCN d           4.282   3.966  12.733  0.00  0.00     0.094 H 
ENDROOT
BRANCH   5  12
ATOM     12  N4  UCN d           1.904   2.908  13.983  0.00  0.00    -0.072 N 
ATOM     13  H16 UCN d           1.427   3.794  13.950  0.00  0.00     0.277 HD
ATOM     14  H17 UCN d           1.391   2.271  14.572  0.00  0.00     0.277 HD
BRANCH  12  15
ATOM     15  C28 UCN d           1.982   2.340  12.596  0.00  0.00     0.065 C 
ATOM     16  H18 UCN d           0.965   2.201  12.199  0.00  0.00     0.067 H 
ATOM     17  H19 UCN d           2.499   1.369  12.626  0.00  0.00     0.067 H 
ATOM     18  H20 UCN d           2.538   3.032  11.947  0.00  0.00     0.067 H 
ENDBRANCH  12  15
ENDBRANCH   5  12
BRANCH   6  19
ATOM     19  O6  UCN d           3.541   5.473  14.022  0.00  0.00    -0.384 OA
BRANCH  19  20
ATOM     20  C27 UCN d           4.443   6.567  13.948  0.00  0.00     0.005 C 
ATOM     21  H22 UCN d           3.895   7.505  14.118  0.00  0.00     0.066 H 
ATOM     22  H23 UCN d           4.911   6.590  12.952  0.00  0.00     0.066 H 
ATOM     23  H24 UCN d           5.221   6.452  14.716  0.00  0.00     0.066 H 
ENDBRANCH  19  20
ENDBRANCH   6  19
BRANCH   3  24
ATOM     24  N3  UCN d           4.423   5.303  17.245  0.00  0.00    -0.316 N 
ATOM     25  C20 UCN d           3.330   5.837  17.868  0.00  0.00     0.048 A 
ATOM     26  C5  UCN d           3.701   7.116  18.441  0.00  0.00     0.004 A 
ATOM     27  C1  UCN d           1.999   5.303  17.993  0.00  0.00    -0.056 A 
ATOM     28  C6  UCN d           5.064   7.324  18.124  0.00  0.00     0.022 A 
ATOM     29  C4  UCN d           2.703   7.832  19.137  0.00  0.00    -0.070 A 
ATOM     30  C19 UCN d           5.544   6.190  17.362  0.00  0.00     0.077 A 
ATOM     31  C18 UCN d           6.844   6.108  16.888  0.00  0.00     0.077 A 
ATOM     32  N2  UCN d           7.543   5.118  16.098  0.00  0.00    -0.308 N 
ATOM     33  C11 UCN d           7.820   7.171  17.142  0.00  0.00     0.017 A 
ATOM     34  C17 UCN d           8.895   5.524  15.873  0.00  0.00     0.049 A 
ATOM     35  C12 UCN d           9.055   6.808  16.531  0.00  0.00     0.004 A 
ATOM     36  C16 UCN d           9.982   4.965  15.187  0.00  0.00    -0.056 A 
ATOM     37  C13 UCN d          10.309   7.453  16.459  0.00  0.00    -0.070 A 
ATOM     38  C14 UCN d          11.400   6.895  15.779  0.00  0.00    -0.082 A 
ATOM     39  H8  UCN d          10.433   8.413  16.947  0.00  0.00     0.084 H 
ATOM     40  C15 UCN d          11.207   5.614  15.132  0.00  0.00    -0.081 A 
ATOM     41  H9  UCN d          12.356   7.405  15.739  0.00  0.00     0.083 H 
ATOM     42  H10 UCN d          12.031   5.157  14.597  0.00  0.00     0.083 H 
ATOM     43  H11 UCN d           9.863   4.008  14.692  0.00  0.00     0.087 H 
ATOM     44  C10 UCN d           7.347   8.301  17.909  0.00  0.00     0.020 A 
ATOM     45  C9  UCN d           8.151   9.545  18.308  0.00  0.00     0.131 A 
ATOM     46  C7  UCN d           6.097   8.392  18.360  0.00  0.00     0.057 A 
ATOM     47  N1  UCN d           7.114  10.263  19.014  0.00  0.00    -0.326 N 
ATOM     48  H2  UCN d           9.009   9.304  18.953  0.00  0.00     0.126 H 
ATOM     49  C8  UCN d           5.906   9.681  19.093  0.00  0.00     0.255 A 
ATOM     50  H3  UCN d           7.288  11.158  19.426  0.00  0.00     0.165 HD
ATOM     51  O5  UCN d           4.897  10.111  19.632  0.00  0.00    -0.268 OA
ATOM     52  C3  UCN d           1.417   7.333  19.268  0.00  0.00    -0.082 A 
ATOM     53  H7  UCN d           2.947   8.791  19.579  0.00  0.00     0.084 H 
ATOM     54  C2  UCN d           1.052   6.062  18.695  0.00  0.00    -0.081 A 
ATOM     55  H6  UCN d           0.673   7.908  19.809  0.00  0.00     0.083 H 
ATOM     56  H5  UCN d           0.040   5.691  18.809  0.00  0.00     0.083 H 
ATOM     57  H4  UCN d           1.738   4.346  17.558  0.00  0.00     0.087 H 
BRANCH  45  58
ATOM     58  O37 UCN d           8.590  10.257  17.156  0.00  0.00    -0.372 OA
ATOM     59  H1  UCN d           9.270   9.758  16.716  0.00  0.00     0.212 HD
ENDBRANCH  45  58
ENDBRANCH   3  24
BRANCH   1  60
ATOM     60  C26 UCN d           6.499   3.127  13.831  0.00  0.00    -0.028 C 
ATOM     61  H25 UCN d           6.009   2.144  13.889  0.00  0.00     0.034 H 
ATOM     62  H26 UCN d           7.479   3.078  14.328  0.00  0.00     0.034 H 
ATOM     63  H27 UCN d           6.636   3.408  12.776  0.00  0.00     0.034 H 
ENDBRANCH   1  60
TORSDOF 9
ENDMDL
