MODEL 1
REMARK VINA RESULT:     -11.1      0.000      0.000
REMARK  9 active torsions:
REMARK  status: ('A' for Active; 'I' for Inactive)
REMARK    1  A    between atoms: C9_2  and  O37_1 
REMARK    2  A    between atoms: C7_6  and  C6_7 
REMARK    3  A    between atoms: N3_14  and  C25_28 
REMARK    4  A    between atoms: N2_17  and  C21_26 
REMARK    5  A    between atoms: C21_26  and  C26_36 
REMARK    6  A    between atoms: C23_30  and  N4_31 
REMARK    7  A    between atoms: N4_31  and  C28_32 
REMARK    8  A    between atoms: C22_33  and  O6_34 
REMARK    9  A    between atoms: O6_34  and  C27_35 
ROOT
ATOM      1  C21 UCN d           5.693   4.269  13.595  0.00  0.00     0.168 C 
ATOM      2  O4  UCN d           6.099   3.537  14.736  0.00  0.00    -0.333 OA
ATOM      3  C25 UCN d           5.781   3.827  16.103  0.00  0.00     0.115 C 
ATOM      4  C24 UCN d           4.252   4.211  16.216  0.00  0.00     0.005 C 
ATOM      5  C23 UCN d           3.520   4.164  14.844  0.00  0.00     0.134 C 
ATOM      6  C22 UCN d           4.287   5.015  13.762  0.00  0.00     0.113 C 
ATOM      7  H12 UCN d           5.996   2.949  16.728  0.00  0.00     0.118 H 
ATOM      8  H13 UCN d           4.174   5.230  16.623  0.00  0.00     0.042 H 
ATOM      9  H14 UCN d           3.761   3.504  16.902  0.00  0.00     0.042 H 
ATOM     10  H15 UCN d           3.478   3.124  14.489  0.00  0.00     0.088 H 
ATOM     11  H21 UCN d           3.743   5.071  12.808  0.00  0.00     0.094 H 
ENDROOT
BRANCH   5  12
ATOM     12  N4  UCN d           2.047   4.675  15.111  0.00  0.00    -0.072 N 
ATOM     13  H16 UCN d           1.535   4.674  14.243  0.00  0.00     0.277 HD
ATOM     14  H17 UCN d           2.083   5.612  15.479  0.00  0.00     0.277 HD
BRANCH  12  15
ATOM     15  C28 UCN d           1.345   3.788  16.097  0.00  0.00     0.065 C 
ATOM     16  H18 UCN d           0.823   2.983  15.559  0.00  0.00     0.067 H 
ATOM     17  H19 UCN d           0.615   4.380  16.668  0.00  0.00     0.067 H 
ATOM     18  H20 UCN d           2.081   3.350  16.787  0.00  0.00     0.067 H 
ENDBRANCH  12  15
ENDBRANCH   5  12
BRANCH   6  19
ATOM     19  O6  UCN d           4.476   6.337  14.338  0.00  0.00    -0.384 OA
BRANCH  19  20
ATOM     20  C27 UCN d           5.097   7.238  13.435  0.00  0.00     0.005 C 
ATOM     21  H22 UCN d           5.889   6.714  12.880  0.00  0.00     0.066 H 
ATOM     22  H23 UCN d           5.536   8.076  13.997  0.00  0.00     0.066 H 
ATOM     23  H24 UCN d           4.348   7.623  12.728  0.00  0.00     0.066 H 
ENDBRANCH  19  20
ENDBRANCH   6  19
BRANCH   3  24
ATOM     24  N3  UCN d           6.576   4.988  16.568  0.00  0.00    -0.316 N 
ATOM     25  C20 UCN d           7.867   5.223  16.186  0.00  0.00     0.048 A 
ATOM     26  C5  UCN d           8.224   6.576  16.565  0.00  0.00     0.004 A 
ATOM     27  C1  UCN d           8.794   4.349  15.516  0.00  0.00    -0.056 A 
ATOM     28  C6  UCN d           7.089   7.134  17.198  0.00  0.00     0.022 A 
ATOM     29  C4  UCN d           9.528   7.017  16.251  0.00  0.00    -0.070 A 
ATOM     30  C19 UCN d           6.031   6.145  17.216  0.00  0.00     0.077 A 
ATOM     31  C18 UCN d           4.793   6.390  17.788  0.00  0.00     0.077 A 
ATOM     32  N2  UCN d           3.608   5.577  17.956  0.00  0.00    -0.308 N 
ATOM     33  C11 UCN d           4.476   7.681  18.406  0.00  0.00     0.017 A 
ATOM     34  C17 UCN d           2.587   6.316  18.632  0.00  0.00     0.049 A 
ATOM     35  C12 UCN d           3.143   7.629  18.908  0.00  0.00     0.004 A 
ATOM     36  C16 UCN d           1.282   6.024  19.048  0.00  0.00    -0.056 A 
ATOM     37  C13 UCN d           2.342   8.573  19.586  0.00  0.00    -0.070 A 
ATOM     38  C14 UCN d           1.034   8.287  19.998  0.00  0.00    -0.082 A 
ATOM     39  H8  UCN d           2.754   9.554  19.796  0.00  0.00     0.084 H 
ATOM     40  C15 UCN d           0.511   6.968  19.711  0.00  0.00    -0.081 A 
ATOM     41  H9  UCN d           0.434   9.028  20.515  0.00  0.00     0.083 H 
ATOM     42  H10 UCN d          -0.498   6.715  20.018  0.00  0.00     0.083 H 
ATOM     43  H11 UCN d           0.867   5.042  18.847  0.00  0.00     0.087 H 
ATOM     44  C10 UCN d           5.526   8.673  18.383  0.00  0.00     0.020 A 
ATOM     45  C9  UCN d           5.465  10.093  18.961  0.00  0.00     0.131 A 
ATOM     46  C7  UCN d           6.722   8.443  17.844  0.00  0.00     0.057 A 
ATOM     47  N1  UCN d           6.806  10.524  18.633  0.00  0.00    -0.326 N 
ATOM     48  H2  UCN d           4.695  10.712  18.478  0.00  0.00     0.126 H 
ATOM     49  C8  UCN d           7.597   9.646  17.994  0.00  0.00     0.255 A 
ATOM     50  H3  UCN d           7.131  11.439  18.873  0.00  0.00     0.165 HD
ATOM     51  O5  UCN d           8.754   9.800  17.633  0.00  0.00    -0.268 OA
ATOM     52  C3  UCN d          10.434   6.190  15.606  0.00  0.00    -0.082 A 
ATOM     53  H7  UCN d           9.827   8.024  16.519  0.00  0.00     0.084 H 
ATOM     54  C2  UCN d          10.075   4.845  15.233  0.00  0.00    -0.081 A 
ATOM     55  H6  UCN d          11.427   6.560  15.379  0.00  0.00     0.083 H 
ATOM     56  H5  UCN d          10.799   4.215  14.730  0.00  0.00     0.083 H 
ATOM     57  H4  UCN d           8.512   3.340  15.240  0.00  0.00     0.087 H 
BRANCH  45  58
ATOM     58  O37 UCN d           5.254  10.060  20.368  0.00  0.00    -0.372 OA
ATOM     59  H1  UCN d           6.094  10.047  20.813  0.00  0.00     0.212 HD
ENDBRANCH  45  58
ENDBRANCH   3  24
BRANCH   1  60
ATOM     60  C26 UCN d           5.548   3.207  12.510  0.00  0.00    -0.028 C 
ATOM     61  H25 UCN d           6.515   3.063  12.007  0.00  0.00     0.034 H 
ATOM     62  H26 UCN d           4.798   3.535  11.774  0.00  0.00     0.034 H 
ATOM     63  H27 UCN d           5.226   2.259  12.965  0.00  0.00     0.034 H 
ENDBRANCH   1  60
TORSDOF 9
ENDMDL
MODEL 2
REMARK VINA RESULT:     -10.8      1.051      5.289
REMARK  9 active torsions:
REMARK  status: ('A' for Active; 'I' for Inactive)
REMARK    1  A    between atoms: C9_2  and  O37_1 
REMARK    2  A    between atoms: C7_6  and  C6_7 
REMARK    3  A    between atoms: N3_14  and  C25_28 
REMARK    4  A    between atoms: N2_17  and  C21_26 
REMARK    5  A    between atoms: C21_26  and  C26_36 
REMARK    6  A    between atoms: C23_30  and  N4_31 
REMARK    7  A    between atoms: N4_31  and  C28_32 
REMARK    8  A    between atoms: C22_33  and  O6_34 
REMARK    9  A    between atoms: O6_34  and  C27_35 
ROOT
ATOM      1  C21 UCN d           4.649   4.160  14.690  0.00  0.00     0.168 C 
ATOM      2  O4  UCN d           4.950   3.808  16.027  0.00  0.00    -0.333 OA
ATOM      3  C25 UCN d           4.122   4.012  17.178  0.00  0.00     0.115 C 
ATOM      4  C24 UCN d           2.633   3.614  16.832  0.00  0.00     0.005 C 
ATOM      5  C23 UCN d           2.472   3.112  15.369  0.00  0.00     0.134 C 
ATOM      6  C22 UCN d           3.086   4.142  14.345  0.00  0.00     0.113 C 
ATOM      7  H12 UCN d           4.492   3.400  18.014  0.00  0.00     0.118 H 
ATOM      8  H13 UCN d           1.991   4.495  16.975  0.00  0.00     0.042 H 
ATOM      9  H14 UCN d           2.314   2.814  17.517  0.00  0.00     0.042 H 
ATOM     10  H15 UCN d           3.006   2.158  15.251  0.00  0.00     0.088 H 
ATOM     11  H21 UCN d           2.905   3.853  13.300  0.00  0.00     0.094 H 
ENDROOT
BRANCH   5  12
ATOM     12  N4  UCN d           0.925   2.863  15.154  0.00  0.00    -0.072 N 
ATOM     13  H16 UCN d           0.776   2.492  14.229  0.00  0.00     0.277 HD
ATOM     14  H17 UCN d           0.434   3.738  15.247  0.00  0.00     0.277 HD
BRANCH  12  15
ATOM     15  C28 UCN d           0.395   1.891  16.165  0.00  0.00     0.065 C 
ATOM     16  H18 UCN d          -0.122   2.440  16.966  0.00  0.00     0.067 H 
ATOM     17  H19 UCN d           1.229   1.316  16.594  0.00  0.00     0.067 H 
ATOM     18  H20 UCN d          -0.312   1.203  15.677  0.00  0.00     0.067 H 
ENDBRANCH  12  15
ENDBRANCH   5  12
BRANCH   6  19
ATOM     19  O6  UCN d           2.482   5.429  14.646  0.00  0.00    -0.384 OA
BRANCH  19  20
ATOM     20  C27 UCN d           3.381   6.510  14.451  0.00  0.00     0.005 C 
ATOM     21  H22 UCN d           3.764   6.486  13.419  0.00  0.00     0.066 H 
ATOM     22  H23 UCN d           4.221   6.420  15.156  0.00  0.00     0.066 H 
ATOM     23  H24 UCN d           2.856   7.460  14.625  0.00  0.00     0.066 H 
ENDBRANCH  19  20
ENDBRANCH   6  19
BRANCH   3  24
ATOM     24  N3  UCN d           4.133   5.445  17.557  0.00  0.00    -0.316 N 
ATOM     25  C20 UCN d           3.099   6.065  18.199  0.00  0.00     0.048 A 
ATOM     26  C5  UCN d           3.560   7.351  18.686  0.00  0.00     0.004 A 
ATOM     27  C1  UCN d           1.751   5.609  18.413  0.00  0.00    -0.056 A 
ATOM     28  C6  UCN d           4.914   7.472  18.297  0.00  0.00     0.022 A 
ATOM     29  C4  UCN d           2.633   8.152  19.389  0.00  0.00    -0.070 A 
ATOM     30  C19 UCN d           5.301   6.277  17.575  0.00  0.00     0.077 A 
ATOM     31  C18 UCN d           6.571   6.104  17.048  0.00  0.00     0.077 A 
ATOM     32  N2  UCN d           7.181   5.039  16.281  0.00  0.00    -0.308 N 
ATOM     33  C11 UCN d           7.610   7.126  17.200  0.00  0.00     0.017 A 
ATOM     34  C17 UCN d           8.539   5.363  15.973  0.00  0.00     0.049 A 
ATOM     35  C12 UCN d           8.794   6.669  16.553  0.00  0.00     0.004 A 
ATOM     36  C16 UCN d           9.562   4.714  15.269  0.00  0.00    -0.056 A 
ATOM     37  C13 UCN d          10.074   7.243  16.391  0.00  0.00    -0.070 A 
ATOM     38  C14 UCN d          11.101   6.596  15.693  0.00  0.00    -0.082 A 
ATOM     39  H8  UCN d          10.268   8.219  16.821  0.00  0.00     0.084 H 
ATOM     40  C15 UCN d          10.814   5.296  15.123  0.00  0.00    -0.081 A 
ATOM     41  H9  UCN d          12.078   7.052  15.582  0.00  0.00     0.083 H 
ATOM     42  H10 UCN d          11.588   4.769  14.576  0.00  0.00     0.083 H 
ATOM     43  H11 UCN d           9.373   3.741  14.830  0.00  0.00     0.087 H 
ATOM     44  C10 UCN d           7.230   8.316  17.926  0.00  0.00     0.020 A 
ATOM     45  C9  UCN d           8.113   9.535  18.222  0.00  0.00     0.131 A 
ATOM     46  C7  UCN d           6.010   8.495  18.428  0.00  0.00     0.057 A 
ATOM     47  N1  UCN d           7.148  10.342  18.936  0.00  0.00    -0.326 N 
ATOM     48  H2  UCN d           8.988   9.283  18.839  0.00  0.00     0.126 H 
ATOM     49  C8  UCN d           5.918   9.827  19.101  0.00  0.00     0.255 A 
ATOM     50  H3  UCN d           7.387  11.245  19.292  0.00  0.00     0.165 HD
ATOM     51  O5  UCN d           4.959  10.336  19.661  0.00  0.00    -0.268 OA
ATOM     52  C3  UCN d           1.332   7.728  19.604  0.00  0.00    -0.082 A 
ATOM     53  H7  UCN d           2.946   9.118  19.767  0.00  0.00     0.084 H 
ATOM     54  C2  UCN d           0.877   6.451  19.117  0.00  0.00    -0.081 A 
ATOM     55  H6  UCN d           0.645   8.367  20.147  0.00  0.00     0.083 H 
ATOM     56  H5  UCN d          -0.146   6.139  19.295  0.00  0.00     0.083 H 
ATOM     57  H4  UCN d           1.421   4.645  18.042  0.00  0.00     0.087 H 
BRANCH  45  58
ATOM     58  O37 UCN d           8.531  10.164  17.015  0.00  0.00    -0.372 OA
ATOM     59  H1  UCN d           9.010  10.958  17.222  0.00  0.00     0.212 HD
ENDBRANCH  45  58
ENDBRANCH   3  24
BRANCH   1  60
ATOM     60  C26 UCN d           5.337   3.081  13.861  0.00  0.00    -0.028 C 
ATOM     61  H25 UCN d           6.359   3.403  13.616  0.00  0.00     0.034 H 
ATOM     62  H26 UCN d           4.772   2.916  12.931  0.00  0.00     0.034 H 
ATOM     63  H27 UCN d           5.375   2.144  14.438  0.00  0.00     0.034 H 
ENDBRANCH   1  60
TORSDOF 9
ENDMDL
MODEL 3
REMARK VINA RESULT:      -9.1      2.108      5.426
REMARK  9 active torsions:
REMARK  status: ('A' for Active; 'I' for Inactive)
REMARK    1  A    between atoms: C9_2  and  O37_1 
REMARK    2  A    between atoms: C7_6  and  C6_7 
REMARK    3  A    between atoms: N3_14  and  C25_28 
REMARK    4  A    between atoms: N2_17  and  C21_26 
REMARK    5  A    between atoms: C21_26  and  C26_36 
REMARK    6  A    between atoms: C23_30  and  N4_31 
REMARK    7  A    between atoms: N4_31  and  C28_32 
REMARK    8  A    between atoms: C22_33  and  O6_34 
REMARK    9  A    between atoms: O6_34  and  C27_35 
ROOT
ATOM      1  C21 UCN d           6.252   4.718  14.739  0.00  0.00     0.168 C 
ATOM      2  O4  UCN d           6.066   4.062  15.979  0.00  0.00    -0.333 OA
ATOM      3  C25 UCN d           5.016   3.150  16.322  0.00  0.00     0.115 C 
ATOM      4  C24 UCN d           4.790   2.137  15.130  0.00  0.00     0.005 C 
ATOM      5  C23 UCN d           5.753   2.394  13.936  0.00  0.00     0.134 C 
ATOM      6  C22 UCN d           5.700   3.902  13.478  0.00  0.00     0.113 C 
ATOM      7  H12 UCN d           5.284   2.602  17.236  0.00  0.00     0.118 H 
ATOM      8  H13 UCN d           3.754   2.236  14.775  0.00  0.00     0.042 H 
ATOM      9  H14 UCN d           4.954   1.114  15.501  0.00  0.00     0.042 H 
ATOM     10  H15 UCN d           6.785   2.170  14.245  0.00  0.00     0.088 H 
ATOM     11  H21 UCN d           6.304   4.089  12.579  0.00  0.00     0.094 H 
ENDROOT
BRANCH   5  12
ATOM     12  N4  UCN d           5.328   1.381  12.798  0.00  0.00    -0.072 N 
ATOM     13  H16 UCN d           4.393   1.600  12.493  0.00  0.00     0.277 HD
ATOM     14  H17 UCN d           5.349   0.443  13.167  0.00  0.00     0.277 HD
BRANCH  12  15
ATOM     15  C28 UCN d           6.261   1.470  11.627  0.00  0.00     0.065 C 
ATOM     16  H18 UCN d           6.916   0.586  11.612  0.00  0.00     0.067 H 
ATOM     17  H19 UCN d           6.873   2.379  11.714  0.00  0.00     0.067 H 
ATOM     18  H20 UCN d           5.677   1.509  10.695  0.00  0.00     0.067 H 
ENDBRANCH  12  15
ENDBRANCH   5  12
BRANCH   6  19
ATOM     19  O6  UCN d           4.299   4.210  13.244  0.00  0.00    -0.384 OA
BRANCH  19  20
ATOM     20  C27 UCN d           3.983   5.560  13.545  0.00  0.00     0.005 C 
ATOM     21  H22 UCN d           3.983   6.153  12.618  0.00  0.00     0.066 H 
ATOM     22  H23 UCN d           4.734   5.966  14.240  0.00  0.00     0.066 H 
ATOM     23  H24 UCN d           2.988   5.609  14.011  0.00  0.00     0.066 H 
ENDBRANCH  19  20
ENDBRANCH   6  19
BRANCH   3  24
ATOM     24  N3  UCN d           3.752   3.895  16.530  0.00  0.00    -0.316 N 
ATOM     25  C20 UCN d           2.512   3.343  16.362  0.00  0.00     0.048 A 
ATOM     26  C5  UCN d           1.526   4.235  16.942  0.00  0.00     0.004 A 
ATOM     27  C1  UCN d           2.143   2.101  15.736  0.00  0.00    -0.056 A 
ATOM     28  C6  UCN d           2.234   5.346  17.455  0.00  0.00     0.022 A 
ATOM     29  C4  UCN d           0.172   3.839  16.874  0.00  0.00    -0.070 A 
ATOM     30  C19 UCN d           3.648   5.156  17.203  0.00  0.00     0.077 A 
ATOM     31  C18 UCN d           4.602   6.089  17.576  0.00  0.00     0.077 A 
ATOM     32  N2  UCN d           6.039   6.145  17.416  0.00  0.00    -0.308 N 
ATOM     33  C11 UCN d           4.234   7.330  18.263  0.00  0.00     0.017 A 
ATOM     34  C17 UCN d           6.557   7.351  17.983  0.00  0.00     0.049 A 
ATOM     35  C12 UCN d           5.418   8.083  18.508  0.00  0.00     0.004 A 
ATOM     36  C16 UCN d           7.839   7.905  18.097  0.00  0.00    -0.056 A 
ATOM     37  C13 UCN d           5.644   9.333  19.124  0.00  0.00    -0.070 A 
ATOM     38  C14 UCN d           6.925   9.887  19.246  0.00  0.00    -0.082 A 
ATOM     39  H8  UCN d           4.796   9.884  19.516  0.00  0.00     0.084 H 
ATOM     40  C15 UCN d           8.039   9.134  18.709  0.00  0.00    -0.081 A 
ATOM     41  H9  UCN d           7.077  10.847  19.726  0.00  0.00     0.083 H 
ATOM     42  H10 UCN d           9.042   9.537  18.787  0.00  0.00     0.083 H 
ATOM     43  H11 UCN d           8.691   7.362  17.701  0.00  0.00     0.087 H 
ATOM     44  C10 UCN d           2.825   7.520  18.523  0.00  0.00     0.020 A 
ATOM     45  C9  UCN d           2.170   8.723  19.214  0.00  0.00     0.131 A 
ATOM     46  C7  UCN d           1.899   6.633  18.160  0.00  0.00     0.057 A 
ATOM     47  N1  UCN d           0.789   8.301  19.132  0.00  0.00    -0.326 N 
ATOM     48  H2  UCN d           2.509   8.849  20.253  0.00  0.00     0.126 H 
ATOM     49  C8  UCN d           0.539   7.119  18.544  0.00  0.00     0.255 A 
ATOM     50  H3  UCN d           0.049   8.867  19.498  0.00  0.00     0.165 HD
ATOM     51  O5  UCN d          -0.544   6.582  18.365  0.00  0.00    -0.268 OA
ATOM     52  C3  UCN d          -0.202   2.647  16.276  0.00  0.00    -0.082 A 
ATOM     53  H7  UCN d          -0.590   4.482  17.298  0.00  0.00     0.084 H 
ATOM     54  C2  UCN d           0.781   1.765  15.700  0.00  0.00    -0.081 A 
ATOM     55  H6  UCN d          -1.250   2.373  16.241  0.00  0.00     0.083 H 
ATOM     56  H5  UCN d           0.467   0.837  15.236  0.00  0.00     0.083 H 
ATOM     57  H4  UCN d           2.892   1.446  15.308  0.00  0.00     0.087 H 
BRANCH  45  58
ATOM     58  O37 UCN d           2.397   9.919  18.476  0.00  0.00    -0.372 OA
ATOM     59  H1  UCN d           3.107   9.779  17.859  0.00  0.00     0.212 HD
ENDBRANCH  45  58
ENDBRANCH   3  24
BRANCH   1  60
ATOM     60  C26 UCN d           7.766   4.838  14.609  0.00  0.00    -0.028 C 
ATOM     61  H25 UCN d           8.034   4.980  13.552  0.00  0.00     0.034 H 
ATOM     62  H26 UCN d           8.241   3.920  14.987  0.00  0.00     0.034 H 
ATOM     63  H27 UCN d           8.118   5.700  15.195  0.00  0.00     0.034 H 
ENDBRANCH   1  60
TORSDOF 9
ENDMDL
MODEL 4
REMARK VINA RESULT:      -9.0      2.124      5.470
REMARK  9 active torsions:
REMARK  status: ('A' for Active; 'I' for Inactive)
REMARK    1  A    between atoms: C9_2  and  O37_1 
REMARK    2  A    between atoms: C7_6  and  C6_7 
REMARK    3  A    between atoms: N3_14  and  C25_28 
REMARK    4  A    between atoms: N2_17  and  C21_26 
REMARK    5  A    between atoms: C21_26  and  C26_36 
REMARK    6  A    between atoms: C23_30  and  N4_31 
REMARK    7  A    between atoms: N4_31  and  C28_32 
REMARK    8  A    between atoms: C22_33  and  O6_34 
REMARK    9  A    between atoms: O6_34  and  C27_35 
ROOT
ATOM      1  C21 UCN d           5.207   4.570  14.430  0.00  0.00     0.168 C 
ATOM      2  O4  UCN d           5.170   3.939  15.697  0.00  0.00    -0.333 OA
ATOM      3  C25 UCN d           4.079   3.202  16.260  0.00  0.00     0.115 C 
ATOM      4  C24 UCN d           3.463   2.251  15.159  0.00  0.00     0.005 C 
ATOM      5  C23 UCN d           4.197   2.363  13.792  0.00  0.00     0.134 C 
ATOM      6  C22 UCN d           4.293   3.864  13.322  0.00  0.00     0.113 C 
ATOM      7  H12 UCN d           4.434   2.609  17.115  0.00  0.00     0.118 H 
ATOM      8  H13 UCN d           2.406   2.517  15.015  0.00  0.00     0.042 H 
ATOM      9  H14 UCN d           3.534   1.211  15.513  0.00  0.00     0.042 H 
ATOM     10  H15 UCN d           5.221   1.974  13.896  0.00  0.00     0.088 H 
ATOM     11  H21 UCN d           4.728   3.962  12.316  0.00  0.00     0.094 H 
ENDROOT
BRANCH   5  12
ATOM     12  N4  UCN d           3.399   1.442  12.785  0.00  0.00    -0.072 N 
ATOM     13  H16 UCN d           3.785   0.511  12.813  0.00  0.00     0.277 HD
ATOM     14  H17 UCN d           3.490   1.815  11.853  0.00  0.00     0.277 HD
BRANCH  12  15
ATOM     15  C28 UCN d           1.945   1.382  13.151  0.00  0.00     0.065 C 
ATOM     16  H18 UCN d           1.749   2.073  13.984  0.00  0.00     0.067 H 
ATOM     17  H19 UCN d           1.685   0.358  13.456  0.00  0.00     0.067 H 
ATOM     18  H20 UCN d           1.336   1.672  12.283  0.00  0.00     0.067 H 
ENDBRANCH  12  15
ENDBRANCH   5  12
BRANCH   6  19
ATOM     19  O6  UCN d           2.940   4.394  13.363  0.00  0.00    -0.384 OA
BRANCH  19  20
ATOM     20  C27 UCN d           2.895   5.729  13.842  0.00  0.00     0.005 C 
ATOM     21  H22 UCN d           2.409   5.748  14.829  0.00  0.00     0.066 H 
ATOM     22  H23 UCN d           2.322   6.352  13.139  0.00  0.00     0.066 H 
ATOM     23  H24 UCN d           3.918   6.122  13.930  0.00  0.00     0.066 H 
ENDBRANCH  19  20
ENDBRANCH   6  19
BRANCH   3  24
ATOM     24  N3  UCN d           3.016   4.137  16.699  0.00  0.00    -0.316 N 
ATOM     25  C20 UCN d           1.690   3.808  16.741  0.00  0.00     0.048 A 
ATOM     26  C5  UCN d           0.984   4.824  17.498  0.00  0.00     0.004 A 
ATOM     27  C1  UCN d           1.011   2.675  16.169  0.00  0.00    -0.056 A 
ATOM     28  C6  UCN d           1.949   5.777  17.899  0.00  0.00     0.022 A 
ATOM     29  C4  UCN d          -0.409   4.663  17.662  0.00  0.00    -0.070 A 
ATOM     30  C19 UCN d           3.246   5.366  17.400  0.00  0.00     0.077 A 
ATOM     31  C18 UCN d           4.396   6.109  17.616  0.00  0.00     0.077 A 
ATOM     32  N2  UCN d           5.773   5.931  17.208  0.00  0.00    -0.308 N 
ATOM     33  C11 UCN d           4.368   7.361  18.377  0.00  0.00     0.017 A 
ATOM     34  C17 UCN d           6.579   7.007  17.696  0.00  0.00     0.049 A 
ATOM     35  C12 UCN d           5.689   7.893  18.425  0.00  0.00     0.004 A 
ATOM     36  C16 UCN d           7.938   7.333  17.594  0.00  0.00    -0.056 A 
ATOM     37  C13 UCN d           6.227   9.058  19.012  0.00  0.00    -0.070 A 
ATOM     38  C14 UCN d           7.586   9.385  18.918  0.00  0.00    -0.082 A 
ATOM     39  H8  UCN d           5.565   9.724  19.555  0.00  0.00     0.084 H 
ATOM     40  C15 UCN d           8.446   8.483  18.182  0.00  0.00    -0.081 A 
ATOM     41  H9  UCN d           7.980  10.283  19.379  0.00  0.00     0.083 H 
ATOM     42  H10 UCN d           9.503   8.708  18.089  0.00  0.00     0.083 H 
ATOM     43  H11 UCN d           8.603   6.676  17.046  0.00  0.00     0.087 H 
ATOM     44  C10 UCN d           3.077   7.770  18.883  0.00  0.00     0.020 A 
ATOM     45  C9  UCN d           2.766   9.032  19.698  0.00  0.00     0.131 A 
ATOM     46  C7  UCN d           1.966   7.067  18.672  0.00  0.00     0.057 A 
ATOM     47  N1  UCN d           1.339   8.851  19.851  0.00  0.00    -0.326 N 
ATOM     48  H2  UCN d           3.292   9.051  20.663  0.00  0.00     0.126 H 
ATOM     49  C8  UCN d           0.794   7.755  19.296  0.00  0.00     0.255 A 
ATOM     50  H3  UCN d           0.781   9.514  20.350  0.00  0.00     0.165 HD
ATOM     51  O5  UCN d          -0.379   7.415  19.300  0.00  0.00    -0.268 OA
ATOM     52  C3  UCN d          -1.079   3.578  17.119  0.00  0.00    -0.082 A 
ATOM     53  H7  UCN d          -0.967   5.403  18.224  0.00  0.00     0.084 H 
ATOM     54  C2  UCN d          -0.374   2.573  16.365  0.00  0.00    -0.081 A 
ATOM     55  H6  UCN d          -2.149   3.485  17.263  0.00  0.00     0.083 H 
ATOM     56  H5  UCN d          -0.917   1.733  15.948  0.00  0.00     0.083 H 
ATOM     57  H4  UCN d           1.553   1.925  15.605  0.00  0.00     0.087 H 
BRANCH  45  58
ATOM     58  O37 UCN d           3.068  10.206  18.951  0.00  0.00    -0.372 OA
ATOM     59  H1  UCN d           2.835  10.973  19.462  0.00  0.00     0.212 HD
ENDBRANCH  45  58
ENDBRANCH   3  24
BRANCH   1  60
ATOM     60  C26 UCN d           6.665   4.448  14.000  0.00  0.00    -0.028 C 
ATOM     61  H25 UCN d           7.232   3.911  14.774  0.00  0.00     0.034 H 
ATOM     62  H26 UCN d           7.092   5.452  13.864  0.00  0.00     0.034 H 
ATOM     63  H27 UCN d           6.722   3.893  13.052  0.00  0.00     0.034 H 
ENDBRANCH   1  60
TORSDOF 9
ENDMDL
