MODEL 1
REMARK VINA RESULT:      -8.4      0.000      0.000
REMARK  8 active torsions:
REMARK  status: ('A' for Active; 'I' for Inactive)
REMARK    1  A    between atoms: N1_1  and  C2_2 
REMARK    2  A    between atoms: C2_2  and  C3_3 
REMARK    3  A    between atoms: C6_6  and  N7_7 
REMARK       I    between atoms: N7_7  and  C8_8 
REMARK    4  A    between atoms: C8_8  and  C10_10 
REMARK    5  A    between atoms: C12_12  and  N13_13 
REMARK    6  A    between atoms: N13_13  and  C14_14 
REMARK    7  A    between atoms: C22_22  and  C27_27 
REMARK    8  A    between atoms: C27_27  and  N28_28 
ROOT
ATOM      1  C10 UI1 d          23.541  15.906  32.964  0.00  0.00     0.035 A 
ATOM      2  C11 UI1 d          23.942  17.084  33.636  0.00  0.00    -0.041 A 
ATOM      3  C12 UI1 d          23.013  18.043  33.969  0.00  0.00     0.061 A 
ATOM      4  C20 UI1 d          21.630  17.843  33.639  0.00  0.00     0.002 A 
ATOM      5  C21 UI1 d          20.687  18.847  33.968  0.00  0.00    -0.057 A 
ATOM      6  C22 UI1 d          19.322  18.669  33.658  0.00  0.00     0.008 A 
ATOM      7  C23 UI1 d          18.885  17.489  33.024  0.00  0.00    -0.069 A 
ATOM      8  C24 UI1 d          19.824  16.483  32.687  0.00  0.00    -0.071 A 
ATOM      9  C25 UI1 d          21.205  16.664  32.991  0.00  0.00    -0.023 A 
ATOM     10  C26 UI1 d          22.163  15.685  32.643  0.00  0.00    -0.057 A 
ATOM     11  H9  UI1 d          24.985  17.232  33.889  0.00  0.00     0.088 H 
ATOM     12  H14 UI1 d          21.016  19.755  34.461  0.00  0.00     0.086 H 
ATOM     13  H15 UI1 d          17.835  17.352  32.794  0.00  0.00     0.085 H 
ATOM     14  H16 UI1 d          19.491  15.575  32.198  0.00  0.00     0.084 H 
ATOM     15  H17 UI1 d          21.858  14.776  32.138  0.00  0.00     0.086 H 
ENDROOT
BRANCH   1  16
ATOM     16  C8  UI1 d          24.616  14.949  32.557  0.00  0.00     0.256 C 
ATOM     17  N7  UI1 d          24.347  14.068  31.611  0.00  0.00    -0.323 N 
ATOM     18  H8  UI1 d          23.411  13.987  31.268  0.00  0.00     0.169 HD
ATOM     19  O9  UI1 d          25.736  15.039  33.046  0.00  0.00    -0.267 OA
BRANCH  17  20
ATOM     20  C6  UI1 d          25.377  13.222  31.063  0.00  0.00     0.035 A 
ATOM     21  C5  UI1 d          26.004  13.765  29.899  0.00  0.00    -0.057 A 
ATOM     22  C4  UI1 d          27.016  13.067  29.223  0.00  0.00    -0.073 A 
ATOM     23  H7  UI1 d          25.691  14.735  29.531  0.00  0.00     0.086 H 
ATOM     24  C3  UI1 d          27.425  11.811  29.699  0.00  0.00    -0.033 A 
ATOM     25  H6  UI1 d          27.478  13.495  28.340  0.00  0.00     0.084 H 
ATOM     26  C31 UI1 d          26.812  11.259  30.854  0.00  0.00    -0.073 A 
ATOM     27  C30 UI1 d          25.775  11.968  31.541  0.00  0.00    -0.057 A 
ATOM     28  H23 UI1 d          27.132  10.290  31.220  0.00  0.00     0.084 H 
ATOM     29  H22 UI1 d          25.305  11.539  32.419  0.00  0.00     0.086 H 
BRANCH  24  30
ATOM     30  C2  UI1 d          28.529  11.044  28.957  0.00  0.00     0.103 C 
ATOM     31  H4  UI1 d          28.532   9.999  29.300  0.00  0.00     0.082 H 
ATOM     32  H5  UI1 d          28.322  11.074  27.877  0.00  0.00     0.082 H 
BRANCH  30  33
ATOM     33  N1  UI1 d          29.840  11.628  29.205  0.00  0.00    -0.075 N 
ATOM     34  H1  UI1 d          30.542  11.104  28.705  0.00  0.00     0.274 HD
ATOM     35  H2  UI1 d          30.040  11.600  30.193  0.00  0.00     0.274 HD
ATOM     36  H3  UI1 d          29.847  12.585  28.887  0.00  0.00     0.274 HD
ENDBRANCH  30  33
ENDBRANCH  24  30
ENDBRANCH  17  20
ENDBRANCH   1  16
BRANCH   3  37
ATOM     37  N13 UI1 d          23.464  19.260  34.594  0.00  0.00    -0.187 N 
ATOM     38  H10 UI1 d          23.298  20.149  34.103  0.00  0.00     0.184 HD
BRANCH  37  39
ATOM     39  C14 UI1 d          24.123  19.299  35.850  0.00  0.00     0.726 A 
ATOM     40  N15 UI1 d          24.868  20.391  36.148  0.00  0.00    -0.075 NA
ATOM     41  C16 UI1 d          25.503  20.493  37.336  0.00  0.00     0.022 A 
ATOM     42  C17 UI1 d          25.384  19.453  38.283  0.00  0.00    -0.048 A 
ATOM     43  H11 UI1 d          26.102  21.368  37.561  0.00  0.00     0.115 H 
ATOM     44  C18 UI1 d          24.611  18.334  37.940  0.00  0.00     0.022 A 
ATOM     45  H12 UI1 d          25.877  19.517  39.247  0.00  0.00     0.087 H 
ATOM     46  N19 UI1 d          23.998  18.285  36.734  0.00  0.00    -0.075 NA
ATOM     47  H13 UI1 d          24.503  17.512  38.639  0.00  0.00     0.115 H 
ENDBRANCH  37  39
ENDBRANCH   3  37
BRANCH   6  48
ATOM     48  C27 UI1 d          18.393  19.762  34.029  0.00  0.00     0.102 C 
ATOM     49  N29 UI1 d          17.079  19.593  33.951  0.00  0.00    -0.385 N 
ATOM     50  H20 UI1 d          16.694  18.693  33.629  0.00  0.00     0.157 HD
ATOM     51  H21 UI1 d          16.445  20.361  34.212  0.00  0.00     0.157 HD
BRANCH  48  52
ATOM     52  N28 UI1 d          18.867  20.904  34.438  0.00  0.00    -0.385 N 
ATOM     53  H18 UI1 d          18.224  21.666  34.698  0.00  0.00     0.157 HD
ATOM     54  H19 UI1 d          19.885  21.046  34.502  0.00  0.00     0.157 HD
ENDBRANCH  48  52
ENDBRANCH   6  48
TORSDOF 8
ENDMDL
