MODEL 1
REMARK VINA RESULT:      -8.7      0.000      0.000
REMARK  8 active torsions:
REMARK  status: ('A' for Active; 'I' for Inactive)
REMARK    1  A    between atoms: N1_1  and  C2_2 
REMARK    2  A    between atoms: C2_2  and  C3_3 
REMARK    3  A    between atoms: C6_6  and  N7_7 
REMARK       I    between atoms: N7_7  and  C8_8 
REMARK    4  A    between atoms: C8_8  and  C10_10 
REMARK    5  A    between atoms: C12_12  and  N13_13 
REMARK    6  A    between atoms: N13_13  and  C14_14 
REMARK    7  A    between atoms: C22_22  and  C27_27 
REMARK    8  A    between atoms: C27_27  and  N28_28 
ROOT
ATOM      1  C10 UI1 d          23.209  15.756  33.411  0.00  0.00     0.035 A 
ATOM      2  C11 UI1 d          23.656  16.991  33.933  0.00  0.00    -0.041 A 
ATOM      3  C12 UI1 d          22.767  18.021  34.140  0.00  0.00     0.061 A 
ATOM      4  C20 UI1 d          21.377  17.836  33.829  0.00  0.00     0.002 A 
ATOM      5  C21 UI1 d          20.476  18.911  34.026  0.00  0.00    -0.057 A 
ATOM      6  C22 UI1 d          19.104  18.751  33.731  0.00  0.00     0.008 A 
ATOM      7  C23 UI1 d          18.621  17.520  33.246  0.00  0.00    -0.069 A 
ATOM      8  C24 UI1 d          19.518  16.443  33.043  0.00  0.00    -0.071 A 
ATOM      9  C25 UI1 d          20.905  16.604  33.330  0.00  0.00    -0.023 A 
ATOM     10  C26 UI1 d          21.823  15.552  33.112  0.00  0.00    -0.057 A 
ATOM     11  H9  UI1 d          24.704  17.127  34.172  0.00  0.00     0.088 H 
ATOM     12  H14 UI1 d          20.840  19.860  34.404  0.00  0.00     0.086 H 
ATOM     13  H15 UI1 d          17.566  17.397  33.029  0.00  0.00     0.085 H 
ATOM     14  H16 UI1 d          19.149  15.495  32.668  0.00  0.00     0.084 H 
ATOM     15  H17 UI1 d          21.481  14.601  32.721  0.00  0.00     0.086 H 
ENDROOT
BRANCH   1  16
ATOM     16  C8  UI1 d          24.244  14.713  33.132  0.00  0.00     0.256 C 
ATOM     17  N7  UI1 d          24.011  13.838  32.172  0.00  0.00    -0.323 N 
ATOM     18  H8  UI1 d          23.113  13.821  31.731  0.00  0.00     0.169 HD
ATOM     19  O9  UI1 d          25.309  14.728  33.738  0.00  0.00    -0.267 OA
BRANCH  17  20
ATOM     20  C6  UI1 d          25.025  12.906  31.748  0.00  0.00     0.035 A 
ATOM     21  C5  UI1 d          25.808  13.376  30.648  0.00  0.00    -0.057 A 
ATOM     22  C4  UI1 d          26.829  12.591  30.091  0.00  0.00    -0.073 A 
ATOM     23  H7  UI1 d          25.610  14.358  30.235  0.00  0.00     0.086 H 
ATOM     24  C3  UI1 d          27.091  11.319  30.625  0.00  0.00    -0.033 A 
ATOM     25  H6  UI1 d          27.411  12.964  29.256  0.00  0.00     0.084 H 
ATOM     26  C31 UI1 d          26.322  10.840  31.718  0.00  0.00    -0.073 A 
ATOM     27  C30 UI1 d          25.276  11.637  32.282  0.00  0.00    -0.057 A 
ATOM     28  H23 UI1 d          26.529   9.858  32.129  0.00  0.00     0.084 H 
ATOM     29  H22 UI1 d          24.687  11.264  33.112  0.00  0.00     0.086 H 
BRANCH  24  30
ATOM     30  C2  UI1 d          28.206  10.456  30.014  0.00  0.00     0.103 C 
ATOM     31  H4  UI1 d          29.176  10.939  30.202  0.00  0.00     0.082 H 
ATOM     32  H5  UI1 d          28.192   9.465  30.490  0.00  0.00     0.082 H 
BRANCH  30  33
ATOM     33  N1  UI1 d          28.025  10.297  28.578  0.00  0.00    -0.075 N 
ATOM     34  H1  UI1 d          27.354   9.565  28.402  0.00  0.00     0.274 HD
ATOM     35  H2  UI1 d          28.907  10.052  28.153  0.00  0.00     0.274 HD
ATOM     36  H3  UI1 d          27.690  11.162  28.183  0.00  0.00     0.274 HD
ENDBRANCH  30  33
ENDBRANCH  24  30
ENDBRANCH  17  20
ENDBRANCH   1  16
BRANCH   3  37
ATOM     37  N13 UI1 d          23.266  19.286  34.611  0.00  0.00    -0.187 N 
ATOM     38  H10 UI1 d          22.755  20.140  34.346  0.00  0.00     0.184 HD
BRANCH  37  39
ATOM     39  C14 UI1 d          24.422  19.421  35.422  0.00  0.00     0.726 A 
ATOM     40  N15 UI1 d          25.623  19.552  34.808  0.00  0.00    -0.075 NA
ATOM     41  C16 UI1 d          26.756  19.702  35.529  0.00  0.00     0.022 A 
ATOM     42  C17 UI1 d          26.690  19.732  36.939  0.00  0.00    -0.048 A 
ATOM     43  H11 UI1 d          27.712  19.799  35.028  0.00  0.00     0.115 H 
ATOM     44  C18 UI1 d          25.431  19.589  37.542  0.00  0.00     0.022 A 
ATOM     45  H12 UI1 d          27.584  19.862  37.537  0.00  0.00     0.087 H 
ATOM     46  N19 UI1 d          24.329  19.438  36.770  0.00  0.00    -0.075 NA
ATOM     47  H13 UI1 d          25.342  19.599  38.622  0.00  0.00     0.115 H 
ENDBRANCH  37  39
ENDBRANCH   3  37
BRANCH   6  48
ATOM     48  C27 UI1 d          18.220  19.918  33.959  0.00  0.00     0.102 C 
ATOM     49  N29 UI1 d          18.725  21.135  34.105  0.00  0.00    -0.385 N 
ATOM     50  H20 UI1 d          19.744  21.279  34.060  0.00  0.00     0.157 HD
ATOM     51  H21 UI1 d          18.098  21.937  34.264  0.00  0.00     0.157 HD
BRANCH  48  52
ATOM     52  N28 UI1 d          16.929  19.750  34.018  0.00  0.00    -0.385 N 
ATOM     53  H18 UI1 d          16.509  19.256  34.818  0.00  0.00     0.157 HD
ATOM     54  H19 UI1 d          16.328  20.112  33.263  0.00  0.00     0.157 HD
ENDBRANCH  48  52
ENDBRANCH   6  48
TORSDOF 8
ENDMDL
MODEL 2
REMARK VINA RESULT:      -8.0      1.671      1.908
REMARK  8 active torsions:
REMARK  status: ('A' for Active; 'I' for Inactive)
REMARK    1  A    between atoms: N1_1  and  C2_2 
REMARK    2  A    between atoms: C2_2  and  C3_3 
REMARK    3  A    between atoms: C6_6  and  N7_7 
REMARK       I    between atoms: N7_7  and  C8_8 
REMARK    4  A    between atoms: C8_8  and  C10_10 
REMARK    5  A    between atoms: C12_12  and  N13_13 
REMARK    6  A    between atoms: N13_13  and  C14_14 
REMARK    7  A    between atoms: C22_22  and  C27_27 
REMARK    8  A    between atoms: C27_27  and  N28_28 
ROOT
ATOM      1  C10 UI1 d          23.256  15.883  33.067  0.00  0.00     0.035 A 
ATOM      2  C11 UI1 d          23.660  17.042  33.769  0.00  0.00    -0.041 A 
ATOM      3  C12 UI1 d          22.748  18.031  34.061  0.00  0.00     0.061 A 
ATOM      4  C20 UI1 d          21.378  17.880  33.657  0.00  0.00     0.002 A 
ATOM      5  C21 UI1 d          20.454  18.913  33.944  0.00  0.00    -0.057 A 
ATOM      6  C22 UI1 d          19.101  18.785  33.560  0.00  0.00     0.008 A 
ATOM      7  C23 UI1 d          18.660  17.625  32.893  0.00  0.00    -0.069 A 
ATOM      8  C24 UI1 d          19.581  16.590  32.598  0.00  0.00    -0.071 A 
ATOM      9  C25 UI1 d          20.949  16.721  32.976  0.00  0.00    -0.023 A 
ATOM     10  C26 UI1 d          21.891  15.712  32.671  0.00  0.00    -0.057 A 
ATOM     11  H9  UI1 d          24.692  17.153  34.079  0.00  0.00     0.088 H 
ATOM     12  H14 UI1 d          20.786  19.806  34.462  0.00  0.00     0.086 H 
ATOM     13  H15 UI1 d          17.619  17.525  32.607  0.00  0.00     0.085 H 
ATOM     14  H16 UI1 d          19.244  15.697  32.083  0.00  0.00     0.084 H 
ATOM     15  H17 UI1 d          21.582  14.818  32.142  0.00  0.00     0.086 H 
ENDROOT
BRANCH   1  16
ATOM     16  C8  UI1 d          24.318  14.893  32.709  0.00  0.00     0.256 C 
ATOM     17  N7  UI1 d          25.447  14.908  33.392  0.00  0.00    -0.323 N 
ATOM     18  H8  UI1 d          25.611  15.642  34.052  0.00  0.00     0.169 HD
ATOM     19  O9  UI1 d          24.103  14.046  31.850  0.00  0.00    -0.267 OA
BRANCH  17  20
ATOM     20  C6  UI1 d          26.448  13.888  33.205  0.00  0.00     0.035 A 
ATOM     21  C5  UI1 d          26.264  12.746  34.045  0.00  0.00    -0.057 A 
ATOM     22  C4  UI1 d          27.156  11.664  34.010  0.00  0.00    -0.073 A 
ATOM     23  H7  UI1 d          25.418  12.716  34.722  0.00  0.00     0.086 H 
ATOM     24  C3  UI1 d          28.250  11.699  33.132  0.00  0.00    -0.033 A 
ATOM     25  H6  UI1 d          27.000  10.807  34.657  0.00  0.00     0.084 H 
ATOM     26  C31 UI1 d          28.446  12.827  32.292  0.00  0.00    -0.073 A 
ATOM     27  C30 UI1 d          27.540  13.934  32.330  0.00  0.00    -0.057 A 
ATOM     28  H23 UI1 d          29.291  12.849  31.613  0.00  0.00     0.084 H 
ATOM     29  H22 UI1 d          27.697  14.796  31.691  0.00  0.00     0.086 H 
BRANCH  24  30
ATOM     30  C2  UI1 d          29.231  10.517  33.096  0.00  0.00     0.103 C 
ATOM     31  H4  UI1 d          29.665  10.381  34.097  0.00  0.00     0.082 H 
ATOM     32  H5  UI1 d          28.684   9.608  32.807  0.00  0.00     0.082 H 
BRANCH  30  33
ATOM     33  N1  UI1 d          30.306  10.748  32.141  0.00  0.00    -0.075 N 
ATOM     34  H1  UI1 d          30.199  10.122  31.357  0.00  0.00     0.274 HD
ATOM     35  H2  UI1 d          31.194  10.579  32.587  0.00  0.00     0.274 HD
ATOM     36  H3  UI1 d          30.267  11.702  31.816  0.00  0.00     0.274 HD
ENDBRANCH  30  33
ENDBRANCH  24  30
ENDBRANCH  17  20
ENDBRANCH   1  16
BRANCH   3  37
ATOM     37  N13 UI1 d          23.205  19.226  34.720  0.00  0.00    -0.187 N 
ATOM     38  H10 UI1 d          22.889  20.135  34.354  0.00  0.00     0.184 HD
BRANCH  37  39
ATOM     39  C14 UI1 d          24.067  19.221  35.848  0.00  0.00     0.726 A 
ATOM     40  N15 UI1 d          24.960  20.231  35.975  0.00  0.00    -0.075 NA
ATOM     41  C16 UI1 d          25.794  20.288  37.038  0.00  0.00     0.022 A 
ATOM     42  C17 UI1 d          25.728  19.288  38.032  0.00  0.00    -0.048 A 
ATOM     43  H11 UI1 d          26.509  21.097  37.126  0.00  0.00     0.115 H 
ATOM     44  C18 UI1 d          24.795  18.254  37.866  0.00  0.00     0.022 A 
ATOM     45  H12 UI1 d          26.379  19.319  38.898  0.00  0.00     0.087 H 
ATOM     46  N19 UI1 d          23.986  18.245  36.780  0.00  0.00    -0.075 NA
ATOM     47  H13 UI1 d          24.721  17.464  38.605  0.00  0.00     0.115 H 
ENDBRANCH  37  39
ENDBRANCH   3  37
BRANCH   6  48
ATOM     48  C27 UI1 d          18.191  19.906  33.891  0.00  0.00     0.102 C 
ATOM     49  N29 UI1 d          18.667  21.121  34.124  0.00  0.00    -0.385 N 
ATOM     50  H20 UI1 d          19.682  21.296  34.075  0.00  0.00     0.157 HD
ATOM     51  H21 UI1 d          18.023  21.891  34.354  0.00  0.00     0.157 HD
BRANCH  48  52
ATOM     52  N28 UI1 d          16.906  19.699  33.956  0.00  0.00    -0.385 N 
ATOM     53  H18 UI1 d          16.323  20.273  34.582  0.00  0.00     0.157 HD
ATOM     54  H19 UI1 d          16.474  18.961  33.383  0.00  0.00     0.157 HD
ENDBRANCH  48  52
ENDBRANCH   6  48
TORSDOF 8
ENDMDL
MODEL 3
REMARK VINA RESULT:      -7.2      2.847      9.041
REMARK  8 active torsions:
REMARK  status: ('A' for Active; 'I' for Inactive)
REMARK    1  A    between atoms: N1_1  and  C2_2 
REMARK    2  A    between atoms: C2_2  and  C3_3 
REMARK    3  A    between atoms: C6_6  and  N7_7 
REMARK       I    between atoms: N7_7  and  C8_8 
REMARK    4  A    between atoms: C8_8  and  C10_10 
REMARK    5  A    between atoms: C12_12  and  N13_13 
REMARK    6  A    between atoms: N13_13  and  C14_14 
REMARK    7  A    between atoms: C22_22  and  C27_27 
REMARK    8  A    between atoms: C27_27  and  N28_28 
ROOT
ATOM      1  C10 UI1 d          23.629  14.412  32.075  0.00  0.00     0.035 A 
ATOM      2  C11 UI1 d          24.425  15.073  31.112  0.00  0.00    -0.041 A 
ATOM      3  C12 UI1 d          25.565  14.476  30.625  0.00  0.00     0.061 A 
ATOM      4  C20 UI1 d          25.943  13.172  31.093  0.00  0.00     0.002 A 
ATOM      5  C21 UI1 d          27.130  12.578  30.601  0.00  0.00    -0.057 A 
ATOM      6  C22 UI1 d          27.520  11.295  31.043  0.00  0.00     0.008 A 
ATOM      7  C23 UI1 d          26.728  10.594  31.974  0.00  0.00    -0.069 A 
ATOM      8  C24 UI1 d          25.542  11.186  32.474  0.00  0.00    -0.071 A 
ATOM      9  C25 UI1 d          25.151  12.485  32.036  0.00  0.00    -0.023 A 
ATOM     10  C26 UI1 d          23.985  13.105  32.540  0.00  0.00    -0.057 A 
ATOM     11  H9  UI1 d          24.135  16.055  30.755  0.00  0.00     0.088 H 
ATOM     12  H14 UI1 d          27.742  13.109  29.880  0.00  0.00     0.086 H 
ATOM     13  H15 UI1 d          27.024   9.606  32.305  0.00  0.00     0.085 H 
ATOM     14  H16 UI1 d          24.931  10.649  33.192  0.00  0.00     0.084 H 
ATOM     15  H17 UI1 d          23.367  12.597  33.270  0.00  0.00     0.086 H 
ENDROOT
BRANCH   1  16
ATOM     16  C8  UI1 d          22.453  15.158  32.622  0.00  0.00     0.256 C 
ATOM     17  N7  UI1 d          22.159  16.335  32.104  0.00  0.00    -0.323 N 
ATOM     18  H8  UI1 d          22.784  16.749  31.442  0.00  0.00     0.169 HD
ATOM     19  O9  UI1 d          21.745  14.643  33.480  0.00  0.00    -0.267 OA
BRANCH  17  20
ATOM     20  C6  UI1 d          20.956  17.036  32.475  0.00  0.00     0.035 A 
ATOM     21  C5  UI1 d          21.189  18.164  33.322  0.00  0.00    -0.057 A 
ATOM     22  C4  UI1 d          20.130  18.952  33.796  0.00  0.00    -0.073 A 
ATOM     23  H7  UI1 d          22.205  18.416  33.604  0.00  0.00     0.086 H 
ATOM     24  C3  UI1 d          18.813  18.630  33.430  0.00  0.00    -0.033 A 
ATOM     25  H6  UI1 d          20.327  19.802  34.439  0.00  0.00     0.084 H 
ATOM     26  C31 UI1 d          18.566  17.513  32.590  0.00  0.00    -0.073 A 
ATOM     27  C30 UI1 d          19.646  16.705  32.110  0.00  0.00    -0.057 A 
ATOM     28  H23 UI1 d          17.548  17.269  32.307  0.00  0.00     0.084 H 
ATOM     29  H22 UI1 d          19.451  15.849  31.474  0.00  0.00     0.086 H 
BRANCH  24  30
ATOM     30  C2  UI1 d          17.651  19.489  33.952  0.00  0.00     0.103 C 
ATOM     31  H4  UI1 d          16.772  19.329  33.311  0.00  0.00     0.082 H 
ATOM     32  H5  UI1 d          17.414  19.183  34.982  0.00  0.00     0.082 H 
BRANCH  30  33
ATOM     33  N1  UI1 d          17.993  20.905  33.945  0.00  0.00    -0.075 N 
ATOM     34  H1  UI1 d          17.618  21.346  34.770  0.00  0.00     0.274 HD
ATOM     35  H2  UI1 d          17.602  21.341  33.124  0.00  0.00     0.274 HD
ATOM     36  H3  UI1 d          18.996  21.008  33.936  0.00  0.00     0.274 HD
ENDBRANCH  30  33
ENDBRANCH  24  30
ENDBRANCH  17  20
ENDBRANCH   1  16
BRANCH   3  37
ATOM     37  N13 UI1 d          26.388  15.203  29.693  0.00  0.00    -0.187 N 
ATOM     38  H10 UI1 d          26.641  14.745  28.807  0.00  0.00     0.184 HD
BRANCH  37  39
ATOM     39  C14 UI1 d          26.868  16.518  29.930  0.00  0.00     0.726 A 
ATOM     40  N15 UI1 d          26.188  17.555  29.385  0.00  0.00    -0.075 NA
ATOM     41  C16 UI1 d          26.588  18.830  29.593  0.00  0.00     0.022 A 
ATOM     42  C17 UI1 d          27.723  19.085  30.393  0.00  0.00    -0.048 A 
ATOM     43  H11 UI1 d          26.041  19.652  29.146  0.00  0.00     0.115 H 
ATOM     44  C18 UI1 d          28.406  17.987  30.937  0.00  0.00     0.022 A 
ATOM     45  H12 UI1 d          28.056  20.099  30.581  0.00  0.00     0.087 H 
ATOM     46  N19 UI1 d          27.962  16.731  30.694  0.00  0.00    -0.075 NA
ATOM     47  H13 UI1 d          29.286  18.144  31.550  0.00  0.00     0.115 H 
ENDBRANCH  37  39
ENDBRANCH   3  37
BRANCH   6  48
ATOM     48  C27 UI1 d          28.774  10.736  30.487  0.00  0.00     0.102 C 
ATOM     49  N29 UI1 d          29.876  10.676  31.223  0.00  0.00    -0.385 N 
ATOM     50  H20 UI1 d          29.867  11.020  32.194  0.00  0.00     0.157 HD
ATOM     51  H21 UI1 d          30.741  10.285  30.823  0.00  0.00     0.157 HD
BRANCH  48  52
ATOM     52  N28 UI1 d          28.799  10.297  29.261  0.00  0.00    -0.385 N 
ATOM     53  H18 UI1 d          29.500  10.658  28.598  0.00  0.00     0.157 HD
ATOM     54  H19 UI1 d          28.118   9.588  28.954  0.00  0.00     0.157 HD
ENDBRANCH  48  52
ENDBRANCH   6  48
TORSDOF 8
ENDMDL
MODEL 4
REMARK VINA RESULT:      -6.6      2.911      9.472
REMARK  8 active torsions:
REMARK  status: ('A' for Active; 'I' for Inactive)
REMARK    1  A    between atoms: N1_1  and  C2_2 
REMARK    2  A    between atoms: C2_2  and  C3_3 
REMARK    3  A    between atoms: C6_6  and  N7_7 
REMARK       I    between atoms: N7_7  and  C8_8 
REMARK    4  A    between atoms: C8_8  and  C10_10 
REMARK    5  A    between atoms: C12_12  and  N13_13 
REMARK    6  A    between atoms: N13_13  and  C14_14 
REMARK    7  A    between atoms: C22_22  and  C27_27 
REMARK    8  A    between atoms: C27_27  and  N28_28 
ROOT
ATOM      1  C10 UI1 d          24.405  15.148  31.566  0.00  0.00     0.035 A 
ATOM      2  C11 UI1 d          25.634  15.736  31.188  0.00  0.00    -0.041 A 
ATOM      3  C12 UI1 d          26.769  14.966  31.082  0.00  0.00     0.061 A 
ATOM      4  C20 UI1 d          26.702  13.556  31.350  0.00  0.00     0.002 A 
ATOM      5  C21 UI1 d          27.882  12.778  31.258  0.00  0.00    -0.057 A 
ATOM      6  C22 UI1 d          27.839  11.390  31.513  0.00  0.00     0.008 A 
ATOM      7  C23 UI1 d          26.623  10.768  31.853  0.00  0.00    -0.069 A 
ATOM      8  C24 UI1 d          25.440  11.542  31.952  0.00  0.00    -0.071 A 
ATOM      9  C25 UI1 d          25.482  12.945  31.705  0.00  0.00    -0.023 A 
ATOM     10  C26 UI1 d          24.320  13.741  31.820  0.00  0.00    -0.057 A 
ATOM     11  H9  UI1 d          25.681  16.799  30.981  0.00  0.00     0.088 H 
ATOM     12  H14 UI1 d          28.821  13.250  30.991  0.00  0.00     0.086 H 
ATOM     13  H15 UI1 d          26.591   9.701  32.039  0.00  0.00     0.085 H 
ATOM     14  H16 UI1 d          24.502  11.065  32.215  0.00  0.00     0.084 H 
ATOM     15  H17 UI1 d          23.374  13.292  32.100  0.00  0.00     0.086 H 
ENDROOT
BRANCH   1  16
ATOM     16  C8  UI1 d          23.233  16.061  31.745  0.00  0.00     0.256 C 
ATOM     17  N7  UI1 d          22.360  15.783  32.695  0.00  0.00    -0.323 N 
ATOM     18  H8  UI1 d          22.438  14.920  33.195  0.00  0.00     0.169 HD
ATOM     19  O9  UI1 d          23.138  17.078  31.068  0.00  0.00    -0.267 OA
BRANCH  17  20
ATOM     20  C6  UI1 d          21.296  16.698  33.023  0.00  0.00     0.035 A 
ATOM     21  C5  UI1 d          20.080  16.437  32.318  0.00  0.00    -0.057 A 
ATOM     22  C4  UI1 d          18.945  17.241  32.501  0.00  0.00    -0.073 A 
ATOM     23  H7  UI1 d          20.034  15.602  31.629  0.00  0.00     0.086 H 
ATOM     24  C3  UI1 d          19.001  18.322  33.395  0.00  0.00    -0.033 A 
ATOM     25  H6  UI1 d          18.032  17.029  31.955  0.00  0.00     0.084 H 
ATOM     26  C31 UI1 d          20.201  18.592  34.103  0.00  0.00    -0.073 A 
ATOM     27  C30 UI1 d          21.362  17.776  33.913  0.00  0.00    -0.057 A 
ATOM     28  H23 UI1 d          20.240  19.426  34.795  0.00  0.00     0.084 H 
ATOM     29  H22 UI1 d          22.279  17.991  34.451  0.00  0.00     0.086 H 
BRANCH  24  30
ATOM     30  C2  UI1 d          17.760  19.205  33.593  0.00  0.00     0.103 C 
ATOM     31  H4  UI1 d          17.327  19.440  32.609  0.00  0.00     0.082 H 
ATOM     32  H5  UI1 d          17.022  18.657  34.197  0.00  0.00     0.082 H 
BRANCH  30  33
ATOM     33  N1  UI1 d          18.097  20.450  34.271  0.00  0.00    -0.075 N 
ATOM     34  H1  UI1 d          17.859  20.376  35.248  0.00  0.00     0.274 HD
ATOM     35  H2  UI1 d          17.580  21.210  33.856  0.00  0.00     0.274 HD
ATOM     36  H3  UI1 d          19.086  20.625  34.179  0.00  0.00     0.274 HD
ENDBRANCH  30  33
ENDBRANCH  24  30
ENDBRANCH  17  20
ENDBRANCH   1  16
BRANCH   3  37
ATOM     37  N13 UI1 d          28.017  15.607  30.759  0.00  0.00    -0.187 N 
ATOM     38  H10 UI1 d          28.638  15.882  31.532  0.00  0.00     0.184 HD
BRANCH  37  39
ATOM     39  C14 UI1 d          28.438  15.880  29.431  0.00  0.00     0.726 A 
ATOM     40  N15 UI1 d          28.826  17.142  29.129  0.00  0.00    -0.075 NA
ATOM     41  C16 UI1 d          29.255  17.456  27.887  0.00  0.00     0.022 A 
ATOM     42  C17 UI1 d          29.308  16.456  26.892  0.00  0.00    -0.048 A 
ATOM     43  H11 UI1 d          29.557  18.471  27.655  0.00  0.00     0.115 H 
ATOM     44  C18 UI1 d          28.894  15.161  27.237  0.00  0.00     0.022 A 
ATOM     45  H12 UI1 d          29.658  16.683  25.891  0.00  0.00     0.087 H 
ATOM     46  N19 UI1 d          28.470  14.903  28.497  0.00  0.00    -0.075 NA
ATOM     47  H13 UI1 d          28.912  14.369  26.497  0.00  0.00     0.115 H 
ENDBRANCH  37  39
ENDBRANCH   3  37
BRANCH   6  48
ATOM     48  C27 UI1 d          29.111  10.639  31.400  0.00  0.00     0.102 C 
ATOM     49  N29 UI1 d          29.804  10.311  32.482  0.00  0.00    -0.385 N 
ATOM     50  H20 UI1 d          29.459  10.577  33.416  0.00  0.00     0.157 HD
ATOM     51  H21 UI1 d          30.687   9.789  32.389  0.00  0.00     0.157 HD
BRANCH  48  52
ATOM     52  N28 UI1 d          29.560  10.297  30.225  0.00  0.00    -0.385 N 
ATOM     53  H18 UI1 d          29.666   9.301  29.985  0.00  0.00     0.157 HD
ATOM     54  H19 UI1 d          29.808  11.022  29.537  0.00  0.00     0.157 HD
ENDBRANCH  48  52
ENDBRANCH   6  48
TORSDOF 8
ENDMDL
MODEL 5
REMARK VINA RESULT:      -6.5      2.061      5.506
REMARK  8 active torsions:
REMARK  status: ('A' for Active; 'I' for Inactive)
REMARK    1  A    between atoms: N1_1  and  C2_2 
REMARK    2  A    between atoms: C2_2  and  C3_3 
REMARK    3  A    between atoms: C6_6  and  N7_7 
REMARK       I    between atoms: N7_7  and  C8_8 
REMARK    4  A    between atoms: C8_8  and  C10_10 
REMARK    5  A    between atoms: C12_12  and  N13_13 
REMARK    6  A    between atoms: N13_13  and  C14_14 
REMARK    7  A    between atoms: C22_22  and  C27_27 
REMARK    8  A    between atoms: C27_27  and  N28_28 
ROOT
ATOM      1  C10 UI1 d          25.666  17.554  32.691  0.00  0.00     0.035 A 
ATOM      2  C11 UI1 d          24.317  17.900  32.934  0.00  0.00    -0.041 A 
ATOM      3  C12 UI1 d          23.974  18.608  34.063  0.00  0.00     0.061 A 
ATOM      4  C20 UI1 d          24.993  19.003  34.995  0.00  0.00     0.002 A 
ATOM      5  C21 UI1 d          24.625  19.713  36.163  0.00  0.00    -0.057 A 
ATOM      6  C22 UI1 d          25.610  20.115  37.091  0.00  0.00     0.008 A 
ATOM      7  C23 UI1 d          26.968  19.820  36.858  0.00  0.00    -0.069 A 
ATOM      8  C24 UI1 d          27.342  19.105  35.693  0.00  0.00    -0.071 A 
ATOM      9  C25 UI1 d          26.348  18.689  34.760  0.00  0.00    -0.023 A 
ATOM     10  C26 UI1 d          26.695  17.955  33.603  0.00  0.00    -0.057 A 
ATOM     11  H9  UI1 d          23.550  17.606  32.228  0.00  0.00     0.088 H 
ATOM     12  H14 UI1 d          23.583  19.949  36.347  0.00  0.00     0.086 H 
ATOM     13  H15 UI1 d          27.723  20.137  37.567  0.00  0.00     0.085 H 
ATOM     14  H16 UI1 d          28.386  18.875  35.512  0.00  0.00     0.084 H 
ATOM     15  H17 UI1 d          27.729  17.697  33.409  0.00  0.00     0.086 H 
ENDROOT
BRANCH   1  16
ATOM     16  C8  UI1 d          25.953  16.710  31.490  0.00  0.00     0.256 C 
ATOM     17  N7  UI1 d          26.963  15.863  31.544  0.00  0.00    -0.323 N 
ATOM     18  H8  UI1 d          27.576  15.881  32.335  0.00  0.00     0.169 HD
ATOM     19  O9  UI1 d          25.214  16.760  30.514  0.00  0.00    -0.267 OA
BRANCH  17  20
ATOM     20  C6  UI1 d          27.201  14.914  30.487  0.00  0.00     0.035 A 
ATOM     21  C5  UI1 d          26.521  13.670  30.671  0.00  0.00    -0.057 A 
ATOM     22  C4  UI1 d          26.652  12.622  29.748  0.00  0.00    -0.073 A 
ATOM     23  H7  UI1 d          25.890  13.534  31.542  0.00  0.00     0.086 H 
ATOM     24  C3  UI1 d          27.467  12.797  28.617  0.00  0.00    -0.033 A 
ATOM     25  H6  UI1 d          26.130  11.686  29.907  0.00  0.00     0.084 H 
ATOM     26  C31 UI1 d          28.148  14.026  28.421  0.00  0.00    -0.073 A 
ATOM     27  C30 UI1 d          28.019  15.094  29.365  0.00  0.00    -0.057 A 
ATOM     28  H23 UI1 d          28.774  14.158  27.545  0.00  0.00     0.084 H 
ATOM     29  H22 UI1 d          28.547  16.029  29.214  0.00  0.00     0.086 H 
BRANCH  24  30
ATOM     30  C2  UI1 d          27.616  11.648  27.608  0.00  0.00     0.103 C 
ATOM     31  H4  UI1 d          26.634  11.432  27.163  0.00  0.00     0.082 H 
ATOM     32  H5  UI1 d          28.317  11.956  26.818  0.00  0.00     0.082 H 
BRANCH  30  33
ATOM     33  N1  UI1 d          28.123  10.442  28.248  0.00  0.00    -0.075 N 
ATOM     34  H1  UI1 d          28.430  10.661  29.183  0.00  0.00     0.274 HD
ATOM     35  H2  UI1 d          28.898  10.079  27.715  0.00  0.00     0.274 HD
ATOM     36  H3  UI1 d          27.390   9.750  28.289  0.00  0.00     0.274 HD
ENDBRANCH  30  33
ENDBRANCH  24  30
ENDBRANCH  17  20
ENDBRANCH   1  16
BRANCH   3  37
ATOM     37  N13 UI1 d          22.584  18.888  34.313  0.00  0.00    -0.187 N 
ATOM     38  H10 UI1 d          22.346  19.742  34.836  0.00  0.00     0.184 HD
BRANCH  37  39
ATOM     39  C14 UI1 d          21.524  18.050  33.878  0.00  0.00     0.726 A 
ATOM     40  N15 UI1 d          20.394  18.637  33.416  0.00  0.00    -0.075 NA
ATOM     41  C16 UI1 d          19.359  17.890  32.971  0.00  0.00     0.022 A 
ATOM     42  C17 UI1 d          19.459  16.482  32.979  0.00  0.00    -0.048 A 
ATOM     43  H11 UI1 d          18.457  18.369  32.609  0.00  0.00     0.115 H 
ATOM     44  C18 UI1 d          20.641  15.908  33.469  0.00  0.00     0.022 A 
ATOM     45  H12 UI1 d          18.645  15.863  32.617  0.00  0.00     0.087 H 
ATOM     46  N19 UI1 d          21.645  16.705  33.906  0.00  0.00    -0.075 NA
ATOM     47  H13 UI1 d          20.750  14.830  33.499  0.00  0.00     0.115 H 
ENDBRANCH  37  39
ENDBRANCH   3  37
BRANCH   6  48
ATOM     48  C27 UI1 d          25.153  20.852  38.292  0.00  0.00     0.102 C 
ATOM     49  N29 UI1 d          24.002  20.550  38.877  0.00  0.00    -0.385 N 
ATOM     50  H20 UI1 d          23.414  19.794  38.498  0.00  0.00     0.157 HD
ATOM     51  H21 UI1 d          23.696  21.071  39.711  0.00  0.00     0.157 HD
BRANCH  48  52
ATOM     52  N28 UI1 d          25.887  21.811  38.783  0.00  0.00    -0.385 N 
ATOM     53  H18 UI1 d          26.444  21.649  39.634  0.00  0.00     0.157 HD
ATOM     54  H19 UI1 d          25.910  22.730  38.319  0.00  0.00     0.157 HD
ENDBRANCH  48  52
ENDBRANCH   6  48
TORSDOF 8
ENDMDL
MODEL 6
REMARK VINA RESULT:      -6.5      2.415      8.430
REMARK  8 active torsions:
REMARK  status: ('A' for Active; 'I' for Inactive)
REMARK    1  A    between atoms: N1_1  and  C2_2 
REMARK    2  A    between atoms: C2_2  and  C3_3 
REMARK    3  A    between atoms: C6_6  and  N7_7 
REMARK       I    between atoms: N7_7  and  C8_8 
REMARK    4  A    between atoms: C8_8  and  C10_10 
REMARK    5  A    between atoms: C12_12  and  N13_13 
REMARK    6  A    between atoms: N13_13  and  C14_14 
REMARK    7  A    between atoms: C22_22  and  C27_27 
REMARK    8  A    between atoms: C27_27  and  N28_28 
ROOT
ATOM      1  C10 UI1 d          23.786  14.926  32.829  0.00  0.00     0.035 A 
ATOM      2  C11 UI1 d          24.822  15.525  33.582  0.00  0.00    -0.041 A 
ATOM      3  C12 UI1 d          25.938  14.798  33.931  0.00  0.00     0.061 A 
ATOM      4  C20 UI1 d          26.052  13.427  33.520  0.00  0.00     0.002 A 
ATOM      5  C21 UI1 d          27.195  12.683  33.903  0.00  0.00    -0.057 A 
ATOM      6  C22 UI1 d          27.331  11.335  33.507  0.00  0.00     0.008 A 
ATOM      7  C23 UI1 d          26.334  10.721  32.724  0.00  0.00    -0.069 A 
ATOM      8  C24 UI1 d          25.186  11.458  32.341  0.00  0.00    -0.071 A 
ATOM      9  C25 UI1 d          25.042  12.816  32.748  0.00  0.00    -0.023 A 
ATOM     10  C26 UI1 d          23.894  13.564  32.399  0.00  0.00    -0.057 A 
ATOM     11  H9  UI1 d          24.737  16.562  33.887  0.00  0.00     0.088 H 
ATOM     12  H14 UI1 d          27.968  13.151  34.502  0.00  0.00     0.086 H 
ATOM     13  H15 UI1 d          26.446   9.688  32.414  0.00  0.00     0.085 H 
ATOM     14  H16 UI1 d          24.417  10.987  31.740  0.00  0.00     0.084 H 
ATOM     15  H17 UI1 d          23.104  13.111  31.813  0.00  0.00     0.086 H 
ENDROOT
BRANCH   1  16
ATOM     16  C8  UI1 d          22.567  15.750  32.562  0.00  0.00     0.256 C 
ATOM     17  N7  UI1 d          21.687  15.903  33.533  0.00  0.00    -0.323 N 
ATOM     18  H8  UI1 d          21.797  15.382  34.380  0.00  0.00     0.169 HD
ATOM     19  O9  UI1 d          22.437  16.324  31.487  0.00  0.00    -0.267 OA
BRANCH  17  20
ATOM     20  C6  UI1 d          20.572  16.805  33.397  0.00  0.00     0.035 A 
ATOM     21  C5  UI1 d          20.767  18.059  34.055  0.00  0.00    -0.057 A 
ATOM     22  C4  UI1 d          19.776  19.051  34.042  0.00  0.00    -0.073 A 
ATOM     23  H7  UI1 d          21.700  18.247  34.574  0.00  0.00     0.086 H 
ATOM     24  C3  UI1 d          18.568  18.812  33.368  0.00  0.00    -0.033 A 
ATOM     25  H6  UI1 d          19.942  19.996  34.548  0.00  0.00     0.084 H 
ATOM     26  C31 UI1 d          18.360  17.572  32.710  0.00  0.00    -0.073 A 
ATOM     27  C30 UI1 d          19.368  16.556  32.727  0.00  0.00    -0.057 A 
ATOM     28  H23 UI1 d          17.426  17.391  32.188  0.00  0.00     0.084 H 
ATOM     29  H22 UI1 d          19.202  15.608  32.229  0.00  0.00     0.086 H 
BRANCH  24  30
ATOM     30  C2  UI1 d          17.479  19.896  33.357  0.00  0.00     0.103 C 
ATOM     31  H4  UI1 d          17.204  20.117  32.315  0.00  0.00     0.082 H 
ATOM     32  H5  UI1 d          16.597  19.523  33.898  0.00  0.00     0.082 H 
BRANCH  30  33
ATOM     33  N1  UI1 d          17.944  21.121  33.994  0.00  0.00    -0.075 N 
ATOM     34  H1  UI1 d          18.343  21.731  33.299  0.00  0.00     0.274 HD
ATOM     35  H2  UI1 d          18.643  20.896  34.685  0.00  0.00     0.274 HD
ATOM     36  H3  UI1 d          17.166  21.583  34.440  0.00  0.00     0.274 HD
ENDBRANCH  30  33
ENDBRANCH  24  30
ENDBRANCH  17  20
ENDBRANCH   1  16
BRANCH   3  37
ATOM     37  N13 UI1 d          26.943  15.419  34.753  0.00  0.00    -0.187 N 
ATOM     38  H10 UI1 d          27.807  14.892  34.946  0.00  0.00     0.184 HD
BRANCH  37  39
ATOM     39  C14 UI1 d          26.810  16.717  35.311  0.00  0.00     0.726 A 
ATOM     40  N15 UI1 d          27.176  17.779  34.554  0.00  0.00    -0.075 NA
ATOM     41  C16 UI1 d          27.054  19.040  35.026  0.00  0.00     0.022 A 
ATOM     42  C17 UI1 d          26.530  19.255  36.319  0.00  0.00    -0.048 A 
ATOM     43  H11 UI1 d          27.356  19.882  34.414  0.00  0.00     0.115 H 
ATOM     44  C18 UI1 d          26.166  18.132  37.077  0.00  0.00     0.022 A 
ATOM     45  H12 UI1 d          26.414  20.257  36.714  0.00  0.00     0.087 H 
ATOM     46  N19 UI1 d          26.313  16.891  36.555  0.00  0.00    -0.075 NA
ATOM     47  H13 UI1 d          25.768  18.258  38.078  0.00  0.00     0.115 H 
ENDBRANCH  37  39
ENDBRANCH   3  37
BRANCH   6  48
ATOM     48  C27 UI1 d          28.551  10.618  33.946  0.00  0.00     0.102 C 
ATOM     49  N29 UI1 d          28.729  10.297  35.220  0.00  0.00    -0.385 N 
ATOM     50  H20 UI1 d          28.014  10.545  35.919  0.00  0.00     0.157 HD
ATOM     51  H21 UI1 d          29.583   9.798  35.511  0.00  0.00     0.157 HD
BRANCH  48  52
ATOM     52  N28 UI1 d          29.463  10.297  33.072  0.00  0.00    -0.385 N 
ATOM     53  H18 UI1 d          30.237   9.673  33.340  0.00  0.00     0.157 HD
ATOM     54  H19 UI1 d          29.410  10.669  32.113  0.00  0.00     0.157 HD
ENDBRANCH  48  52
ENDBRANCH   6  48
TORSDOF 8
ENDMDL
MODEL 7
REMARK VINA RESULT:      -6.1      3.090      8.944
REMARK  8 active torsions:
REMARK  status: ('A' for Active; 'I' for Inactive)
REMARK    1  A    between atoms: N1_1  and  C2_2 
REMARK    2  A    between atoms: C2_2  and  C3_3 
REMARK    3  A    between atoms: C6_6  and  N7_7 
REMARK       I    between atoms: N7_7  and  C8_8 
REMARK    4  A    between atoms: C8_8  and  C10_10 
REMARK    5  A    between atoms: C12_12  and  N13_13 
REMARK    6  A    between atoms: N13_13  and  C14_14 
REMARK    7  A    between atoms: C22_22  and  C27_27 
REMARK    8  A    between atoms: C27_27  and  N28_28 
ROOT
ATOM      1  C10 UI1 d          24.196  16.751  34.411  0.00  0.00     0.035 A 
ATOM      2  C11 UI1 d          24.892  15.656  33.848  0.00  0.00    -0.041 A 
ATOM      3  C12 UI1 d          26.108  15.268  34.362  0.00  0.00     0.061 A 
ATOM      4  C20 UI1 d          26.669  15.975  35.479  0.00  0.00     0.002 A 
ATOM      5  C21 UI1 d          27.932  15.580  35.985  0.00  0.00    -0.057 A 
ATOM      6  C22 UI1 d          28.501  16.257  37.085  0.00  0.00     0.008 A 
ATOM      7  C23 UI1 d          27.815  17.327  37.692  0.00  0.00    -0.069 A 
ATOM      8  C24 UI1 d          26.554  17.731  37.187  0.00  0.00    -0.071 A 
ATOM      9  C25 UI1 d          25.981  17.055  36.071  0.00  0.00    -0.023 A 
ATOM     10  C26 UI1 d          24.736  17.455  35.535  0.00  0.00    -0.057 A 
ATOM     11  H9  UI1 d          24.465  15.120  33.009  0.00  0.00     0.088 H 
ATOM     12  H14 UI1 d          28.463  14.753  35.525  0.00  0.00     0.086 H 
ATOM     13  H15 UI1 d          28.250  17.840  38.542  0.00  0.00     0.085 H 
ATOM     14  H16 UI1 d          26.025  18.555  37.652  0.00  0.00     0.084 H 
ATOM     15  H17 UI1 d          24.196  18.287  35.970  0.00  0.00     0.086 H 
ENDROOT
BRANCH   1  16
ATOM     16  C8  UI1 d          22.923  17.170  33.747  0.00  0.00     0.256 C 
ATOM     17  N7  UI1 d          21.784  16.947  34.375  0.00  0.00    -0.323 N 
ATOM     18  H8  UI1 d          21.787  16.412  35.220  0.00  0.00     0.169 HD
ATOM     19  O9  UI1 d          22.956  17.770  32.679  0.00  0.00    -0.267 OA
BRANCH  17  20
ATOM     20  C6  UI1 d          20.537  17.461  33.867  0.00  0.00     0.035 A 
ATOM     21  C5  UI1 d          19.892  16.583  32.942  0.00  0.00    -0.057 A 
ATOM     22  C4  UI1 d          18.677  16.929  32.333  0.00  0.00    -0.073 A 
ATOM     23  H7  UI1 d          20.351  15.629  32.706  0.00  0.00     0.086 H 
ATOM     24  C3  UI1 d          18.079  18.162  32.639  0.00  0.00    -0.033 A 
ATOM     25  H6  UI1 d          18.204  16.250  31.632  0.00  0.00     0.084 H 
ATOM     26  C31 UI1 d          18.707  19.044  33.556  0.00  0.00    -0.073 A 
ATOM     27  C30 UI1 d          19.951  18.694  34.173  0.00  0.00    -0.057 A 
ATOM     28  H23 UI1 d          18.241  19.994  33.791  0.00  0.00     0.084 H 
ATOM     29  H22 UI1 d          20.430  19.374  34.868  0.00  0.00     0.086 H 
BRANCH  24  30
ATOM     30  C2  UI1 d          16.750  18.545  31.969  0.00  0.00     0.103 C 
ATOM     31  H4  UI1 d          15.924  18.327  32.662  0.00  0.00     0.082 H 
ATOM     32  H5  UI1 d          16.762  19.621  31.740  0.00  0.00     0.082 H 
BRANCH  30  33
ATOM     33  N1  UI1 d          16.544  17.800  30.735  0.00  0.00    -0.075 N 
ATOM     34  H1  UI1 d          16.063  18.383  30.067  0.00  0.00     0.274 HD
ATOM     35  H2  UI1 d          15.989  16.980  30.926  0.00  0.00     0.274 HD
ATOM     36  H3  UI1 d          17.436  17.522  30.357  0.00  0.00     0.274 HD
ENDBRANCH  30  33
ENDBRANCH  24  30
ENDBRANCH  17  20
ENDBRANCH   1  16
BRANCH   3  37
ATOM     37  N13 UI1 d          26.820  14.191  33.725  0.00  0.00    -0.187 N 
ATOM     38  H10 UI1 d          27.744  14.392  33.317  0.00  0.00     0.184 HD
BRANCH  37  39
ATOM     39  C14 UI1 d          26.319  12.867  33.629  0.00  0.00     0.726 A 
ATOM     40  N15 UI1 d          26.566  12.013  34.651  0.00  0.00    -0.075 NA
ATOM     41  C16 UI1 d          26.098  10.746  34.624  0.00  0.00     0.022 A 
ATOM     42  C17 UI1 d          25.333  10.307  33.521  0.00  0.00    -0.048 A 
ATOM     43  H11 UI1 d          26.308  10.069  35.444  0.00  0.00     0.115 H 
ATOM     44  C18 UI1 d          25.100  11.215  32.478  0.00  0.00     0.022 A 
ATOM     45  H12 UI1 d          24.938   9.298  33.482  0.00  0.00     0.087 H 
ATOM     46  N19 UI1 d          25.597  12.473  32.557  0.00  0.00    -0.075 NA
ATOM     47  H13 UI1 d          24.524  10.911  31.611  0.00  0.00     0.115 H 
ENDBRANCH  37  39
ENDBRANCH   3  37
BRANCH   6  48
ATOM     48  C27 UI1 d          29.825  15.791  37.559  0.00  0.00     0.102 C 
ATOM     49  N29 UI1 d          30.302  16.183  38.732  0.00  0.00    -0.385 N 
ATOM     50  H20 UI1 d          29.751  16.819  39.327  0.00  0.00     0.157 HD
ATOM     51  H21 UI1 d          31.225  15.852  39.050  0.00  0.00     0.157 HD
BRANCH  48  52
ATOM     52  N28 UI1 d          30.532  14.987  36.817  0.00  0.00    -0.385 N 
ATOM     53  H18 UI1 d          30.723  14.026  37.136  0.00  0.00     0.157 HD
ATOM     54  H19 UI1 d          30.900  15.312  35.912  0.00  0.00     0.157 HD
ENDBRANCH  48  52
ENDBRANCH   6  48
TORSDOF 8
ENDMDL
MODEL 8
REMARK VINA RESULT:      -6.1      3.174      8.496
REMARK  8 active torsions:
REMARK  status: ('A' for Active; 'I' for Inactive)
REMARK    1  A    between atoms: N1_1  and  C2_2 
REMARK    2  A    between atoms: C2_2  and  C3_3 
REMARK    3  A    between atoms: C6_6  and  N7_7 
REMARK       I    between atoms: N7_7  and  C8_8 
REMARK    4  A    between atoms: C8_8  and  C10_10 
REMARK    5  A    between atoms: C12_12  and  N13_13 
REMARK    6  A    between atoms: N13_13  and  C14_14 
REMARK    7  A    between atoms: C22_22  and  C27_27 
REMARK    8  A    between atoms: C27_27  and  N28_28 
ROOT
ATOM      1  C10 UI1 d          24.857  15.537  33.564  0.00  0.00     0.035 A 
ATOM      2  C11 UI1 d          25.495  16.182  34.649  0.00  0.00    -0.041 A 
ATOM      3  C12 UI1 d          26.639  15.649  35.199  0.00  0.00     0.061 A 
ATOM      4  C20 UI1 d          27.190  14.436  34.662  0.00  0.00     0.002 A 
ATOM      5  C21 UI1 d          28.355  13.887  35.250  0.00  0.00    -0.057 A 
ATOM      6  C22 UI1 d          28.917  12.698  34.737  0.00  0.00     0.008 A 
ATOM      7  C23 UI1 d          28.328  12.053  33.632  0.00  0.00    -0.069 A 
ATOM      8  C24 UI1 d          27.159  12.595  33.043  0.00  0.00    -0.071 A 
ATOM      9  C25 UI1 d          26.583  13.790  33.565  0.00  0.00    -0.023 A 
ATOM     10  C26 UI1 d          25.404  14.336  33.009  0.00  0.00    -0.057 A 
ATOM     11  H9  UI1 d          25.081  17.100  35.049  0.00  0.00     0.088 H 
ATOM     12  H14 UI1 d          28.817  14.381  36.097  0.00  0.00     0.086 H 
ATOM     13  H15 UI1 d          28.766  11.145  33.235  0.00  0.00     0.085 H 
ATOM     14  H16 UI1 d          26.702  12.099  32.194  0.00  0.00     0.084 H 
ATOM     15  H17 UI1 d          24.919  13.850  32.171  0.00  0.00     0.086 H 
ENDROOT
BRANCH   1  16
ATOM     16  C8  UI1 d          23.572  16.126  33.075  0.00  0.00     0.256 C 
ATOM     17  N7  UI1 d          22.493  15.984  33.821  0.00  0.00    -0.323 N 
ATOM     18  H8  UI1 d          22.531  15.400  34.633  0.00  0.00     0.169 HD
ATOM     19  O9  UI1 d          23.552  16.784  32.042  0.00  0.00    -0.267 OA
BRANCH  17  20
ATOM     20  C6  UI1 d          21.261  16.654  33.489  0.00  0.00     0.035 A 
ATOM     21  C5  UI1 d          21.040  17.850  34.239  0.00  0.00    -0.057 A 
ATOM     22  C4  UI1 d          19.882  18.621  34.060  0.00  0.00    -0.073 A 
ATOM     23  H7  UI1 d          21.783  18.169  34.962  0.00  0.00     0.086 H 
ATOM     24  C3  UI1 d          18.920  18.213  33.122  0.00  0.00    -0.033 A 
ATOM     25  H6  UI1 d          19.732  19.525  34.640  0.00  0.00     0.084 H 
ATOM     26  C31 UI1 d          19.125  17.027  32.370  0.00  0.00    -0.073 A 
ATOM     27  C30 UI1 d          20.304  16.237  32.556  0.00  0.00    -0.057 A 
ATOM     28  H23 UI1 d          18.381  16.717  31.645  0.00  0.00     0.084 H 
ATOM     29  H22 UI1 d          20.453  15.329  31.983  0.00  0.00     0.086 H 
BRANCH  24  30
ATOM     30  C2  UI1 d          17.648  19.054  32.928  0.00  0.00     0.103 C 
ATOM     31  H4  UI1 d          17.809  19.759  32.099  0.00  0.00     0.082 H 
ATOM     32  H5  UI1 d          16.811  18.384  32.683  0.00  0.00     0.082 H 
BRANCH  30  33
ATOM     33  N1  UI1 d          17.319  19.804  34.132  0.00  0.00    -0.075 N 
ATOM     34  H1  UI1 d          18.129  19.851  34.730  0.00  0.00     0.274 HD
ATOM     35  H2  UI1 d          16.567  19.343  34.620  0.00  0.00     0.274 HD
ATOM     36  H3  UI1 d          17.034  20.738  33.878  0.00  0.00     0.274 HD
ENDBRANCH  30  33
ENDBRANCH  24  30
ENDBRANCH  17  20
ENDBRANCH   1  16
BRANCH   3  37
ATOM     37  N13 UI1 d          27.226  16.295  36.343  0.00  0.00    -0.187 N 
ATOM     38  H10 UI1 d          27.316  15.754  37.214  0.00  0.00     0.184 HD
BRANCH  37  39
ATOM     39  C14 UI1 d          27.689  17.637  36.336  0.00  0.00     0.726 A 
ATOM     40  N15 UI1 d          27.146  18.506  37.222  0.00  0.00    -0.075 NA
ATOM     41  C16 UI1 d          27.561  19.791  37.273  0.00  0.00     0.022 A 
ATOM     42  C17 UI1 d          28.577  20.233  36.400  0.00  0.00    -0.048 A 
ATOM     43  H11 UI1 d          27.115  20.480  37.982  0.00  0.00     0.115 H 
ATOM     44  C18 UI1 d          29.114  19.309  35.491  0.00  0.00     0.022 A 
ATOM     45  H12 UI1 d          28.933  21.257  36.430  0.00  0.00     0.087 H 
ATOM     46  N19 UI1 d          28.658  18.033  35.482  0.00  0.00    -0.075 NA
ATOM     47  H13 UI1 d          29.891  19.614  34.800  0.00  0.00     0.115 H 
ENDBRANCH  37  39
ENDBRANCH   3  37
BRANCH   6  48
ATOM     48  C27 UI1 d          30.135  12.179  35.403  0.00  0.00     0.102 C 
ATOM     49  N29 UI1 d          30.680  11.032  35.023  0.00  0.00    -0.385 N 
ATOM     50  H20 UI1 d          30.258  10.490  34.255  0.00  0.00     0.157 HD
ATOM     51  H21 UI1 d          31.527  10.683  35.495  0.00  0.00     0.157 HD
BRANCH  48  52
ATOM     52  N28 UI1 d          30.679  12.855  36.375  0.00  0.00    -0.385 N 
ATOM     53  H18 UI1 d          31.064  13.794  36.198  0.00  0.00     0.157 HD
ATOM     54  H19 UI1 d          30.725  12.450  37.321  0.00  0.00     0.157 HD
ENDBRANCH  48  52
ENDBRANCH   6  48
TORSDOF 8
ENDMDL
MODEL 9
REMARK VINA RESULT:      -5.8      3.765      8.514
REMARK  8 active torsions:
REMARK  status: ('A' for Active; 'I' for Inactive)
REMARK    1  A    between atoms: N1_1  and  C2_2 
REMARK    2  A    between atoms: C2_2  and  C3_3 
REMARK    3  A    between atoms: C6_6  and  N7_7 
REMARK       I    between atoms: N7_7  and  C8_8 
REMARK    4  A    between atoms: C8_8  and  C10_10 
REMARK    5  A    between atoms: C12_12  and  N13_13 
REMARK    6  A    between atoms: N13_13  and  C14_14 
REMARK    7  A    between atoms: C22_22  and  C27_27 
REMARK    8  A    between atoms: C27_27  and  N28_28 
ROOT
ATOM      1  C10 UI1 d          23.793  17.963  35.083  0.00  0.00     0.035 A 
ATOM      2  C11 UI1 d          24.711  18.382  34.093  0.00  0.00    -0.041 A 
ATOM      3  C12 UI1 d          26.026  18.620  34.422  0.00  0.00     0.061 A 
ATOM      4  C20 UI1 d          26.468  18.435  35.776  0.00  0.00     0.002 A 
ATOM      5  C21 UI1 d          27.818  18.703  36.106  0.00  0.00    -0.057 A 
ATOM      6  C22 UI1 d          28.276  18.525  37.429  0.00  0.00     0.008 A 
ATOM      7  C23 UI1 d          27.395  18.071  38.430  0.00  0.00    -0.069 A 
ATOM      8  C24 UI1 d          26.041  17.805  38.108  0.00  0.00    -0.071 A 
ATOM      9  C25 UI1 d          25.574  17.995  36.774  0.00  0.00    -0.023 A 
ATOM     10  C26 UI1 d          24.222  17.759  36.434  0.00  0.00    -0.057 A 
ATOM     11  H9  UI1 d          24.378  18.516  33.071  0.00  0.00     0.088 H 
ATOM     12  H14 UI1 d          28.504  19.048  35.339  0.00  0.00     0.086 H 
ATOM     13  H15 UI1 d          27.751  17.926  39.443  0.00  0.00     0.085 H 
ATOM     14  H16 UI1 d          25.360  17.458  38.876  0.00  0.00     0.084 H 
ATOM     15  H17 UI1 d          23.518  17.428  37.188  0.00  0.00     0.086 H 
ENDROOT
BRANCH   1  16
ATOM     16  C8  UI1 d          22.363  17.808  34.671  0.00  0.00     0.256 C 
ATOM     17  N7  UI1 d          21.628  18.895  34.533  0.00  0.00    -0.323 N 
ATOM     18  H8  UI1 d          22.004  19.780  34.809  0.00  0.00     0.169 HD
ATOM     19  O9  UI1 d          21.919  16.698  34.401  0.00  0.00    -0.267 OA
BRANCH  17  20
ATOM     20  C6  UI1 d          20.293  18.831  33.993  0.00  0.00     0.035 A 
ATOM     21  C5  UI1 d          20.074  17.702  33.144  0.00  0.00    -0.057 A 
ATOM     22  C4  UI1 d          18.837  17.491  32.516  0.00  0.00    -0.073 A 
ATOM     23  H7  UI1 d          20.879  16.994  32.982  0.00  0.00     0.086 H 
ATOM     24  C3  UI1 d          17.791  18.404  32.726  0.00  0.00    -0.033 A 
ATOM     25  H6  UI1 d          18.691  16.630  31.874  0.00  0.00     0.084 H 
ATOM     26  C31 UI1 d          17.995  19.529  33.567  0.00  0.00    -0.073 A 
ATOM     27  C30 UI1 d          19.258  19.749  34.203  0.00  0.00    -0.057 A 
ATOM     28  H23 UI1 d          17.184  20.231  33.729  0.00  0.00     0.084 H 
ATOM     29  H22 UI1 d          19.410  20.614  34.839  0.00  0.00     0.086 H 
BRANCH  24  30
ATOM     30  C2  UI1 d          16.438  18.177  32.036  0.00  0.00     0.103 C 
ATOM     31  H4  UI1 d          15.898  17.376  32.561  0.00  0.00     0.082 H 
ATOM     32  H5  UI1 d          15.852  19.107  32.083  0.00  0.00     0.082 H 
BRANCH  30  33
ATOM     33  N1  UI1 d          16.611  17.796  30.641  0.00  0.00    -0.075 N 
ATOM     34  H1  UI1 d          16.874  18.606  30.101  0.00  0.00     0.274 HD
ATOM     35  H2  UI1 d          15.746  17.421  30.284  0.00  0.00     0.274 HD
ATOM     36  H3  UI1 d          17.335  17.097  30.571  0.00  0.00     0.274 HD
ENDBRANCH  30  33
ENDBRANCH  24  30
ENDBRANCH  17  20
ENDBRANCH   1  16
BRANCH   3  37
ATOM     37  N13 UI1 d          26.920  19.107  33.404  0.00  0.00    -0.187 N 
ATOM     38  H10 UI1 d          27.727  19.677  33.697  0.00  0.00     0.184 HD
BRANCH  37  39
ATOM     39  C14 UI1 d          26.751  18.845  32.020  0.00  0.00     0.726 A 
ATOM     40  N15 UI1 d          26.334  19.859  31.223  0.00  0.00    -0.075 NA
ATOM     41  C16 UI1 d          26.173  19.673  29.894  0.00  0.00     0.022 A 
ATOM     42  C17 UI1 d          26.450  18.411  29.326  0.00  0.00    -0.048 A 
ATOM     43  H11 UI1 d          25.833  20.489  29.267  0.00  0.00     0.115 H 
ATOM     44  C18 UI1 d          26.875  17.383  30.180  0.00  0.00     0.022 A 
ATOM     45  H12 UI1 d          26.338  18.242  28.261  0.00  0.00     0.087 H 
ATOM     46  N19 UI1 d          27.016  17.624  31.505  0.00  0.00    -0.075 NA
ATOM     47  H13 UI1 d          27.089  16.398  29.781  0.00  0.00     0.115 H 
ENDBRANCH  37  39
ENDBRANCH   3  37
BRANCH   6  48
ATOM     48  C27 UI1 d          29.700  18.827  37.703  0.00  0.00     0.102 C 
ATOM     49  N29 UI1 d          30.465  17.963  38.356  0.00  0.00    -0.385 N 
ATOM     50  H20 UI1 d          30.071  17.067  38.680  0.00  0.00     0.157 HD
ATOM     51  H21 UI1 d          31.454  18.186  38.540  0.00  0.00     0.157 HD
BRANCH  48  52
ATOM     52  N28 UI1 d          30.212  19.955  37.299  0.00  0.00    -0.385 N 
ATOM     53  H18 UI1 d          29.778  20.468  36.518  0.00  0.00     0.157 HD
ATOM     54  H19 UI1 d          31.052  20.334  37.760  0.00  0.00     0.157 HD
ENDBRANCH  48  52
ENDBRANCH   6  48
TORSDOF 8
ENDMDL
