MODEL 1
REMARK VINA RESULT:     -16.5      0.000      0.000
REMARK  2 active torsions:
REMARK  status: ('A' for Active; 'I' for Inactive)
REMARK       I    between atoms: N4_8  and  C11_17 
REMARK    1  A    between atoms: C16_22  and  N4_8 
REMARK    2  A    between atoms: C11_17  and  C12_18 
ROOT
ATOM      1  C1  YKI d          13.527  14.318  26.374  0.00  0.00     0.004 A 
ATOM      2  N1  YKI d          13.243  14.581  27.714  0.00  0.00    -0.271 NA
ATOM      3  C2  YKI d          11.933  14.689  28.170  0.00  0.00     0.030 A 
ATOM      4  N2  YKI d           9.509  14.570  27.364  0.00  0.00    -0.337 N 
ATOM      5  C3  YKI d          12.501  14.143  25.416  0.00  0.00    -0.036 A 
ATOM      6  N3  YKI d           9.958  14.149  25.234  0.00  0.00    -0.228 NA
ATOM      7  C4  YKI d           8.976  14.344  26.151  0.00  0.00     0.140 A 
ATOM      8  C5  YKI d          11.171  14.252  25.858  0.00  0.00     0.088 A 
ATOM      9  C6  YKI d          10.875  14.523  27.253  0.00  0.00     0.080 A 
ATOM     10  C7  YKI d           7.549  14.338  25.911  0.00  0.00     0.022 A 
ATOM     11  C8  YKI d           4.695  14.512  25.510  0.00  0.00    -0.074 A 
ATOM     12  C9  YKI d           5.384  15.538  26.224  0.00  0.00    -0.081 A 
ATOM     13  C10 YKI d           6.802  15.434  26.415  0.00  0.00    -0.068 A 
ATOM     14  C16 YKI d           4.778  12.271  24.229  0.00  0.00     0.065 A 
ATOM     15  C17 YKI d           5.409  13.375  24.980  0.00  0.00    -0.019 A 
ATOM     16  C18 YKI d           6.797  13.243  25.152  0.00  0.00    -0.003 A 
ATOM     17  C19 YKI d           6.026  11.382  23.949  0.00  0.00    -0.020 A 
ATOM     18  C20 YKI d           7.214  11.984  24.496  0.00  0.00    -0.016 A 
ATOM     19  C21 YKI d           8.494  11.296  24.325  0.00  0.00    -0.072 A 
ATOM     20  C22 YKI d           8.564  10.049  23.622  0.00  0.00    -0.082 A 
ATOM     21  C23 YKI d           7.351   9.458  23.077  0.00  0.00    -0.082 A 
ATOM     22  C24 YKI d           6.091  10.124  23.239  0.00  0.00    -0.074 A 
ATOM     23  H1  YKI d          14.562  14.245  26.059  0.00  0.00     0.114 H 
ATOM     24  H2  YKI d          11.729  14.898  29.213  0.00  0.00     0.118 H 
ATOM     25  H3  YKI d           8.980  14.748  28.230  0.00  0.00     0.167 HD
ATOM     26  H4  YKI d          12.732  13.933  24.378  0.00  0.00     0.089 H 
ATOM     27  H7  YKI d           3.623  14.589  25.363  0.00  0.00     0.084 H 
ATOM     28  H8  YKI d           4.841  16.388  26.620  0.00  0.00     0.083 H 
ATOM     29  H9  YKI d           7.319  16.215  26.961  0.00  0.00     0.085 H 
ATOM     30  H12 YKI d           4.489  12.682  23.250  0.00  0.00     0.088 H 
ATOM     31  H13 YKI d           9.397  11.734  24.734  0.00  0.00     0.084 H 
ATOM     32  H14 YKI d           9.517   9.547  23.497  0.00  0.00     0.083 H 
ATOM     33  H15 YKI d           7.400   8.513  22.549  0.00  0.00     0.083 H 
ATOM     34  H16 YKI d           5.189   9.684  22.830  0.00  0.00     0.084 H 
ENDROOT
BRANCH  14  35
ATOM     35  N4  YKI d           3.773  11.862  24.627  0.00  0.00    -0.344 N 
ATOM     36  C11 YKI d           2.636  11.400  24.068  0.00  0.00     0.253 C 
ATOM     37  O13 YKI d           2.605  11.377  22.828  0.00  0.00    -0.268 OA
ATOM     38  H5  YKI d           3.738  11.847  25.627  0.00  0.00     0.163 HD
BRANCH  36  39
ATOM     39  C12 YKI d           1.434  10.957  24.865  0.00  0.00     0.047 A 
ATOM     40  C14 YKI d           1.476  10.097  26.022  0.00  0.00    -0.050 A 
ATOM     41  C15 YKI d           0.232   9.777  26.669  0.00  0.00     0.005 A 
ATOM     42  H10 YKI d           2.416   9.703  26.392  0.00  0.00     0.087 H 
ATOM     43  N5  YKI d          -0.969  10.282  26.180  0.00  0.00    -0.242 NA
ATOM     44  H11 YKI d           0.230   9.138  27.545  0.00  0.00     0.114 H 
ATOM     45  C26 YKI d          -1.024  11.119  25.060  0.00  0.00     0.138 A 
ATOM     46  N6  YKI d          -2.151  11.670  24.494  0.00  0.00    -0.350 N 
ATOM     47  C25 YKI d           0.119  11.471  24.375  0.00  0.00     0.027 A 
ATOM     48  C27 YKI d          -1.722  12.417  23.411  0.00  0.00    -0.020 A 
ATOM     49  H6  YKI d          -3.122  11.550  24.814  0.00  0.00     0.166 HD
ATOM     50  C28 YKI d          -0.319  12.325  23.302  0.00  0.00    -0.053 A 
ATOM     51  H17 YKI d          -2.368  12.987  22.745  0.00  0.00     0.111 H 
ATOM     52  H18 YKI d           0.310  12.805  22.555  0.00  0.00     0.087 H 
ENDBRANCH  36  39
ENDBRANCH  14  35
TORSDOF 2
ENDMDL
MODEL 2
REMARK VINA RESULT:     -15.0      0.854      1.977
REMARK  2 active torsions:
REMARK  status: ('A' for Active; 'I' for Inactive)
REMARK       I    between atoms: N4_8  and  C11_17 
REMARK    1  A    between atoms: C16_22  and  N4_8 
REMARK    2  A    between atoms: C11_17  and  C12_18 
ROOT
ATOM      1  C1  YKI d          13.073  14.353  26.354  0.00  0.00     0.004 A 
ATOM      2  N1  YKI d          12.735  14.747  27.648  0.00  0.00    -0.271 NA
ATOM      3  C2  YKI d          11.408  14.884  28.041  0.00  0.00     0.030 A 
ATOM      4  N2  YKI d           9.017  14.652  27.162  0.00  0.00    -0.337 N 
ATOM      5  C3  YKI d          12.085  14.067  25.381  0.00  0.00    -0.036 A 
ATOM      6  N3  YKI d           9.551  14.021  25.105  0.00  0.00    -0.228 NA
ATOM      7  C4  YKI d           8.533  14.296  25.960  0.00  0.00     0.140 A 
ATOM      8  C5  YKI d          10.738  14.203  25.760  0.00  0.00     0.088 A 
ATOM      9  C6  YKI d          10.387  14.611  27.108  0.00  0.00     0.080 A 
ATOM     10  C7  YKI d           7.117  14.246  25.670  0.00  0.00     0.022 A 
ATOM     11  C8  YKI d           4.278  14.340  25.147  0.00  0.00    -0.074 A 
ATOM     12  C9  YKI d           4.930  15.442  25.778  0.00  0.00    -0.081 A 
ATOM     13  C10 YKI d           6.341  15.377  26.031  0.00  0.00    -0.068 A 
ATOM     14  C16 YKI d           4.432  11.981  24.107  0.00  0.00     0.065 A 
ATOM     15  C17 YKI d           5.023  13.165  24.764  0.00  0.00    -0.019 A 
ATOM     16  C18 YKI d           6.404  13.069  25.000  0.00  0.00    -0.003 A 
ATOM     17  C19 YKI d           5.697  11.084  23.966  0.00  0.00    -0.020 A 
ATOM     18  C20 YKI d           6.858  11.755  24.493  0.00  0.00    -0.016 A 
ATOM     19  C21 YKI d           8.150  11.071  24.441  0.00  0.00    -0.072 A 
ATOM     20  C22 YKI d           8.258   9.759  23.873  0.00  0.00    -0.082 A 
ATOM     21  C23 YKI d           7.073   9.099  23.347  0.00  0.00    -0.082 A 
ATOM     22  C24 YKI d           5.801   9.762  23.392  0.00  0.00    -0.074 A 
ATOM     23  H1  YKI d          14.120  14.261  26.087  0.00  0.00     0.114 H 
ATOM     24  H2  YKI d          11.162  15.196  29.049  0.00  0.00     0.118 H 
ATOM     25  H3  YKI d           8.454  14.910  27.985  0.00  0.00     0.167 HD
ATOM     26  H4  YKI d          12.358  13.755  24.379  0.00  0.00     0.089 H 
ATOM     27  H7  YKI d           3.212  14.387  24.954  0.00  0.00     0.084 H 
ATOM     28  H8  YKI d           4.364  16.321  26.063  0.00  0.00     0.083 H 
ATOM     29  H9  YKI d           6.828  16.217  26.512  0.00  0.00     0.085 H 
ATOM     30  H12 YKI d           4.176  12.285  23.081  0.00  0.00     0.088 H 
ATOM     31  H13 YKI d           9.033  11.560  24.835  0.00  0.00     0.084 H 
ATOM     32  H14 YKI d           9.220   9.260  23.835  0.00  0.00     0.083 H 
ATOM     33  H15 YKI d           7.151   8.106  22.920  0.00  0.00     0.083 H 
ATOM     34  H16 YKI d           4.920   9.271  22.997  0.00  0.00     0.084 H 
ENDROOT
BRANCH  14  35
ATOM     35  N4  YKI d           3.416  11.602  24.507  0.00  0.00    -0.344 N 
ATOM     36  C11 YKI d           2.124  11.757  24.151  0.00  0.00     0.253 C 
ATOM     37  O13 YKI d           1.913  12.462  23.152  0.00  0.00    -0.268 OA
ATOM     38  H5  YKI d           3.520  11.017  25.312  0.00  0.00     0.163 HD
BRANCH  36  39
ATOM     39  C12 YKI d           0.970  11.154  24.911  0.00  0.00     0.047 A 
ATOM     40  C14 YKI d          -0.421  11.467  24.696  0.00  0.00    -0.050 A 
ATOM     41  C15 YKI d          -1.397  10.792  25.509  0.00  0.00     0.005 A 
ATOM     42  H10 YKI d          -0.722  12.188  23.945  0.00  0.00     0.087 H 
ATOM     43  N5  YKI d          -0.999   9.874  26.476  0.00  0.00    -0.242 NA
ATOM     44  H11 YKI d          -2.452  11.000  25.368  0.00  0.00     0.114 H 
ATOM     45  C26 YKI d           0.347   9.560  26.694  0.00  0.00     0.138 A 
ATOM     46  N6  YKI d           0.850   8.673  27.619  0.00  0.00    -0.350 N 
ATOM     47  C25 YKI d           1.349  10.164  25.965  0.00  0.00     0.027 A 
ATOM     48  C27 YKI d           2.226   8.693  27.476  0.00  0.00    -0.020 A 
ATOM     49  H6  YKI d           0.308   8.106  28.286  0.00  0.00     0.166 HD
ATOM     50  C28 YKI d           2.579   9.602  26.457  0.00  0.00    -0.053 A 
ATOM     51  H17 YKI d           2.928   8.099  28.059  0.00  0.00     0.111 H 
ATOM     52  H18 YKI d           3.585   9.833  26.110  0.00  0.00     0.087 H 
ENDBRANCH  36  39
ENDBRANCH  14  35
TORSDOF 2
ENDMDL
