MODEL 1
REMARK VINA RESULT:      -7.7      0.000      0.000
REMARK  5 active torsions:
REMARK  status: ('A' for Active; 'I' for Inactive)
REMARK    1  A    between atoms: C22_2  and  C31_3 
REMARK       I    between atoms: C22_2  and  N21_12 
REMARK    2  A    between atoms: C34_6  and  C41_9 
REMARK    3  A    between atoms: C41_9  and  C42_10 
REMARK    4  A    between atoms: C41_9  and  N43_11 
REMARK    5  A    between atoms: N21_12  and  C14_13 
ROOT
ATOM      1  C31 Y27 d           8.499   9.054   4.047  0.00  0.00     0.024 C 
ATOM      2  C36 Y27 d           7.868  10.064   5.011  0.00  0.00    -0.053 C 
ATOM      3  C35 Y27 d           6.393   9.720   5.240  0.00  0.00    -0.059 C 
ATOM      4  C34 Y27 d           5.672   9.941   3.904  0.00  0.00    -0.027 C 
ATOM      5  C33 Y27 d           6.215   8.937   2.852  0.00  0.00    -0.059 C 
ATOM      6  C32 Y27 d           7.772   9.033   2.687  0.00  0.00    -0.053 C 
ATOM      7  H1  Y27 d           8.383   8.054   4.488  0.00  0.00     0.054 H 
ATOM      8  H2  Y27 d           7.945  11.073   4.583  0.00  0.00     0.034 H 
ATOM      9  H3  Y27 d           8.402  10.032   5.972  0.00  0.00     0.034 H 
ATOM     10  H4  Y27 d           5.967  10.377   6.012  0.00  0.00     0.033 H 
ATOM     11  H5  Y27 d           6.293   8.671   5.554  0.00  0.00     0.033 H 
ATOM     12  H6  Y27 d           5.923  10.948   3.542  0.00  0.00     0.043 H 
ATOM     13  H7  Y27 d           5.742   9.151   1.882  0.00  0.00     0.033 H 
ATOM     14  H8  Y27 d           5.955   7.916   3.170  0.00  0.00     0.033 H 
ATOM     15  H9  Y27 d           8.122   8.163   2.112  0.00  0.00     0.034 H 
ATOM     16  H10 Y27 d           8.016   9.956   2.141  0.00  0.00     0.034 H 
ENDROOT
BRANCH   1  17
ATOM     17  C22 Y27 d           9.977   9.327   3.929  0.00  0.00     0.226 C 
ATOM     18  O23 Y27 d          10.499  10.393   4.268  0.00  0.00    -0.273 OA
ATOM     19  N21 Y27 d          10.720   8.228   3.416  0.00  0.00    -0.327 N 
ATOM     20  H18 Y27 d          10.199   7.519   2.941  0.00  0.00     0.169 HD
BRANCH  19  21
ATOM     21  C14 Y27 d          12.146   8.026   3.507  0.00  0.00     0.037 A 
ATOM     22  C15 Y27 d          12.888   8.413   2.379  0.00  0.00    -0.040 A 
ATOM     23  C16 Y27 d          14.268   8.206   2.451  0.00  0.00     0.004 A 
ATOM     24  H19 Y27 d          12.418   8.847   1.504  0.00  0.00     0.089 H 
ATOM     25  N11 Y27 d          14.860   7.679   3.543  0.00  0.00    -0.273 NA
ATOM     26  H20 Y27 d          14.883   8.477   1.600  0.00  0.00     0.114 H 
ATOM     27  C12 Y27 d          14.163   7.304   4.628  0.00  0.00     0.004 A 
ATOM     28  C13 Y27 d          12.785   7.461   4.648  0.00  0.00    -0.040 A 
ATOM     29  H21 Y27 d          14.676   6.881   5.483  0.00  0.00     0.114 H 
ATOM     30  H22 Y27 d          12.206   7.159   5.514  0.00  0.00     0.089 H 
ENDBRANCH  19  21
ENDBRANCH   1  17
BRANCH   4  31
ATOM     31  C41 Y27 d           4.131   9.916   4.140  0.00  0.00     0.100 C 
ATOM     32  H11 Y27 d           3.750  10.941   4.031  0.00  0.00     0.083 H 
BRANCH  31  33
ATOM     33  C42 Y27 d           3.438   9.018   3.098  0.00  0.00    -0.049 C 
ATOM     34  H12 Y27 d           3.362   7.993   3.490  0.00  0.00     0.030 H 
ATOM     35  H13 Y27 d           4.027   9.012   2.169  0.00  0.00     0.030 H 
ATOM     36  H14 Y27 d           2.430   9.408   2.892  0.00  0.00     0.030 H 
ENDBRANCH  31  33
BRANCH  31  37
ATOM     37  N43 Y27 d           3.790   9.423   5.522  0.00  0.00    -0.075 N 
ATOM     38  H15 Y27 d           2.864   9.738   5.772  0.00  0.00     0.274 HD
ATOM     39  H16 Y27 d           4.458   9.787   6.183  0.00  0.00     0.274 HD
ATOM     40  H17 Y27 d           3.817   8.416   5.537  0.00  0.00     0.274 HD
ENDBRANCH  31  37
ENDBRANCH   4  31
TORSDOF 5
ENDMDL
MODEL 2
REMARK VINA RESULT:      -7.7      1.456      1.813
REMARK  5 active torsions:
REMARK  status: ('A' for Active; 'I' for Inactive)
REMARK    1  A    between atoms: C22_2  and  C31_3 
REMARK       I    between atoms: C22_2  and  N21_12 
REMARK    2  A    between atoms: C34_6  and  C41_9 
REMARK    3  A    between atoms: C41_9  and  C42_10 
REMARK    4  A    between atoms: C41_9  and  N43_11 
REMARK    5  A    between atoms: N21_12  and  C14_13 
ROOT
ATOM      1  C31 Y27 d           8.515   9.310   3.991  0.00  0.00     0.024 C 
ATOM      2  C36 Y27 d           7.828  10.290   4.946  0.00  0.00    -0.053 C 
ATOM      3  C35 Y27 d           6.383   9.849   5.200  0.00  0.00    -0.059 C 
ATOM      4  C34 Y27 d           5.633   9.995   3.871  0.00  0.00    -0.027 C 
ATOM      5  C33 Y27 d           6.231   9.012   2.830  0.00  0.00    -0.059 C 
ATOM      6  C32 Y27 d           7.775   9.212   2.642  0.00  0.00    -0.053 C 
ATOM      7  H1  Y27 d           8.476   8.312   4.451  0.00  0.00     0.054 H 
ATOM      8  H2  Y27 d           7.829  11.295   4.498  0.00  0.00     0.034 H 
ATOM      9  H3  Y27 d           8.375  10.314   5.899  0.00  0.00     0.034 H 
ATOM     10  H4  Y27 d           5.922  10.489   5.967  0.00  0.00     0.033 H 
ATOM     11  H5  Y27 d           6.361   8.802   5.534  0.00  0.00     0.033 H 
ATOM     12  H6  Y27 d           5.808  11.010   3.488  0.00  0.00     0.043 H 
ATOM     13  H7  Y27 d           5.732   9.175   1.862  0.00  0.00     0.033 H 
ATOM     14  H8  Y27 d           6.046   7.981   3.169  0.00  0.00     0.033 H 
ATOM     15  H9  Y27 d           8.178   8.358   2.077  0.00  0.00     0.034 H 
ATOM     16  H10 Y27 d           7.947  10.140   2.076  0.00  0.00     0.034 H 
ENDROOT
BRANCH   1  17
ATOM     17  C22 Y27 d           9.969   9.683   3.848  0.00  0.00     0.226 C 
ATOM     18  O23 Y27 d          10.728   9.837   4.809  0.00  0.00    -0.273 OA
ATOM     19  N21 Y27 d          10.394   9.813   2.496  0.00  0.00    -0.327 N 
ATOM     20  H18 Y27 d           9.674   9.921   1.810  0.00  0.00     0.169 HD
BRANCH  19  21
ATOM     21  C14 Y27 d          11.751   9.807   2.008  0.00  0.00     0.037 A 
ATOM     22  C15 Y27 d          12.138  10.939   1.272  0.00  0.00    -0.040 A 
ATOM     23  C16 Y27 d          13.446  10.934   0.780  0.00  0.00     0.004 A 
ATOM     24  H19 Y27 d          11.462  11.767   1.095  0.00  0.00     0.089 H 
ATOM     25  N11 Y27 d          14.297   9.912   1.009  0.00  0.00    -0.273 NA
ATOM     26  H20 Y27 d          13.788  11.780   0.195  0.00  0.00     0.114 H 
ATOM     27  C12 Y27 d          13.941   8.824   1.710  0.00  0.00     0.004 A 
ATOM     28  C13 Y27 d          12.658   8.731   2.231  0.00  0.00    -0.040 A 
ATOM     29  H21 Y27 d          14.652   8.022   1.868  0.00  0.00     0.114 H 
ATOM     30  H22 Y27 d          12.352   7.857   2.796  0.00  0.00     0.089 H 
ENDBRANCH  19  21
ENDBRANCH   1  17
BRANCH   4  31
ATOM     31  C41 Y27 d           4.100   9.867   4.128  0.00  0.00     0.100 C 
ATOM     32  H11 Y27 d           3.647  10.861   4.006  0.00  0.00     0.083 H 
BRANCH  31  33
ATOM     33  C42 Y27 d           3.459   8.903   3.113  0.00  0.00    -0.049 C 
ATOM     34  H12 Y27 d           2.363   8.935   3.218  0.00  0.00     0.030 H 
ATOM     35  H13 Y27 d           3.815   7.880   3.302  0.00  0.00     0.030 H 
ATOM     36  H14 Y27 d           3.737   9.207   2.093  0.00  0.00     0.030 H 
ENDBRANCH  31  33
BRANCH  31  37
ATOM     37  N43 Y27 d           3.811   9.379   5.524  0.00  0.00    -0.075 N 
ATOM     38  H15 Y27 d           4.619   9.533   6.108  0.00  0.00     0.274 HD
ATOM     39  H16 Y27 d           3.598   8.394   5.498  0.00  0.00     0.274 HD
ATOM     40  H17 Y27 d           3.023   9.882   5.900  0.00  0.00     0.274 HD
ENDBRANCH  31  37
ENDBRANCH   4  31
TORSDOF 5
ENDMDL
MODEL 3
REMARK VINA RESULT:      -7.6      1.053      1.922
REMARK  5 active torsions:
REMARK  status: ('A' for Active; 'I' for Inactive)
REMARK    1  A    between atoms: C22_2  and  C31_3 
REMARK       I    between atoms: C22_2  and  N21_12 
REMARK    2  A    between atoms: C34_6  and  C41_9 
REMARK    3  A    between atoms: C41_9  and  C42_10 
REMARK    4  A    between atoms: C41_9  and  N43_11 
REMARK    5  A    between atoms: N21_12  and  C14_13 
ROOT
ATOM      1  C31 Y27 d           8.646   8.992   3.682  0.00  0.00     0.024 C 
ATOM      2  C36 Y27 d           7.587   8.732   2.607  0.00  0.00    -0.053 C 
ATOM      3  C35 Y27 d           6.389   9.664   2.815  0.00  0.00    -0.059 C 
ATOM      4  C34 Y27 d           5.727   9.252   4.135  0.00  0.00    -0.027 C 
ATOM      5  C33 Y27 d           6.711   9.508   5.308  0.00  0.00    -0.059 C 
ATOM      6  C32 Y27 d           8.085   8.779   5.102  0.00  0.00    -0.053 C 
ATOM      7  H1  Y27 d           8.943  10.049   3.610  0.00  0.00     0.054 H 
ATOM      8  H2  Y27 d           7.250   7.687   2.673  0.00  0.00     0.034 H 
ATOM      9  H3  Y27 d           8.022   8.915   1.614  0.00  0.00     0.034 H 
ATOM     10  H4  Y27 d           5.676   9.555   1.985  0.00  0.00     0.033 H 
ATOM     11  H5  Y27 d           6.729  10.709   2.872  0.00  0.00     0.033 H 
ATOM     12  H6  Y27 d           5.545   8.168   4.103  0.00  0.00     0.043 H 
ATOM     13  H7  Y27 d           6.254   9.143   6.240  0.00  0.00     0.033 H 
ATOM     14  H8  Y27 d           6.893  10.590   5.387  0.00  0.00     0.033 H 
ATOM     15  H9  Y27 d           8.808   9.171   5.832  0.00  0.00     0.034 H 
ATOM     16  H10 Y27 d           7.943   7.700   5.268  0.00  0.00     0.034 H 
ENDROOT
BRANCH   1  17
ATOM     17  C22 Y27 d           9.870   8.159   3.393  0.00  0.00     0.226 C 
ATOM     18  O23 Y27 d           9.902   7.277   2.531  0.00  0.00    -0.273 OA
ATOM     19  N21 Y27 d          10.996   8.506   4.191  0.00  0.00    -0.327 N 
ATOM     20  H18 Y27 d          10.812   9.040   5.016  0.00  0.00     0.169 HD
BRANCH  19  21
ATOM     21  C14 Y27 d          12.376   8.170   3.936  0.00  0.00     0.037 A 
ATOM     22  C15 Y27 d          12.989   7.349   4.898  0.00  0.00    -0.040 A 
ATOM     23  C16 Y27 d          14.331   7.033   4.669  0.00  0.00     0.004 A 
ATOM     24  H19 Y27 d          12.453   6.983   5.766  0.00  0.00     0.089 H 
ATOM     25  N11 Y27 d          14.999   7.473   3.583  0.00  0.00    -0.273 NA
ATOM     26  H20 Y27 d          14.852   6.412   5.390  0.00  0.00     0.114 H 
ATOM     27  C12 Y27 d          14.426   8.258   2.657  0.00  0.00     0.004 A 
ATOM     28  C13 Y27 d          13.099   8.637   2.801  0.00  0.00    -0.040 A 
ATOM     29  H21 Y27 d          14.998   8.595   1.801  0.00  0.00     0.114 H 
ATOM     30  H22 Y27 d          12.622   9.274   2.065  0.00  0.00     0.089 H 
ENDBRANCH  19  21
ENDBRANCH   1  17
BRANCH   4  31
ATOM     31  C41 Y27 d           4.334   9.942   4.251  0.00  0.00     0.100 C 
ATOM     32  H11 Y27 d           4.475  11.025   4.117  0.00  0.00     0.083 H 
BRANCH  31  33
ATOM     33  C42 Y27 d           3.382   9.429   3.154  0.00  0.00    -0.049 C 
ATOM     34  H12 Y27 d           3.793   9.682   2.165  0.00  0.00     0.030 H 
ATOM     35  H13 Y27 d           2.396   9.901   3.274  0.00  0.00     0.030 H 
ATOM     36  H14 Y27 d           3.279   8.337   3.240  0.00  0.00     0.030 H 
ENDBRANCH  31  33
BRANCH  31  37
ATOM     37  N43 Y27 d           3.707   9.705   5.600  0.00  0.00    -0.075 N 
ATOM     38  H15 Y27 d           3.908   8.764   5.903  0.00  0.00     0.274 HD
ATOM     39  H16 Y27 d           2.710   9.831   5.534  0.00  0.00     0.274 HD
ATOM     40  H17 Y27 d           4.085  10.360   6.267  0.00  0.00     0.274 HD
ENDBRANCH  31  37
ENDBRANCH   4  31
TORSDOF 5
ENDMDL
MODEL 4
REMARK VINA RESULT:      -7.4      1.794      7.484
REMARK  5 active torsions:
REMARK  status: ('A' for Active; 'I' for Inactive)
REMARK    1  A    between atoms: C22_2  and  C31_3 
REMARK       I    between atoms: C22_2  and  N21_12 
REMARK    2  A    between atoms: C34_6  and  C41_9 
REMARK    3  A    between atoms: C41_9  and  C42_10 
REMARK    4  A    between atoms: C41_9  and  N43_11 
REMARK    5  A    between atoms: N21_12  and  C14_13 
ROOT
ATOM      1  C31 Y27 d           9.534   9.333   2.389  0.00  0.00     0.024 C 
ATOM      2  C36 Y27 d          10.032  10.054   3.645  0.00  0.00    -0.053 C 
ATOM      3  C35 Y27 d          11.562  10.016   3.700  0.00  0.00    -0.059 C 
ATOM      4  C34 Y27 d          11.964   8.549   3.897  0.00  0.00    -0.027 C 
ATOM      5  C33 Y27 d          11.534   7.724   2.655  0.00  0.00    -0.059 C 
ATOM      6  C32 Y27 d          10.001   7.864   2.351  0.00  0.00    -0.053 C 
ATOM      7  H1  Y27 d           9.979   9.834   1.517  0.00  0.00     0.054 H 
ATOM      8  H2  Y27 d           9.623   9.557   4.537  0.00  0.00     0.034 H 
ATOM      9  H3  Y27 d           9.694  11.100   3.622  0.00  0.00     0.034 H 
ATOM     10  H4  Y27 d          11.925  10.624   4.541  0.00  0.00     0.033 H 
ATOM     11  H5  Y27 d          11.984  10.401   2.760  0.00  0.00     0.033 H 
ATOM     12  H6  Y27 d          11.402   8.152   4.754  0.00  0.00     0.043 H 
ATOM     13  H7  Y27 d          11.764   6.664   2.837  0.00  0.00     0.033 H 
ATOM     14  H8  Y27 d          12.102   8.078   1.781  0.00  0.00     0.033 H 
ATOM     15  H9  Y27 d           9.799   7.453   1.350  0.00  0.00     0.034 H 
ATOM     16  H10 Y27 d           9.436   7.293   3.103  0.00  0.00     0.034 H 
ENDROOT
BRANCH   1  17
ATOM     17  C22 Y27 d           8.038   9.485   2.281  0.00  0.00     0.226 C 
ATOM     18  O23 Y27 d           7.419   9.373   1.220  0.00  0.00    -0.273 OA
ATOM     19  N21 Y27 d           7.400   9.744   3.527  0.00  0.00    -0.327 N 
ATOM     20  H18 Y27 d           7.987  10.065   4.271  0.00  0.00     0.169 HD
BRANCH  19  21
ATOM     21  C14 Y27 d           5.999   9.593   3.833  0.00  0.00     0.037 A 
ATOM     22  C15 Y27 d           5.584  10.122   5.066  0.00  0.00    -0.040 A 
ATOM     23  C16 Y27 d           4.232   9.965   5.379  0.00  0.00     0.004 A 
ATOM     24  H19 Y27 d           6.273  10.624   5.736  0.00  0.00     0.089 H 
ATOM     25  N11 Y27 d           3.366   9.355   4.542  0.00  0.00    -0.273 NA
ATOM     26  H20 Y27 d           3.865  10.346   6.325  0.00  0.00     0.114 H 
ATOM     27  C12 Y27 d           3.748   8.843   3.361  0.00  0.00     0.004 A 
ATOM     28  C13 Y27 d           5.075   8.940   2.966  0.00  0.00    -0.040 A 
ATOM     29  H21 Y27 d           3.024   8.356   2.720  0.00  0.00     0.114 H 
ATOM     30  H22 Y27 d           5.401   8.529   2.018  0.00  0.00     0.089 H 
ENDBRANCH  19  21
ENDBRANCH   1  17
BRANCH   4  31
ATOM     31  C41 Y27 d          13.475   8.476   4.274  0.00  0.00     0.100 C 
ATOM     32  H11 Y27 d          13.684   9.265   5.012  0.00  0.00     0.083 H 
BRANCH  31  33
ATOM     33  C42 Y27 d          13.811   7.112   4.904  0.00  0.00    -0.049 C 
ATOM     34  H12 Y27 d          12.900   6.672   5.336  0.00  0.00     0.030 H 
ATOM     35  H13 Y27 d          14.563   7.248   5.695  0.00  0.00     0.030 H 
ATOM     36  H14 Y27 d          14.210   6.439   4.130  0.00  0.00     0.030 H 
ENDBRANCH  31  33
BRANCH  31  37
ATOM     37  N43 Y27 d          14.358   8.698   3.074  0.00  0.00    -0.075 N 
ATOM     38  H15 Y27 d          14.532   9.686   2.962  0.00  0.00     0.274 HD
ATOM     39  H16 Y27 d          13.901   8.342   2.250  0.00  0.00     0.274 HD
ATOM     40  H17 Y27 d          15.234   8.216   3.207  0.00  0.00     0.274 HD
ENDBRANCH  31  37
ENDBRANCH   4  31
TORSDOF 5
ENDMDL
MODEL 5
REMARK VINA RESULT:      -7.4      1.542      7.534
REMARK  5 active torsions:
REMARK  status: ('A' for Active; 'I' for Inactive)
REMARK    1  A    between atoms: C22_2  and  C31_3 
REMARK       I    between atoms: C22_2  and  N21_12 
REMARK    2  A    between atoms: C34_6  and  C41_9 
REMARK    3  A    between atoms: C41_9  and  C42_10 
REMARK    4  A    between atoms: C41_9  and  N43_11 
REMARK    5  A    between atoms: N21_12  and  C14_13 
ROOT
ATOM      1  C31 Y27 d           9.784   9.527   3.224  0.00  0.00     0.024 C 
ATOM      2  C36 Y27 d          11.012   9.952   4.034  0.00  0.00    -0.053 C 
ATOM      3  C35 Y27 d          12.285   9.745   3.207  0.00  0.00    -0.059 C 
ATOM      4  C34 Y27 d          12.444   8.233   3.006  0.00  0.00    -0.027 C 
ATOM      5  C33 Y27 d          11.259   7.697   2.159  0.00  0.00    -0.059 C 
ATOM      6  C32 Y27 d           9.868   8.049   2.793  0.00  0.00    -0.053 C 
ATOM      7  H1  Y27 d           9.767  10.129   2.303  0.00  0.00     0.054 H 
ATOM      8  H2  Y27 d          11.071   9.347   4.951  0.00  0.00     0.034 H 
ATOM      9  H3  Y27 d          10.922  11.015   4.303  0.00  0.00     0.034 H 
ATOM     10  H4  Y27 d          13.155  10.149   3.744  0.00  0.00     0.033 H 
ATOM     11  H5  Y27 d          12.189  10.248   2.234  0.00  0.00     0.033 H 
ATOM     12  H6  Y27 d          12.377   7.748   3.990  0.00  0.00     0.043 H 
ATOM     13  H7  Y27 d          11.346   6.603   2.081  0.00  0.00     0.033 H 
ATOM     14  H8  Y27 d          11.313   8.142   1.154  0.00  0.00     0.033 H 
ATOM     15  H9  Y27 d           9.079   7.850   2.052  0.00  0.00     0.034 H 
ATOM     16  H10 Y27 d           9.709   7.413   3.677  0.00  0.00     0.034 H 
ENDROOT
BRANCH   1  17
ATOM     17  C22 Y27 d           8.533   9.853   3.999  0.00  0.00     0.226 C 
ATOM     18  O23 Y27 d           8.463  10.772   4.820  0.00  0.00    -0.273 OA
ATOM     19  N21 Y27 d           7.428   9.017   3.674  0.00  0.00    -0.327 N 
ATOM     20  H18 Y27 d           7.639   8.160   3.203  0.00  0.00     0.169 HD
BRANCH  19  21
ATOM     21  C14 Y27 d           6.036   9.272   3.952  0.00  0.00     0.037 A 
ATOM     22  C15 Y27 d           5.145   8.999   2.901  0.00  0.00    -0.040 A 
ATOM     23  C16 Y27 d           3.796   9.260   3.154  0.00  0.00     0.004 A 
ATOM     24  H19 Y27 d           5.485   8.609   1.948  0.00  0.00     0.089 H 
ATOM     25  N11 Y27 d           3.366   9.732   4.343  0.00  0.00    -0.273 NA
ATOM     26  H20 Y27 d           3.071   9.077   2.369  0.00  0.00     0.114 H 
ATOM     27  C12 Y27 d           4.205   9.997   5.356  0.00  0.00     0.004 A 
ATOM     28  C13 Y27 d           5.567   9.781   5.198  0.00  0.00    -0.040 A 
ATOM     29  H21 Y27 d           3.821  10.380   6.295  0.00  0.00     0.114 H 
ATOM     30  H22 Y27 d           6.259   9.995   6.004  0.00  0.00     0.089 H 
ENDBRANCH  19  21
ENDBRANCH   1  17
BRANCH   4  31
ATOM     31  C41 Y27 d          13.870   7.935   2.450  0.00  0.00     0.100 C 
ATOM     32  H11 Y27 d          14.418   8.886   2.382  0.00  0.00     0.083 H 
BRANCH  31  33
ATOM     33  C42 Y27 d          14.634   6.992   3.397  0.00  0.00    -0.049 C 
ATOM     34  H12 Y27 d          15.376   6.416   2.822  0.00  0.00     0.030 H 
ATOM     35  H13 Y27 d          13.926   6.300   3.877  0.00  0.00     0.030 H 
ATOM     36  H14 Y27 d          15.149   7.584   4.168  0.00  0.00     0.030 H 
ENDBRANCH  31  33
BRANCH  31  37
ATOM     37  N43 Y27 d          13.812   7.318   1.077  0.00  0.00    -0.075 N 
ATOM     38  H15 Y27 d          13.968   6.324   1.149  0.00  0.00     0.274 HD
ATOM     39  H16 Y27 d          14.524   7.728   0.494  0.00  0.00     0.274 HD
ATOM     40  H17 Y27 d          12.905   7.487   0.670  0.00  0.00     0.274 HD
ENDBRANCH  31  37
ENDBRANCH   4  31
TORSDOF 5
ENDMDL
MODEL 6
REMARK VINA RESULT:      -7.1      1.720      2.279
REMARK  5 active torsions:
REMARK  status: ('A' for Active; 'I' for Inactive)
REMARK    1  A    between atoms: C22_2  and  C31_3 
REMARK       I    between atoms: C22_2  and  N21_12 
REMARK    2  A    between atoms: C34_6  and  C41_9 
REMARK    3  A    between atoms: C41_9  and  C42_10 
REMARK    4  A    between atoms: C41_9  and  N43_11 
REMARK    5  A    between atoms: N21_12  and  C14_13 
ROOT
ATOM      1  C31 Y27 d           8.686   9.633   2.413  0.00  0.00     0.024 C 
ATOM      2  C36 Y27 d           7.476   9.561   1.476  0.00  0.00    -0.053 C 
ATOM      3  C35 Y27 d           6.264  10.229   2.132  0.00  0.00    -0.059 C 
ATOM      4  C34 Y27 d           5.882   9.369   3.343  0.00  0.00    -0.027 C 
ATOM      5  C33 Y27 d           7.034   9.399   4.382  0.00  0.00    -0.059 C 
ATOM      6  C32 Y27 d           8.404   8.946   3.764  0.00  0.00    -0.053 C 
ATOM      7  H1  Y27 d           8.880  10.694   2.628  0.00  0.00     0.054 H 
ATOM      8  H2  Y27 d           7.242   8.507   1.266  0.00  0.00     0.034 H 
ATOM      9  H3  Y27 d           7.713  10.079   0.536  0.00  0.00     0.034 H 
ATOM     10  H4  Y27 d           5.426  10.274   1.421  0.00  0.00     0.033 H 
ATOM     11  H5  Y27 d           6.524  11.247   2.458  0.00  0.00     0.033 H 
ATOM     12  H6  Y27 d           5.784   8.327   3.006  0.00  0.00     0.043 H 
ATOM     13  H7  Y27 d           6.780   8.723   5.213  0.00  0.00     0.033 H 
ATOM     14  H8  Y27 d           7.141  10.426   4.763  0.00  0.00     0.033 H 
ATOM     15  H9  Y27 d           9.212   9.199   4.467  0.00  0.00     0.034 H 
ATOM     16  H10 Y27 d           8.381   7.857   3.610  0.00  0.00     0.034 H 
ENDROOT
BRANCH   1  17
ATOM     17  C22 Y27 d           9.901   9.086   1.708  0.00  0.00     0.226 C 
ATOM     18  O23 Y27 d           9.875   8.642   0.557  0.00  0.00    -0.273 OA
ATOM     19  N21 Y27 d          11.091   9.157   2.486  0.00  0.00    -0.327 N 
ATOM     20  H18 Y27 d          10.974   9.289   3.470  0.00  0.00     0.169 HD
BRANCH  19  21
ATOM     21  C14 Y27 d          12.448   9.059   2.006  0.00  0.00     0.037 A 
ATOM     22  C15 Y27 d          12.922  10.170   1.291  0.00  0.00    -0.040 A 
ATOM     23  C16 Y27 d          14.230  10.077   0.807  0.00  0.00     0.004 A 
ATOM     24  H19 Y27 d          12.310  11.049   1.124  0.00  0.00     0.089 H 
ATOM     25  N11 Y27 d          15.002   8.992   1.024  0.00  0.00    -0.273 NA
ATOM     26  H20 Y27 d          14.637  10.905   0.237  0.00  0.00     0.114 H 
ATOM     27  C12 Y27 d          14.561   7.922   1.705  0.00  0.00     0.004 A 
ATOM     28  C13 Y27 d          13.272   7.915   2.217  0.00  0.00    -0.040 A 
ATOM     29  H21 Y27 d          15.211   7.068   1.854  0.00  0.00     0.114 H 
ATOM     30  H22 Y27 d          12.899   7.058   2.765  0.00  0.00     0.089 H 
ENDBRANCH  19  21
ENDBRANCH   1  17
BRANCH   4  31
ATOM     31  C41 Y27 d           4.481   9.809   3.866  0.00  0.00     0.100 C 
ATOM     32  H11 Y27 d           4.344  10.874   3.629  0.00  0.00     0.083 H 
BRANCH  31  33
ATOM     33  C42 Y27 d           3.366   9.003   3.174  0.00  0.00    -0.049 C 
ATOM     34  H12 Y27 d           3.101   9.487   2.221  0.00  0.00     0.030 H 
ATOM     35  H13 Y27 d           2.481   8.966   3.825  0.00  0.00     0.030 H 
ATOM     36  H14 Y27 d           3.721   7.980   2.978  0.00  0.00     0.030 H 
ENDBRANCH  31  33
BRANCH  31  37
ATOM     37  N43 Y27 d           4.365   9.633   5.358  0.00  0.00    -0.075 N 
ATOM     38  H15 Y27 d           4.072   8.689   5.563  0.00  0.00     0.274 HD
ATOM     39  H16 Y27 d           3.685  10.282   5.721  0.00  0.00     0.274 HD
ATOM     40  H17 Y27 d           5.259   9.808   5.788  0.00  0.00     0.274 HD
ENDBRANCH  31  37
ENDBRANCH   4  31
TORSDOF 5
ENDMDL
MODEL 7
REMARK VINA RESULT:      -7.0      1.666      7.561
REMARK  5 active torsions:
REMARK  status: ('A' for Active; 'I' for Inactive)
REMARK    1  A    between atoms: C22_2  and  C31_3 
REMARK       I    between atoms: C22_2  and  N21_12 
REMARK    2  A    between atoms: C34_6  and  C41_9 
REMARK    3  A    between atoms: C41_9  and  C42_10 
REMARK    4  A    between atoms: C41_9  and  N43_11 
REMARK    5  A    between atoms: N21_12  and  C14_13 
ROOT
ATOM      1  C31 Y27 d           9.752   9.474   3.041  0.00  0.00     0.024 C 
ATOM      2  C36 Y27 d          10.025   8.046   3.523  0.00  0.00    -0.053 C 
ATOM      3  C35 Y27 d          11.499   7.896   3.911  0.00  0.00    -0.059 C 
ATOM      4  C34 Y27 d          12.317   8.045   2.622  0.00  0.00    -0.027 C 
ATOM      5  C33 Y27 d          12.139   9.481   2.061  0.00  0.00    -0.059 C 
ATOM      6  C32 Y27 d          10.631   9.846   1.829  0.00  0.00    -0.053 C 
ATOM      7  H1  Y27 d          10.024  10.160   3.856  0.00  0.00     0.054 H 
ATOM      8  H2  Y27 d           9.788   7.338   2.715  0.00  0.00     0.034 H 
ATOM      9  H3  Y27 d           9.395   7.830   4.397  0.00  0.00     0.034 H 
ATOM     10  H4  Y27 d          11.674   6.907   4.358  0.00  0.00     0.033 H 
ATOM     11  H5  Y27 d          11.782   8.679   4.631  0.00  0.00     0.033 H 
ATOM     12  H6  Y27 d          11.903   7.356   1.873  0.00  0.00     0.043 H 
ATOM     13  H7  Y27 d          12.672   9.554   1.101  0.00  0.00     0.033 H 
ATOM     14  H8  Y27 d          12.571  10.197   2.776  0.00  0.00     0.033 H 
ATOM     15  H9  Y27 d          10.551  10.929   1.652  0.00  0.00     0.034 H 
ATOM     16  H10 Y27 d          10.265   9.302   0.946  0.00  0.00     0.034 H 
ENDROOT
BRANCH   1  17
ATOM     17  C22 Y27 d           8.276   9.644   2.781  0.00  0.00     0.226 C 
ATOM     18  O23 Y27 d           7.780   9.626   1.652  0.00  0.00    -0.273 OA
ATOM     19  N21 Y27 d           7.504   9.797   3.967  0.00  0.00    -0.327 N 
ATOM     20  H18 Y27 d           8.003  10.050   4.796  0.00  0.00     0.169 HD
BRANCH  19  21
ATOM     21  C14 Y27 d           6.078   9.627   4.100  0.00  0.00     0.037 A 
ATOM     22  C15 Y27 d           5.430   9.032   3.005  0.00  0.00    -0.040 A 
ATOM     23  C16 Y27 d           4.046   8.880   3.117  0.00  0.00     0.004 A 
ATOM     24  H19 Y27 d           5.973   8.711   2.123  0.00  0.00     0.089 H 
ATOM     25  N11 Y27 d           3.367   9.265   4.218  0.00  0.00    -0.273 NA
ATOM     26  H20 Y27 d           3.500   8.437   2.292  0.00  0.00     0.114 H 
ATOM     27  C12 Y27 d           3.973   9.835   5.272  0.00  0.00     0.004 A 
ATOM     28  C13 Y27 d           5.345  10.039   5.251  0.00  0.00    -0.040 A 
ATOM     29  H21 Y27 d           3.391  10.135   6.136  0.00  0.00     0.114 H 
ATOM     30  H22 Y27 d           5.848  10.502   6.091  0.00  0.00     0.089 H 
ENDBRANCH  19  21
ENDBRANCH   1  17
BRANCH   4  31
ATOM     31  C41 Y27 d          13.786   7.595   2.889  0.00  0.00     0.100 C 
ATOM     32  H11 Y27 d          13.759   6.622   3.402  0.00  0.00     0.083 H 
BRANCH  31  33
ATOM     33  C42 Y27 d          14.552   7.433   1.564  0.00  0.00    -0.049 C 
ATOM     34  H12 Y27 d          15.531   6.968   1.760  0.00  0.00     0.030 H 
ATOM     35  H13 Y27 d          14.701   8.420   1.103  0.00  0.00     0.030 H 
ATOM     36  H14 Y27 d          13.973   6.793   0.881  0.00  0.00     0.030 H 
ENDBRANCH  31  33
BRANCH  31  37
ATOM     37  N43 Y27 d          14.517   8.577   3.767  0.00  0.00    -0.075 N 
ATOM     38  H15 Y27 d          14.522   8.239   4.717  0.00  0.00     0.274 HD
ATOM     39  H16 Y27 d          14.053   9.470   3.730  0.00  0.00     0.274 HD
ATOM     40  H17 Y27 d          15.466   8.677   3.441  0.00  0.00     0.274 HD
ENDBRANCH  31  37
ENDBRANCH   4  31
TORSDOF 5
ENDMDL
MODEL 8
REMARK VINA RESULT:      -6.6      1.546      7.803
REMARK  5 active torsions:
REMARK  status: ('A' for Active; 'I' for Inactive)
REMARK    1  A    between atoms: C22_2  and  C31_3 
REMARK       I    between atoms: C22_2  and  N21_12 
REMARK    2  A    between atoms: C34_6  and  C41_9 
REMARK    3  A    between atoms: C41_9  and  C42_10 
REMARK    4  A    between atoms: C41_9  and  N43_11 
REMARK    5  A    between atoms: N21_12  and  C14_13 
ROOT
ATOM      1  C31 Y27 d          11.026   8.840   3.033  0.00  0.00     0.024 C 
ATOM      2  C36 Y27 d          11.642   7.819   3.994  0.00  0.00    -0.053 C 
ATOM      3  C35 Y27 d          13.118   8.150   4.235  0.00  0.00    -0.059 C 
ATOM      4  C34 Y27 d          13.846   7.933   2.903  0.00  0.00    -0.027 C 
ATOM      5  C33 Y27 d          13.319   8.949   1.855  0.00  0.00    -0.059 C 
ATOM      6  C32 Y27 d          11.762   8.867   1.678  0.00  0.00    -0.053 C 
ATOM      7  H1  Y27 d          11.146   9.837   3.482  0.00  0.00     0.054 H 
ATOM      8  H2  Y27 d          11.560   6.813   3.557  0.00  0.00     0.034 H 
ATOM      9  H3  Y27 d          11.101   7.848   4.951  0.00  0.00     0.034 H 
ATOM     10  H4  Y27 d          13.533   7.484   5.006  0.00  0.00     0.033 H 
ATOM     11  H5  Y27 d          13.223   9.196   4.558  0.00  0.00     0.033 H 
ATOM     12  H6  Y27 d          13.590   6.930   2.532  0.00  0.00     0.043 H 
ATOM     13  H7  Y27 d          13.797   8.738   0.887  0.00  0.00     0.033 H 
ATOM     14  H8  Y27 d          13.585   9.965   2.182  0.00  0.00     0.033 H 
ATOM     15  H9  Y27 d          11.423   9.743   1.107  0.00  0.00     0.034 H 
ATOM     16  H10 Y27 d          11.515   7.949   1.123  0.00  0.00     0.034 H 
ENDROOT
BRANCH   1  17
ATOM     17  C22 Y27 d           9.546   8.579   2.902  0.00  0.00     0.226 C 
ATOM     18  O23 Y27 d           9.078   7.498   2.536  0.00  0.00    -0.273 OA
ATOM     19  N21 Y27 d           8.737   9.691   3.269  0.00  0.00    -0.327 N 
ATOM     20  H18 Y27 d           9.191  10.581   3.305  0.00  0.00     0.169 HD
BRANCH  19  21
ATOM     21  C14 Y27 d           7.332   9.671   3.595  0.00  0.00     0.037 A 
ATOM     22  C15 Y27 d           7.012   9.983   4.927  0.00  0.00    -0.040 A 
ATOM     23  C16 Y27 d           5.655   9.949   5.257  0.00  0.00     0.004 A 
ATOM     24  H19 Y27 d           7.774  10.236   5.656  0.00  0.00     0.089 H 
ATOM     25  N11 Y27 d           4.701   9.650   4.350  0.00  0.00    -0.273 NA
ATOM     26  H20 Y27 d           5.358  10.171   6.276  0.00  0.00     0.114 H 
ATOM     27  C12 Y27 d           4.993   9.348   3.075  0.00  0.00     0.004 A 
ATOM     28  C13 Y27 d           6.314   9.345   2.653  0.00  0.00    -0.040 A 
ATOM     29  H21 Y27 d           4.198   9.109   2.378  0.00  0.00     0.114 H 
ATOM     30  H22 Y27 d           6.567   9.099   1.628  0.00  0.00     0.089 H 
ENDBRANCH  19  21
ENDBRANCH   1  17
BRANCH   4  31
ATOM     31  C41 Y27 d          15.386   7.945   3.150  0.00  0.00     0.100 C 
ATOM     32  H11 Y27 d          15.741   8.982   3.057  0.00  0.00     0.083 H 
BRANCH  31  33
ATOM     33  C42 Y27 d          15.711   7.438   4.568  0.00  0.00    -0.049 C 
ATOM     34  H12 Y27 d          14.846   6.890   4.969  0.00  0.00     0.030 H 
ATOM     35  H13 Y27 d          15.937   8.294   5.220  0.00  0.00     0.030 H 
ATOM     36  H14 Y27 d          16.583   6.768   4.526  0.00  0.00     0.030 H 
ENDBRANCH  31  33
BRANCH  31  37
ATOM     37  N43 Y27 d          16.116   7.097   2.142  0.00  0.00    -0.075 N 
ATOM     38  H15 Y27 d          16.719   7.682   1.584  0.00  0.00     0.274 HD
ATOM     39  H16 Y27 d          15.448   6.636   1.544  0.00  0.00     0.274 HD
ATOM     40  H17 Y27 d          16.670   6.405   2.622  0.00  0.00     0.274 HD
ENDBRANCH  31  37
ENDBRANCH   4  31
TORSDOF 5
ENDMDL
MODEL 9
REMARK VINA RESULT:      -5.0      2.171      7.673
REMARK  5 active torsions:
REMARK  status: ('A' for Active; 'I' for Inactive)
REMARK    1  A    between atoms: C22_2  and  C31_3 
REMARK       I    between atoms: C22_2  and  N21_12 
REMARK    2  A    between atoms: C34_6  and  C41_9 
REMARK    3  A    between atoms: C41_9  and  C42_10 
REMARK    4  A    between atoms: C41_9  and  N43_11 
REMARK    5  A    between atoms: N21_12  and  C14_13 
ROOT
ATOM      1  C31 Y27 d          10.155   8.658   0.932  0.00  0.00     0.024 C 
ATOM      2  C36 Y27 d          11.141   9.773   1.293  0.00  0.00    -0.053 C 
ATOM      3  C35 Y27 d          12.580   9.272   1.135  0.00  0.00    -0.059 C 
ATOM      4  C34 Y27 d          12.795   8.190   2.199  0.00  0.00    -0.027 C 
ATOM      5  C33 Y27 d          11.860   6.985   1.908  0.00  0.00    -0.059 C 
ATOM      6  C32 Y27 d          10.353   7.411   1.817  0.00  0.00    -0.053 C 
ATOM      7  H1  Y27 d          10.362   8.351  -0.104  0.00  0.00     0.054 H 
ATOM      8  H2  Y27 d          10.976  10.081   2.335  0.00  0.00     0.034 H 
ATOM      9  H3  Y27 d          10.979  10.632   0.626  0.00  0.00     0.034 H 
ATOM     10  H4  Y27 d          13.288  10.099   1.289  0.00  0.00     0.033 H 
ATOM     11  H5  Y27 d          12.725   8.848   0.130  0.00  0.00     0.033 H 
ATOM     12  H6  Y27 d          12.490   8.601   3.172  0.00  0.00     0.043 H 
ATOM     13  H7  Y27 d          11.972   6.247   2.716  0.00  0.00     0.033 H 
ATOM     14  H8  Y27 d          12.157   6.530   0.951  0.00  0.00     0.033 H 
ATOM     15  H9  Y27 d           9.774   6.578   1.392  0.00  0.00     0.034 H 
ATOM     16  H10 Y27 d           9.985   7.634   2.830  0.00  0.00     0.034 H 
ENDROOT
BRANCH   1  17
ATOM     17  C22 Y27 d           8.748   9.199   0.970  0.00  0.00     0.226 C 
ATOM     18  O23 Y27 d           8.088   9.444  -0.043  0.00  0.00    -0.273 OA
ATOM     19  N21 Y27 d           8.241   9.375   2.288  0.00  0.00    -0.327 N 
ATOM     20  H18 Y27 d           8.915   9.395   3.027  0.00  0.00     0.169 HD
BRANCH  19  21
ATOM     21  C14 Y27 d           6.859   9.527   2.673  0.00  0.00     0.037 A 
ATOM     22  C15 Y27 d           5.915   9.248   1.671  0.00  0.00    -0.040 A 
ATOM     23  C16 Y27 d           4.574   9.409   2.029  0.00  0.00     0.004 A 
ATOM     24  H19 Y27 d           6.209   8.926   0.679  0.00  0.00     0.089 H 
ATOM     25  N11 Y27 d           4.201   9.796   3.267  0.00  0.00    -0.273 NA
ATOM     26  H20 Y27 d           3.807   9.218   1.287  0.00  0.00     0.114 H 
ATOM     27  C12 Y27 d           5.093  10.067   4.233  0.00  0.00     0.004 A 
ATOM     28  C13 Y27 d           6.450   9.946   3.972  0.00  0.00    -0.040 A 
ATOM     29  H21 Y27 d           4.753  10.379   5.214  0.00  0.00     0.114 H 
ATOM     30  H22 Y27 d           7.183  10.165   4.739  0.00  0.00     0.089 H 
ENDBRANCH  19  21
ENDBRANCH   1  17
BRANCH   4  31
ATOM     31  C41 Y27 d          14.316   7.863   2.303  0.00  0.00     0.100 C 
ATOM     32  H11 Y27 d          14.531   7.549   3.334  0.00  0.00     0.083 H 
BRANCH  31  33
ATOM     33  C42 Y27 d          14.690   6.713   1.349  0.00  0.00    -0.049 C 
ATOM     34  H12 Y27 d          13.935   5.915   1.423  0.00  0.00     0.030 H 
ATOM     35  H13 Y27 d          15.676   6.313   1.626  0.00  0.00     0.030 H 
ATOM     36  H14 Y27 d          14.723   7.090   0.316  0.00  0.00     0.030 H 
ENDBRANCH  31  33
BRANCH  31  37
ATOM     37  N43 Y27 d          15.165   9.066   1.983  0.00  0.00    -0.075 N 
ATOM     38  H15 Y27 d          15.841   8.822   1.275  0.00  0.00     0.274 HD
ATOM     39  H16 Y27 d          15.645   9.369   2.816  0.00  0.00     0.274 HD
ATOM     40  H17 Y27 d          14.577   9.812   1.644  0.00  0.00     0.274 HD
ENDBRANCH  31  37
ENDBRANCH   4  31
TORSDOF 5
ENDMDL
