MODEL 1
REMARK VINA RESULT:      -8.0      0.000      0.000
REMARK  6 active torsions:
REMARK  status: ('A' for Active; 'I' for Inactive)
REMARK    1  A    between atoms: C10_2  and  C11_3 
REMARK    2  A    between atoms: C4_18  and  N9_17 
REMARK    3  A    between atoms: N9_17  and  C8_24 
REMARK    4  A    between atoms: C1_21  and  C18_22 
REMARK    5  A    between atoms: C8_24  and  C23_23 
REMARK    6  A    between atoms: C23_23  and  O24_25 
ROOT
ATOM      1  C2  PFQ d          13.518  -0.198  10.060  0.00  0.00     0.091 A 
ATOM      2  C10 PFQ d          17.599  -1.965   9.527  0.00  0.00     0.100 A 
ATOM      3  N1  PFQ d          14.685   0.016   9.474  0.00  0.00    -0.217 NA
ATOM      4  C6  PFQ d          15.687  -0.864   9.610  0.00  0.00     0.186 A 
ATOM      5  O6  PFQ d          16.952  -0.846   9.111  0.00  0.00    -0.289 OA
ATOM      6  C5  PFQ d          15.520  -2.020  10.371  0.00  0.00     0.077 A 
ATOM      7  C4  PFQ d          14.272  -2.210  10.974  0.00  0.00     0.140 A 
ATOM      8  N3  PFQ d          13.316  -1.281  10.788  0.00  0.00    -0.224 NA
ATOM      9  C1  PFQ d          16.731  -2.722  10.324  0.00  0.00     0.027 A 
ATOM     10  H1  PFQ d          12.719   0.524   9.941  0.00  0.00     0.146 H 
ENDROOT
BRANCH   2  11
ATOM     11  C11 PFQ d          18.916  -2.158   9.120  0.00  0.00    -0.001 A 
ATOM     12  C12 PFQ d          19.725  -3.208   9.549  0.00  0.00    -0.070 A 
ATOM     13  C13 PFQ d          21.031  -3.296   9.060  0.00  0.00    -0.082 A 
ATOM     14  H2  PFQ d          19.348  -3.944  10.249  0.00  0.00     0.084 H 
ATOM     15  C14 PFQ d          21.514  -2.354   8.150  0.00  0.00    -0.083 A 
ATOM     16  H3  PFQ d          21.675  -4.103   9.390  0.00  0.00     0.083 H 
ATOM     17  C15 PFQ d          20.705  -1.299   7.724  0.00  0.00    -0.082 A 
ATOM     18  H4  PFQ d          22.526  -2.442   7.771  0.00  0.00     0.083 H 
ATOM     19  C16 PFQ d          19.407  -1.232   8.202  0.00  0.00    -0.070 A 
ATOM     20  H5  PFQ d          21.084  -0.552   7.036  0.00  0.00     0.083 H 
ATOM     21  H6  PFQ d          18.756  -0.438   7.854  0.00  0.00     0.084 H 
ENDBRANCH   2  11
BRANCH   9  22
ATOM     22  C18 PFQ d          16.945  -3.947  10.977  0.00  0.00    -0.022 A 
ATOM     23  C19 PFQ d          16.743  -5.145  10.283  0.00  0.00    -0.072 A 
ATOM     24  C20 PFQ d          16.912  -6.391  10.894  0.00  0.00    -0.082 A 
ATOM     25  H7  PFQ d          16.446  -5.106   9.241  0.00  0.00     0.084 H 
ATOM     26  C21 PFQ d          17.289  -6.439  12.237  0.00  0.00    -0.083 A 
ATOM     27  H8  PFQ d          16.752  -7.305  10.334  0.00  0.00     0.083 H 
ATOM     28  C22 PFQ d          17.487  -5.236  12.940  0.00  0.00    -0.082 A 
ATOM     29  H9  PFQ d          17.428  -7.393  12.733  0.00  0.00     0.083 H 
ATOM     30  C17 PFQ d          17.315  -3.993  12.323  0.00  0.00    -0.072 A 
ATOM     31  H10 PFQ d          17.780  -5.274  13.984  0.00  0.00     0.083 H 
ATOM     32  H12 PFQ d          17.466  -3.076  12.882  0.00  0.00     0.084 H 
ENDBRANCH   9  22
BRANCH   7  33
ATOM     33  N9  PFQ d          13.995  -3.277  11.732  0.00  0.00    -0.372 N 
ATOM     34  H11 PFQ d          13.874  -4.199  11.289  0.00  0.00     0.161 HD
BRANCH  33  35
ATOM     35  C8  PFQ d          13.863  -3.144  13.196  0.00  0.00     0.013 C 
ATOM     36  H15 PFQ d          14.365  -2.222  13.524  0.00  0.00     0.067 H 
ATOM     37  H16 PFQ d          14.333  -4.011  13.683  0.00  0.00     0.067 H 
BRANCH  35  38
ATOM     38  C23 PFQ d          12.380  -3.082  13.592  0.00  0.00     0.031 C 
ATOM     39  H13 PFQ d          12.128  -2.057  13.900  0.00  0.00     0.076 H 
ATOM     40  H14 PFQ d          12.197  -3.772  14.429  0.00  0.00     0.076 H 
BRANCH  38  41
ATOM     41  O24 PFQ d          11.560  -3.459  12.478  0.00  0.00    -0.399 OA
ATOM     42  H17 PFQ d          10.960  -2.752  12.274  0.00  0.00     0.209 HD
ENDBRANCH  38  41
ENDBRANCH  35  38
ENDBRANCH  33  35
ENDBRANCH   7  33
TORSDOF 6
ENDMDL
MODEL 2
REMARK VINA RESULT:      -8.0      2.745      5.516
REMARK  6 active torsions:
REMARK  status: ('A' for Active; 'I' for Inactive)
REMARK    1  A    between atoms: C10_2  and  C11_3 
REMARK    2  A    between atoms: C4_18  and  N9_17 
REMARK    3  A    between atoms: N9_17  and  C8_24 
REMARK    4  A    between atoms: C1_21  and  C18_22 
REMARK    5  A    between atoms: C8_24  and  C23_23 
REMARK    6  A    between atoms: C23_23  and  O24_25 
ROOT
ATOM      1  C2  PFQ d          20.554  -1.395   7.968  0.00  0.00     0.091 A 
ATOM      2  C10 PFQ d          16.511  -1.939   9.816  0.00  0.00     0.100 A 
ATOM      3  N1  PFQ d          19.347  -0.857   8.026  0.00  0.00    -0.217 NA
ATOM      4  C6  PFQ d          18.386  -1.419   8.773  0.00  0.00     0.186 A 
ATOM      5  O6  PFQ d          17.093  -1.049   8.973  0.00  0.00    -0.289 OA
ATOM      6  C5  PFQ d          18.639  -2.581   9.501  0.00  0.00     0.077 A 
ATOM      7  C4  PFQ d          19.928  -3.118   9.414  0.00  0.00     0.140 A 
ATOM      8  N3  PFQ d          20.838  -2.494   8.644  0.00  0.00    -0.224 NA
ATOM      9  C1  PFQ d          17.452  -2.917  10.163  0.00  0.00     0.027 A 
ATOM     10  H1  PFQ d          21.320  -0.929   7.359  0.00  0.00     0.146 H 
ENDROOT
BRANCH   2  11
ATOM     11  C11 PFQ d          15.179  -1.744  10.168  0.00  0.00    -0.001 A 
ATOM     12  C12 PFQ d          14.397  -2.684  10.837  0.00  0.00    -0.070 A 
ATOM     13  C13 PFQ d          13.072  -2.365  11.142  0.00  0.00    -0.082 A 
ATOM     14  H2  PFQ d          14.811  -3.647  11.116  0.00  0.00     0.084 H 
ATOM     15  C14 PFQ d          12.542  -1.122  10.792  0.00  0.00    -0.083 A 
ATOM     16  H3  PFQ d          12.449  -3.089  11.655  0.00  0.00     0.083 H 
ATOM     17  C15 PFQ d          13.324  -0.182  10.118  0.00  0.00    -0.082 A 
ATOM     18  H4  PFQ d          11.515  -0.885  11.045  0.00  0.00     0.083 H 
ATOM     19  C16 PFQ d          14.641  -0.503   9.836  0.00  0.00    -0.070 A 
ATOM     20  H5  PFQ d          12.909   0.776   9.823  0.00  0.00     0.083 H 
ATOM     21  H6  PFQ d          15.270   0.230   9.344  0.00  0.00     0.084 H 
ENDBRANCH   2  11
BRANCH   9  22
ATOM     22  C18 PFQ d          17.321  -4.036  11.002  0.00  0.00    -0.022 A 
ATOM     23  C19 PFQ d          16.960  -5.273  10.454  0.00  0.00    -0.072 A 
ATOM     24  C20 PFQ d          16.786  -6.410  11.248  0.00  0.00    -0.082 A 
ATOM     25  H7  PFQ d          16.812  -5.351   9.383  0.00  0.00     0.084 H 
ATOM     26  C21 PFQ d          16.972  -6.306  12.628  0.00  0.00    -0.083 A 
ATOM     27  H8  PFQ d          16.510  -7.357  10.799  0.00  0.00     0.083 H 
ATOM     28  C22 PFQ d          17.328  -5.063  13.183  0.00  0.00    -0.082 A 
ATOM     29  H9  PFQ d          16.844  -7.174  13.264  0.00  0.00     0.083 H 
ATOM     30  C17 PFQ d          17.499  -3.929  12.383  0.00  0.00    -0.072 A 
ATOM     31  H10 PFQ d          17.471  -4.983  14.255  0.00  0.00     0.083 H 
ATOM     32  H12 PFQ d          17.767  -2.977  12.829  0.00  0.00     0.084 H 
ENDBRANCH   9  22
BRANCH   7  33
ATOM     33  N9  PFQ d          20.287  -4.232  10.062  0.00  0.00    -0.372 N 
ATOM     34  H11 PFQ d          19.961  -5.148   9.722  0.00  0.00     0.161 HD
BRANCH  33  35
ATOM     35  C8  PFQ d          21.146  -4.159  11.260  0.00  0.00     0.013 C 
ATOM     36  H15 PFQ d          20.820  -3.319  11.891  0.00  0.00     0.067 H 
ATOM     37  H16 PFQ d          22.190  -4.000  10.949  0.00  0.00     0.067 H 
BRANCH  35  38
ATOM     38  C23 PFQ d          21.050  -5.464  12.064  0.00  0.00     0.031 C 
ATOM     39  H13 PFQ d          20.555  -5.264  13.026  0.00  0.00     0.076 H 
ATOM     40  H14 PFQ d          22.061  -5.856  12.246  0.00  0.00     0.076 H 
BRANCH  38  41
ATOM     41  O24 PFQ d          20.289  -6.434  11.331  0.00  0.00    -0.399 OA
ATOM     42  H17 PFQ d          19.364  -6.231  11.404  0.00  0.00     0.209 HD
ENDBRANCH  38  41
ENDBRANCH  35  38
ENDBRANCH  33  35
ENDBRANCH   7  33
TORSDOF 6
ENDMDL
MODEL 3
REMARK VINA RESULT:      -7.9      1.334      2.068
REMARK  6 active torsions:
REMARK  status: ('A' for Active; 'I' for Inactive)
REMARK    1  A    between atoms: C10_2  and  C11_3 
REMARK    2  A    between atoms: C4_18  and  N9_17 
REMARK    3  A    between atoms: N9_17  and  C8_24 
REMARK    4  A    between atoms: C1_21  and  C18_22 
REMARK    5  A    between atoms: C8_24  and  C23_23 
REMARK    6  A    between atoms: C23_23  and  O24_25 
ROOT
ATOM      1  C2  PFQ d          15.276   0.274   9.171  0.00  0.00     0.091 A 
ATOM      2  C10 PFQ d          18.812  -2.371   9.919  0.00  0.00     0.100 A 
ATOM      3  N1  PFQ d          16.582   0.191   8.978  0.00  0.00    -0.217 NA
ATOM      4  C6  PFQ d          17.269  -0.877   9.412  0.00  0.00     0.186 A 
ATOM      5  O6  PFQ d          18.594  -1.166   9.331  0.00  0.00    -0.289 OA
ATOM      6  C5  PFQ d          16.619  -1.917  10.075  0.00  0.00     0.077 A 
ATOM      7  C4  PFQ d          15.238  -1.792  10.258  0.00  0.00     0.140 A 
ATOM      8  N3  PFQ d          14.622  -0.690   9.792  0.00  0.00    -0.224 NA
ATOM      9  C1  PFQ d          17.595  -2.867  10.401  0.00  0.00     0.027 A 
ATOM     10  H1  PFQ d          14.737   1.144   8.815  0.00  0.00     0.146 H 
ENDROOT
BRANCH   2  11
ATOM     11  C11 PFQ d          20.111  -2.871   9.940  0.00  0.00    -0.001 A 
ATOM     12  C12 PFQ d          20.808  -3.295   8.810  0.00  0.00    -0.070 A 
ATOM     13  C13 PFQ d          22.112  -3.771   8.962  0.00  0.00    -0.082 A 
ATOM     14  H2  PFQ d          20.346  -3.254   7.831  0.00  0.00     0.084 H 
ATOM     15  C14 PFQ d          22.711  -3.813  10.222  0.00  0.00    -0.083 A 
ATOM     16  H3  PFQ d          22.665  -4.110   8.093  0.00  0.00     0.083 H 
ATOM     17  C15 PFQ d          22.011  -3.393  11.354  0.00  0.00    -0.082 A 
ATOM     18  H4  PFQ d          23.728  -4.175  10.322  0.00  0.00     0.083 H 
ATOM     19  C16 PFQ d          20.725  -2.907  11.190  0.00  0.00    -0.070 A 
ATOM     20  H5  PFQ d          22.464  -3.446  12.338  0.00  0.00     0.083 H 
ATOM     21  H6  PFQ d          20.182  -2.546  12.055  0.00  0.00     0.084 H 
ENDBRANCH   2  11
BRANCH   9  22
ATOM     22  C18 PFQ d          17.316  -4.066  11.078  0.00  0.00    -0.022 A 
ATOM     23  C19 PFQ d          17.366  -4.099  12.477  0.00  0.00    -0.072 A 
ATOM     24  C20 PFQ d          17.127  -5.272  13.198  0.00  0.00    -0.082 A 
ATOM     25  H7  PFQ d          17.596  -3.186  13.016  0.00  0.00     0.084 H 
ATOM     26  C21 PFQ d          16.836  -6.446  12.501  0.00  0.00    -0.083 A 
ATOM     27  H8  PFQ d          17.169  -5.270  14.281  0.00  0.00     0.083 H 
ATOM     28  C22 PFQ d          16.792  -6.419  11.094  0.00  0.00    -0.082 A 
ATOM     29  H9  PFQ d          16.646  -7.368  13.037  0.00  0.00     0.083 H 
ATOM     30  C17 PFQ d          17.033  -5.241  10.379  0.00  0.00    -0.072 A 
ATOM     31  H10 PFQ d          16.566  -7.331  10.553  0.00  0.00     0.083 H 
ATOM     32  H12 PFQ d          17.000  -5.241   9.295  0.00  0.00     0.084 H 
ENDBRANCH   9  22
BRANCH   7  33
ATOM     33  N9  PFQ d          14.509  -2.722  10.884  0.00  0.00    -0.372 N 
ATOM     34  H11 PFQ d          14.282  -3.603  10.401  0.00  0.00     0.161 HD
BRANCH  33  35
ATOM     35  C8  PFQ d          14.029  -2.498  12.262  0.00  0.00     0.013 C 
ATOM     36  H15 PFQ d          14.644  -1.722  12.740  0.00  0.00     0.067 H 
ATOM     37  H16 PFQ d          14.111  -3.436  12.832  0.00  0.00     0.067 H 
BRANCH  35  38
ATOM     38  C23 PFQ d          12.562  -2.043  12.245  0.00  0.00     0.031 C 
ATOM     39  H13 PFQ d          12.077  -2.341  13.186  0.00  0.00     0.076 H 
ATOM     40  H14 PFQ d          12.042  -2.515  11.399  0.00  0.00     0.076 H 
BRANCH  38  41
ATOM     41  O24 PFQ d          12.494  -0.617  12.108  0.00  0.00    -0.399 OA
ATOM     42  H17 PFQ d          11.845  -0.394  11.451  0.00  0.00     0.209 HD
ENDBRANCH  38  41
ENDBRANCH  35  38
ENDBRANCH  33  35
ENDBRANCH   7  33
TORSDOF 6
ENDMDL
MODEL 4
REMARK VINA RESULT:      -7.6      2.240      5.736
REMARK  6 active torsions:
REMARK  status: ('A' for Active; 'I' for Inactive)
REMARK    1  A    between atoms: C10_2  and  C11_3 
REMARK    2  A    between atoms: C4_18  and  N9_17 
REMARK    3  A    between atoms: N9_17  and  C8_24 
REMARK    4  A    between atoms: C1_21  and  C18_22 
REMARK    5  A    between atoms: C8_24  and  C23_23 
REMARK    6  A    between atoms: C23_23  and  O24_25 
ROOT
ATOM      1  C2  PFQ d          18.216  -0.489   8.288  0.00  0.00     0.091 A 
ATOM      2  C10 PFQ d          14.912  -2.128  10.828  0.00  0.00     0.100 A 
ATOM      3  N1  PFQ d          16.972  -0.251   8.672  0.00  0.00    -0.217 NA
ATOM      4  C6  PFQ d          16.346  -1.090   9.510  0.00  0.00     0.186 A 
ATOM      5  O6  PFQ d          15.088  -1.048  10.024  0.00  0.00    -0.289 OA
ATOM      6  C5  PFQ d          16.991  -2.228   9.990  0.00  0.00     0.077 A 
ATOM      7  C4  PFQ d          18.306  -2.443   9.561  0.00  0.00     0.140 A 
ATOM      8  N3  PFQ d          18.865  -1.554   8.721  0.00  0.00    -0.224 NA
ATOM      9  C1  PFQ d          16.085  -2.892  10.826  0.00  0.00     0.027 A 
ATOM     10  H1  PFQ d          18.707   0.199   7.610  0.00  0.00     0.146 H 
ENDROOT
BRANCH   2  11
ATOM     11  C11 PFQ d          13.687  -2.280  11.472  0.00  0.00    -0.001 A 
ATOM     12  C12 PFQ d          12.963  -3.471  11.513  0.00  0.00    -0.070 A 
ATOM     13  C13 PFQ d          11.748  -3.497  12.200  0.00  0.00    -0.082 A 
ATOM     14  H2  PFQ d          13.338  -4.360  11.020  0.00  0.00     0.084 H 
ATOM     15  C14 PFQ d          11.270  -2.355  12.843  0.00  0.00    -0.083 A 
ATOM     16  H3  PFQ d          11.170  -4.414  12.234  0.00  0.00     0.083 H 
ATOM     17  C15 PFQ d          11.992  -1.161  12.799  0.00  0.00    -0.082 A 
ATOM     18  H4  PFQ d          10.330  -2.394  13.382  0.00  0.00     0.083 H 
ATOM     19  C16 PFQ d          13.204  -1.151  12.129  0.00  0.00    -0.070 A 
ATOM     20  H5  PFQ d          11.614  -0.265  13.277  0.00  0.00     0.083 H 
ATOM     21  H6  PFQ d          13.792  -0.241  12.115  0.00  0.00     0.084 H 
ENDBRANCH   2  11
BRANCH   9  22
ATOM     22  C18 PFQ d          16.382  -4.089  11.499  0.00  0.00    -0.022 A 
ATOM     23  C19 PFQ d          16.608  -4.068  12.880  0.00  0.00    -0.072 A 
ATOM     24  C20 PFQ d          16.937  -5.225  13.592  0.00  0.00    -0.082 A 
ATOM     25  H7  PFQ d          16.526  -3.127  13.413  0.00  0.00     0.084 H 
ATOM     26  C21 PFQ d          17.047  -6.434  12.903  0.00  0.00    -0.083 A 
ATOM     27  H8  PFQ d          17.104  -5.183  14.662  0.00  0.00     0.083 H 
ATOM     28  C22 PFQ d          16.827  -6.458  11.514  0.00  0.00    -0.082 A 
ATOM     29  H9  PFQ d          17.299  -7.346  13.434  0.00  0.00     0.083 H 
ATOM     30  C17 PFQ d          16.500  -5.296  10.807  0.00  0.00    -0.072 A 
ATOM     31  H10 PFQ d          16.914  -7.398  10.979  0.00  0.00     0.083 H 
ATOM     32  H12 PFQ d          16.340  -5.332   9.735  0.00  0.00     0.084 H 
ENDBRANCH   9  22
BRANCH   7  33
ATOM     33  N9  PFQ d          19.024  -3.503   9.950  0.00  0.00    -0.372 N 
ATOM     34  H11 PFQ d          18.552  -4.400  10.131  0.00  0.00     0.161 HD
BRANCH  33  35
ATOM     35  C8  PFQ d          20.486  -3.397  10.122  0.00  0.00     0.013 C 
ATOM     36  H15 PFQ d          20.817  -2.395   9.809  0.00  0.00     0.067 H 
ATOM     37  H16 PFQ d          20.980  -4.158   9.499  0.00  0.00     0.067 H 
BRANCH  35  38
ATOM     38  C23 PFQ d          20.866  -3.621  11.593  0.00  0.00     0.031 C 
ATOM     39  H13 PFQ d          20.616  -2.721  12.175  0.00  0.00     0.076 H 
ATOM     40  H14 PFQ d          21.946  -3.815  11.665  0.00  0.00     0.076 H 
BRANCH  38  41
ATOM     41  O24 PFQ d          20.145  -4.743  12.119  0.00  0.00    -0.399 OA
ATOM     42  H17 PFQ d          20.392  -4.880  13.026  0.00  0.00     0.209 HD
ENDBRANCH  38  41
ENDBRANCH  35  38
ENDBRANCH  33  35
ENDBRANCH   7  33
TORSDOF 6
ENDMDL
MODEL 5
REMARK VINA RESULT:      -7.2      2.732      6.831
REMARK  6 active torsions:
REMARK  status: ('A' for Active; 'I' for Inactive)
REMARK    1  A    between atoms: C10_2  and  C11_3 
REMARK    2  A    between atoms: C4_18  and  N9_17 
REMARK    3  A    between atoms: N9_17  and  C8_24 
REMARK    4  A    between atoms: C1_21  and  C18_22 
REMARK    5  A    between atoms: C8_24  and  C23_23 
REMARK    6  A    between atoms: C23_23  and  O24_25 
ROOT
ATOM      1  C2  PFQ d          17.952  -6.834  12.889  0.00  0.00     0.091 A 
ATOM      2  C10 PFQ d          15.067  -3.453  12.338  0.00  0.00     0.100 A 
ATOM      3  N1  PFQ d          16.793  -6.363  13.322  0.00  0.00    -0.217 NA
ATOM      4  C6  PFQ d          16.290  -5.226  12.819  0.00  0.00     0.186 A 
ATOM      5  O6  PFQ d          15.140  -4.565  13.114  0.00  0.00    -0.289 OA
ATOM      6  C5  PFQ d          16.978  -4.518  11.835  0.00  0.00     0.077 A 
ATOM      7  C4  PFQ d          18.199  -5.049  11.404  0.00  0.00     0.140 A 
ATOM      8  N3  PFQ d          18.635  -6.196  11.956  0.00  0.00    -0.224 NA
ATOM      9  C1  PFQ d          16.207  -3.391  11.527  0.00  0.00     0.027 A 
ATOM     10  H1  PFQ d          18.345  -7.754  13.306  0.00  0.00     0.146 H 
ENDROOT
BRANCH   2  11
ATOM     11  C11 PFQ d          13.955  -2.626  12.469  0.00  0.00    -0.001 A 
ATOM     12  C12 PFQ d          13.774  -1.436  11.766  0.00  0.00    -0.070 A 
ATOM     13  C13 PFQ d          12.608  -0.698  11.980  0.00  0.00    -0.082 A 
ATOM     14  H2  PFQ d          14.525  -1.090  11.065  0.00  0.00     0.084 H 
ATOM     15  C14 PFQ d          11.636  -1.149  12.875  0.00  0.00    -0.083 A 
ATOM     16  H3  PFQ d          12.456   0.233  11.447  0.00  0.00     0.083 H 
ATOM     17  C15 PFQ d          11.819  -2.338  13.582  0.00  0.00    -0.082 A 
ATOM     18  H4  PFQ d          10.731  -0.570  13.022  0.00  0.00     0.083 H 
ATOM     19  C16 PFQ d          12.972  -3.070  13.349  0.00  0.00    -0.070 A 
ATOM     20  H5  PFQ d          11.078  -2.680  14.296  0.00  0.00     0.083 H 
ATOM     21  H6  PFQ d          13.112  -4.013  13.865  0.00  0.00     0.084 H 
ENDBRANCH   2  11
BRANCH   9  22
ATOM     22  C18 PFQ d          16.580  -2.433  10.569  0.00  0.00    -0.022 A 
ATOM     23  C19 PFQ d          16.023  -2.485   9.286  0.00  0.00    -0.072 A 
ATOM     24  C20 PFQ d          16.382  -1.576   8.287  0.00  0.00    -0.082 A 
ATOM     25  H7  PFQ d          15.292  -3.254   9.060  0.00  0.00     0.084 H 
ATOM     26  C21 PFQ d          17.327  -0.590   8.579  0.00  0.00    -0.083 A 
ATOM     27  H8  PFQ d          15.935  -1.635   7.302  0.00  0.00     0.083 H 
ATOM     28  C22 PFQ d          17.894  -0.539   9.866  0.00  0.00    -0.082 A 
ATOM     29  H9  PFQ d          17.622   0.128   7.821  0.00  0.00     0.083 H 
ATOM     30  C17 PFQ d          17.531  -1.453  10.860  0.00  0.00    -0.072 A 
ATOM     31  H10 PFQ d          18.629   0.227  10.091  0.00  0.00     0.083 H 
ATOM     32  H12 PFQ d          17.983  -1.402  11.844  0.00  0.00     0.084 H 
ENDBRANCH   9  22
BRANCH   7  33
ATOM     33  N9  PFQ d          18.949  -4.456  10.470  0.00  0.00    -0.372 N 
ATOM     34  H11 PFQ d          18.695  -4.548   9.476  0.00  0.00     0.161 HD
BRANCH  33  35
ATOM     35  C8  PFQ d          20.140  -3.671  10.850  0.00  0.00     0.013 C 
ATOM     36  H15 PFQ d          20.870  -4.332  11.341  0.00  0.00     0.067 H 
ATOM     37  H16 PFQ d          19.841  -2.873  11.546  0.00  0.00     0.067 H 
BRANCH  35  38
ATOM     38  C23 PFQ d          20.783  -3.043   9.605  0.00  0.00     0.031 C 
ATOM     39  H13 PFQ d          21.757  -2.610   9.876  0.00  0.00     0.076 H 
ATOM     40  H14 PFQ d          20.126  -2.252   9.215  0.00  0.00     0.076 H 
BRANCH  38  41
ATOM     41  O24 PFQ d          20.972  -4.043   8.595  0.00  0.00    -0.399 OA
ATOM     42  H17 PFQ d          20.434  -4.799   8.796  0.00  0.00     0.209 HD
ENDBRANCH  38  41
ENDBRANCH  35  38
ENDBRANCH  33  35
ENDBRANCH   7  33
TORSDOF 6
ENDMDL
MODEL 6
REMARK VINA RESULT:      -6.9      2.686      6.534
REMARK  6 active torsions:
REMARK  status: ('A' for Active; 'I' for Inactive)
REMARK    1  A    between atoms: C10_2  and  C11_3 
REMARK    2  A    between atoms: C4_18  and  N9_17 
REMARK    3  A    between atoms: N9_17  and  C8_24 
REMARK    4  A    between atoms: C1_21  and  C18_22 
REMARK    5  A    between atoms: C8_24  and  C23_23 
REMARK    6  A    between atoms: C23_23  and  O24_25 
ROOT
ATOM      1  C2  PFQ d          16.948  -6.834  13.318  0.00  0.00     0.091 A 
ATOM      2  C10 PFQ d          14.895  -3.084  11.983  0.00  0.00     0.100 A 
ATOM      3  N1  PFQ d          15.817  -6.157  13.441  0.00  0.00    -0.217 NA
ATOM      4  C6  PFQ d          15.648  -4.992  12.799  0.00  0.00     0.186 A 
ATOM      5  O6  PFQ d          14.591  -4.138  12.784  0.00  0.00    -0.289 OA
ATOM      6  C5  PFQ d          16.659  -4.471  11.992  0.00  0.00     0.077 A 
ATOM      7  C4  PFQ d          17.838  -5.217  11.888  0.00  0.00     0.140 A 
ATOM      8  N3  PFQ d          17.930  -6.378  12.562  0.00  0.00    -0.224 NA
ATOM      9  C1  PFQ d          16.187  -3.259  11.474  0.00  0.00     0.027 A 
ATOM     10  H1  PFQ d          17.069  -7.773  13.844  0.00  0.00     0.146 H 
ENDROOT
BRANCH   2  11
ATOM     11  C11 PFQ d          13.941  -2.084  11.815  0.00  0.00    -0.001 A 
ATOM     12  C12 PFQ d          13.689  -1.434  10.608  0.00  0.00    -0.070 A 
ATOM     13  C13 PFQ d          12.698  -0.451  10.566  0.00  0.00    -0.082 A 
ATOM     14  H2  PFQ d          14.252  -1.687   9.718  0.00  0.00     0.084 H 
ATOM     15  C14 PFQ d          11.965  -0.132  11.710  0.00  0.00    -0.083 A 
ATOM     16  H3  PFQ d          12.495   0.069   9.636  0.00  0.00     0.083 H 
ATOM     17  C15 PFQ d          12.219  -0.780  12.920  0.00  0.00    -0.082 A 
ATOM     18  H4  PFQ d          11.190   0.625  11.659  0.00  0.00     0.083 H 
ATOM     19  C16 PFQ d          13.193  -1.765  12.946  0.00  0.00    -0.070 A 
ATOM     20  H5  PFQ d          11.669  -0.519  13.817  0.00  0.00     0.083 H 
ATOM     21  H6  PFQ d          13.378  -2.301  13.869  0.00  0.00     0.084 H 
ENDBRANCH   2  11
BRANCH   9  22
ATOM     22  C18 PFQ d          16.933  -2.441  10.609  0.00  0.00    -0.022 A 
ATOM     23  C19 PFQ d          16.569  -2.345   9.261  0.00  0.00    -0.072 A 
ATOM     24  C20 PFQ d          17.295  -1.570   8.353  0.00  0.00    -0.082 A 
ATOM     25  H7  PFQ d          15.699  -2.889   8.911  0.00  0.00     0.084 H 
ATOM     26  C21 PFQ d          18.419  -0.875   8.804  0.00  0.00    -0.083 A 
ATOM     27  H8  PFQ d          16.991  -1.510   7.314  0.00  0.00     0.083 H 
ATOM     28  C22 PFQ d          18.792  -0.974  10.158  0.00  0.00    -0.082 A 
ATOM     29  H9  PFQ d          18.998  -0.266   8.119  0.00  0.00     0.083 H 
ATOM     30  C17 PFQ d          18.061  -1.753  11.061  0.00  0.00    -0.072 A 
ATOM     31  H10 PFQ d          19.665  -0.434  10.508  0.00  0.00     0.083 H 
ATOM     32  H12 PFQ d          18.367  -1.822  12.099  0.00  0.00     0.084 H 
ENDBRANCH   9  22
BRANCH   7  33
ATOM     33  N9  PFQ d          18.879  -4.816  11.149  0.00  0.00    -0.372 N 
ATOM     34  H11 PFQ d          18.766  -4.695  10.133  0.00  0.00     0.161 HD
BRANCH  33  35
ATOM     35  C8  PFQ d          20.187  -4.546  11.778  0.00  0.00     0.013 C 
ATOM     36  H15 PFQ d          20.608  -5.488  12.161  0.00  0.00     0.067 H 
ATOM     37  H16 PFQ d          20.050  -3.840  12.611  0.00  0.00     0.067 H 
BRANCH  35  38
ATOM     38  C23 PFQ d          21.155  -3.938  10.752  0.00  0.00     0.031 C 
ATOM     39  H13 PFQ d          22.102  -4.496  10.770  0.00  0.00     0.076 H 
ATOM     40  H14 PFQ d          21.344  -2.886  11.008  0.00  0.00     0.076 H 
BRANCH  38  41
ATOM     41  O24 PFQ d          20.584  -4.012   9.439  0.00  0.00    -0.399 OA
ATOM     42  H17 PFQ d          20.174  -3.182   9.226  0.00  0.00     0.209 HD
ENDBRANCH  38  41
ENDBRANCH  35  38
ENDBRANCH  33  35
ENDBRANCH   7  33
TORSDOF 6
ENDMDL
MODEL 7
REMARK VINA RESULT:      -6.8      3.242      7.131
REMARK  6 active torsions:
REMARK  status: ('A' for Active; 'I' for Inactive)
REMARK    1  A    between atoms: C10_2  and  C11_3 
REMARK    2  A    between atoms: C4_18  and  N9_17 
REMARK    3  A    between atoms: N9_17  and  C8_24 
REMARK    4  A    between atoms: C1_21  and  C18_22 
REMARK    5  A    between atoms: C8_24  and  C23_23 
REMARK    6  A    between atoms: C23_23  and  O24_25 
ROOT
ATOM      1  C2  PFQ d          21.744  -5.152  11.441  0.00  0.00     0.091 A 
ATOM      2  C10 PFQ d          17.424  -4.185  12.117  0.00  0.00     0.100 A 
ATOM      3  N1  PFQ d          20.700  -5.481  12.184  0.00  0.00    -0.217 NA
ATOM      4  C6  PFQ d          19.519  -4.870  12.009  0.00  0.00     0.186 A 
ATOM      5  O6  PFQ d          18.334  -5.040  12.651  0.00  0.00    -0.289 OA
ATOM      6  C5  PFQ d          19.370  -3.876  11.043  0.00  0.00     0.077 A 
ATOM      7  C4  PFQ d          20.497  -3.557  10.277  0.00  0.00     0.140 A 
ATOM      8  N3  PFQ d          21.646  -4.218  10.513  0.00  0.00    -0.224 NA
ATOM      9  C1  PFQ d          18.042  -3.436  11.109  0.00  0.00     0.027 A 
ATOM     10  H1  PFQ d          22.691  -5.654  11.596  0.00  0.00     0.146 H 
ENDROOT
BRANCH   2  11
ATOM     11  C11 PFQ d          16.127  -4.197  12.624  0.00  0.00    -0.001 A 
ATOM     12  C12 PFQ d          15.413  -3.056  12.983  0.00  0.00    -0.070 A 
ATOM     13  C13 PFQ d          14.113  -3.201  13.472  0.00  0.00    -0.082 A 
ATOM     14  H2  PFQ d          15.858  -2.073  12.883  0.00  0.00     0.084 H 
ATOM     15  C14 PFQ d          13.535  -4.465  13.591  0.00  0.00    -0.083 A 
ATOM     16  H3  PFQ d          13.547  -2.322  13.762  0.00  0.00     0.083 H 
ATOM     17  C15 PFQ d          14.252  -5.609  13.236  0.00  0.00    -0.082 A 
ATOM     18  H4  PFQ d          12.521  -4.561  13.963  0.00  0.00     0.083 H 
ATOM     19  C16 PFQ d          15.534  -5.453  12.736  0.00  0.00    -0.070 A 
ATOM     20  H5  PFQ d          13.816  -6.596  13.350  0.00  0.00     0.083 H 
ATOM     21  H6  PFQ d          16.090  -6.329  12.424  0.00  0.00     0.084 H 
ENDBRANCH   2  11
BRANCH   9  22
ATOM     22  C18 PFQ d          17.514  -2.433  10.279  0.00  0.00    -0.022 A 
ATOM     23  C19 PFQ d          17.971  -1.117  10.407  0.00  0.00    -0.072 A 
ATOM     24  C20 PFQ d          17.456  -0.077   9.628  0.00  0.00    -0.082 A 
ATOM     25  H7  PFQ d          18.747  -0.897  11.132  0.00  0.00     0.084 H 
ATOM     26  C21 PFQ d          16.454  -0.361   8.698  0.00  0.00    -0.083 A 
ATOM     27  H8  PFQ d          17.829   0.934   9.743  0.00  0.00     0.083 H 
ATOM     28  C22 PFQ d          15.987  -1.682   8.571  0.00  0.00    -0.082 A 
ATOM     29  H9  PFQ d          16.040   0.428   8.081  0.00  0.00     0.083 H 
ATOM     30  C17 PFQ d          16.505  -2.718   9.355  0.00  0.00    -0.072 A 
ATOM     31  H10 PFQ d          15.208  -1.902   7.850  0.00  0.00     0.083 H 
ATOM     32  H12 PFQ d          16.129  -3.729   9.248  0.00  0.00     0.084 H 
ENDBRANCH   9  22
BRANCH   7  33
ATOM     33  N9  PFQ d          20.477  -2.618   9.326  0.00  0.00    -0.372 N 
ATOM     34  H11 PFQ d          19.999  -1.723   9.502  0.00  0.00     0.161 HD
BRANCH  33  35
ATOM     35  C8  PFQ d          21.133  -2.853   8.024  0.00  0.00     0.013 C 
ATOM     36  H15 PFQ d          20.537  -3.569   7.440  0.00  0.00     0.067 H 
ATOM     37  H16 PFQ d          22.139  -3.266   8.195  0.00  0.00     0.067 H 
BRANCH  35  38
ATOM     38  C23 PFQ d          21.252  -1.535   7.243  0.00  0.00     0.031 C 
ATOM     39  H13 PFQ d          20.731  -1.635   6.280  0.00  0.00     0.076 H 
ATOM     40  H14 PFQ d          22.314  -1.311   7.065  0.00  0.00     0.076 H 
BRANCH  38  41
ATOM     41  O24 PFQ d          20.660  -0.467   7.994  0.00  0.00    -0.399 OA
ATOM     42  H17 PFQ d          19.731  -0.422   7.801  0.00  0.00     0.209 HD
ENDBRANCH  38  41
ENDBRANCH  35  38
ENDBRANCH  33  35
ENDBRANCH   7  33
TORSDOF 6
ENDMDL
MODEL 8
REMARK VINA RESULT:      -6.6      2.078      4.119
REMARK  6 active torsions:
REMARK  status: ('A' for Active; 'I' for Inactive)
REMARK    1  A    between atoms: C10_2  and  C11_3 
REMARK    2  A    between atoms: C4_18  and  N9_17 
REMARK    3  A    between atoms: N9_17  and  C8_24 
REMARK    4  A    between atoms: C1_21  and  C18_22 
REMARK    5  A    between atoms: C8_24  and  C23_23 
REMARK    6  A    between atoms: C23_23  and  O24_25 
ROOT
ATOM      1  C2  PFQ d          15.632  -6.114  13.592  0.00  0.00     0.091 A 
ATOM      2  C10 PFQ d          18.923  -4.185  11.247  0.00  0.00     0.100 A 
ATOM      3  N1  PFQ d          16.927  -6.204  13.333  0.00  0.00    -0.217 NA
ATOM      4  C6  PFQ d          17.517  -5.332  12.504  0.00  0.00     0.186 A 
ATOM      5  O6  PFQ d          18.810  -5.239  12.095  0.00  0.00    -0.289 OA
ATOM      6  C5  PFQ d          16.779  -4.316  11.898  0.00  0.00     0.077 A 
ATOM      7  C4  PFQ d          15.414  -4.254  12.199  0.00  0.00     0.140 A 
ATOM      8  N3  PFQ d          14.897  -5.166  13.042  0.00  0.00    -0.224 NA
ATOM      9  C1  PFQ d          17.666  -3.586  11.098  0.00  0.00     0.027 A 
ATOM     10  H1  PFQ d          15.170  -6.828  14.264  0.00  0.00     0.146 H 
ENDROOT
BRANCH   2  11
ATOM     11  C11 PFQ d          20.176  -3.898  10.711  0.00  0.00    -0.001 A 
ATOM     12  C12 PFQ d          20.391  -3.464   9.405  0.00  0.00    -0.070 A 
ATOM     13  C13 PFQ d          21.697  -3.201   8.988  0.00  0.00    -0.082 A 
ATOM     14  H2  PFQ d          19.558  -3.332   8.724  0.00  0.00     0.084 H 
ATOM     15  C14 PFQ d          22.769  -3.360   9.868  0.00  0.00    -0.083 A 
ATOM     16  H3  PFQ d          21.881  -2.869   7.972  0.00  0.00     0.083 H 
ATOM     17  C15 PFQ d          22.555  -3.799  11.175  0.00  0.00    -0.082 A 
ATOM     18  H4  PFQ d          23.777  -3.141   9.533  0.00  0.00     0.083 H 
ATOM     19  C16 PFQ d          21.253  -4.041  11.582  0.00  0.00    -0.070 A 
ATOM     20  H5  PFQ d          23.387  -3.947  11.855  0.00  0.00     0.083 H 
ATOM     21  H6  PFQ d          21.068  -4.349  12.605  0.00  0.00     0.084 H 
ENDBRANCH   2  11
BRANCH   9  22
ATOM     22  C18 PFQ d          17.284  -2.474  10.328  0.00  0.00    -0.022 A 
ATOM     23  C19 PFQ d          16.455  -2.655   9.215  0.00  0.00    -0.072 A 
ATOM     24  C20 PFQ d          16.071  -1.588   8.399  0.00  0.00    -0.082 A 
ATOM     25  H7  PFQ d          16.101  -3.652   8.980  0.00  0.00     0.084 H 
ATOM     26  C21 PFQ d          16.532  -0.305   8.702  0.00  0.00    -0.083 A 
ATOM     27  H8  PFQ d          15.425  -1.753   7.545  0.00  0.00     0.083 H 
ATOM     28  C22 PFQ d          17.372  -0.120   9.816  0.00  0.00    -0.082 A 
ATOM     29  H9  PFQ d          16.247   0.539   8.084  0.00  0.00     0.083 H 
ATOM     30  C17 PFQ d          17.754  -1.193  10.627  0.00  0.00    -0.072 A 
ATOM     31  H10 PFQ d          17.731   0.876  10.050  0.00  0.00     0.083 H 
ATOM     32  H12 PFQ d          18.406  -1.033  11.478  0.00  0.00     0.084 H 
ENDBRANCH   9  22
BRANCH   7  33
ATOM     33  N9  PFQ d          14.605  -3.328  11.674  0.00  0.00    -0.372 N 
ATOM     34  H11 PFQ d          14.588  -3.183  10.654  0.00  0.00     0.161 HD
BRANCH  33  35
ATOM     35  C8  PFQ d          13.734  -2.512  12.544  0.00  0.00     0.013 C 
ATOM     36  H15 PFQ d          13.941  -1.446  12.368  0.00  0.00     0.067 H 
ATOM     37  H16 PFQ d          13.941  -2.757  13.596  0.00  0.00     0.067 H 
BRANCH  35  38
ATOM     38  C23 PFQ d          12.257  -2.800  12.237  0.00  0.00     0.031 C 
ATOM     39  H13 PFQ d          12.033  -2.494  11.205  0.00  0.00     0.076 H 
ATOM     40  H14 PFQ d          11.622  -2.232  12.934  0.00  0.00     0.076 H 
BRANCH  38  41
ATOM     41  O24 PFQ d          11.990  -4.200  12.386  0.00  0.00    -0.399 OA
ATOM     42  H17 PFQ d          12.695  -4.699  11.990  0.00  0.00     0.209 HD
ENDBRANCH  38  41
ENDBRANCH  35  38
ENDBRANCH  33  35
ENDBRANCH   7  33
TORSDOF 6
ENDMDL
MODEL 9
REMARK VINA RESULT:      -6.5      2.389      4.387
REMARK  6 active torsions:
REMARK  status: ('A' for Active; 'I' for Inactive)
REMARK    1  A    between atoms: C10_2  and  C11_3 
REMARK    2  A    between atoms: C4_18  and  N9_17 
REMARK    3  A    between atoms: N9_17  and  C8_24 
REMARK    4  A    between atoms: C1_21  and  C18_22 
REMARK    5  A    between atoms: C8_24  and  C23_23 
REMARK    6  A    between atoms: C23_23  and  O24_25 
ROOT
ATOM      1  C2  PFQ d          13.108  -5.071  13.312  0.00  0.00     0.091 A 
ATOM      2  C10 PFQ d          17.313  -4.300  11.979  0.00  0.00     0.100 A 
ATOM      3  N1  PFQ d          14.355  -5.477  13.488  0.00  0.00    -0.217 NA
ATOM      4  C6  PFQ d          15.361  -4.898  12.817  0.00  0.00     0.186 A 
ATOM      5  O6  PFQ d          16.696  -5.153  12.836  0.00  0.00    -0.289 OA
ATOM      6  C5  PFQ d          15.113  -3.860  11.921  0.00  0.00     0.077 A 
ATOM      7  C4  PFQ d          13.782  -3.459  11.764  0.00  0.00     0.140 A 
ATOM      8  N3  PFQ d          12.829  -4.089  12.475  0.00  0.00    -0.224 NA
ATOM      9  C1  PFQ d          16.349  -3.477  11.385  0.00  0.00     0.027 A 
ATOM     10  H1  PFQ d          12.306  -5.550  13.861  0.00  0.00     0.146 H 
ENDROOT
BRANCH   2  11
ATOM     11  C11 PFQ d          18.697  -4.379  11.848  0.00  0.00    -0.001 A 
ATOM     12  C12 PFQ d          19.519  -3.301  11.526  0.00  0.00    -0.070 A 
ATOM     13  C13 PFQ d          20.897  -3.508  11.431  0.00  0.00    -0.082 A 
ATOM     14  H2  PFQ d          19.096  -2.319  11.351  0.00  0.00     0.084 H 
ATOM     15  C14 PFQ d          21.443  -4.771  11.666  0.00  0.00    -0.083 A 
ATOM     16  H3  PFQ d          21.548  -2.681  11.174  0.00  0.00     0.083 H 
ATOM     17  C15 PFQ d          20.620  -5.852  11.985  0.00  0.00    -0.082 A 
ATOM     18  H4  PFQ d          22.516  -4.914  11.600  0.00  0.00     0.083 H 
ATOM     19  C16 PFQ d          19.256  -5.631  12.092  0.00  0.00    -0.070 A 
ATOM     20  H5  PFQ d          21.037  -6.840  12.144  0.00  0.00     0.083 H 
ATOM     21  H6  PFQ d          18.609  -6.453  12.372  0.00  0.00     0.084 H 
ENDBRANCH   2  11
BRANCH   9  22
ATOM     22  C18 PFQ d          16.500  -2.449  10.439  0.00  0.00    -0.022 A 
ATOM     23  C19 PFQ d          16.125  -2.671   9.109  0.00  0.00    -0.072 A 
ATOM     24  C20 PFQ d          16.283  -1.693   8.124  0.00  0.00    -0.082 A 
ATOM     25  H7  PFQ d          15.698  -3.630   8.836  0.00  0.00     0.084 H 
ATOM     26  C21 PFQ d          16.838  -0.461   8.477  0.00  0.00    -0.083 A 
ATOM     27  H8  PFQ d          15.981  -1.888   7.101  0.00  0.00     0.083 H 
ATOM     28  C22 PFQ d          17.224  -0.237   9.812  0.00  0.00    -0.082 A 
ATOM     29  H9  PFQ d          16.970   0.314   7.731  0.00  0.00     0.083 H 
ATOM     30  C17 PFQ d          17.063  -1.221  10.792  0.00  0.00    -0.072 A 
ATOM     31  H10 PFQ d          17.655   0.720  10.085  0.00  0.00     0.083 H 
ATOM     32  H12 PFQ d          17.371  -1.032  11.815  0.00  0.00     0.084 H 
ENDBRANCH   9  22
BRANCH   7  33
ATOM     33  N9  PFQ d          13.422  -2.477  10.929  0.00  0.00    -0.372 N 
ATOM     34  H11 PFQ d          13.320  -2.675   9.924  0.00  0.00     0.161 HD
BRANCH  33  35
ATOM     35  C8  PFQ d          13.169  -1.115  11.437  0.00  0.00     0.013 C 
ATOM     36  H15 PFQ d          13.974  -0.830  12.131  0.00  0.00     0.067 H 
ATOM     37  H16 PFQ d          12.205  -1.099  11.968  0.00  0.00     0.067 H 
BRANCH  35  38
ATOM     38  C23 PFQ d          13.124  -0.113  10.273  0.00  0.00     0.031 C 
ATOM     39  H13 PFQ d          12.083   0.193  10.096  0.00  0.00     0.076 H 
ATOM     40  H14 PFQ d          13.525  -0.590   9.367  0.00  0.00     0.076 H 
BRANCH  38  41
ATOM     41  O24 PFQ d          13.912   1.041  10.592  0.00  0.00    -0.399 OA
ATOM     42  H17 PFQ d          13.783   1.270  11.505  0.00  0.00     0.209 HD
ENDBRANCH  38  41
ENDBRANCH  35  38
ENDBRANCH  33  35
ENDBRANCH   7  33
TORSDOF 6
ENDMDL
MODEL 10
REMARK VINA RESULT:      -5.9      2.435      3.618
REMARK  6 active torsions:
REMARK  status: ('A' for Active; 'I' for Inactive)
REMARK    1  A    between atoms: C10_2  and  C11_3 
REMARK    2  A    between atoms: C4_18  and  N9_17 
REMARK    3  A    between atoms: N9_17  and  C8_24 
REMARK    4  A    between atoms: C1_21  and  C18_22 
REMARK    5  A    between atoms: C8_24  and  C23_23 
REMARK    6  A    between atoms: C23_23  and  O24_25 
ROOT
ATOM      1  C2  PFQ d          17.776  -0.538   8.166  0.00  0.00     0.091 A 
ATOM      2  C10 PFQ d          19.756  -3.580  10.790  0.00  0.00     0.100 A 
ATOM      3  N1  PFQ d          18.964  -0.973   8.555  0.00  0.00    -0.217 NA
ATOM      4  C6  PFQ d          19.066  -1.991   9.422  0.00  0.00     0.186 A 
ATOM      5  O6  PFQ d          20.163  -2.589   9.956  0.00  0.00    -0.289 OA
ATOM      6  C5  PFQ d          17.924  -2.608   9.931  0.00  0.00     0.077 A 
ATOM      7  C4  PFQ d          16.688  -2.119   9.495  0.00  0.00     0.140 A 
ATOM      8  N3  PFQ d          16.669  -1.095   8.622  0.00  0.00    -0.224 NA
ATOM      9  C1  PFQ d          18.356  -3.616  10.802  0.00  0.00     0.027 A 
ATOM     10  H1  PFQ d          17.711   0.286   7.466  0.00  0.00     0.146 H 
ENDROOT
BRANCH   2  11
ATOM     11  C11 PFQ d          20.726  -4.336  11.442  0.00  0.00    -0.001 A 
ATOM     12  C12 PFQ d          21.983  -3.857  11.806  0.00  0.00    -0.070 A 
ATOM     13  C13 PFQ d          22.866  -4.715  12.465  0.00  0.00    -0.082 A 
ATOM     14  H2  PFQ d          22.269  -2.836  11.582  0.00  0.00     0.084 H 
ATOM     15  C14 PFQ d          22.494  -6.026  12.763  0.00  0.00    -0.083 A 
ATOM     16  H3  PFQ d          23.850  -4.358  12.748  0.00  0.00     0.083 H 
ATOM     17  C15 PFQ d          21.237  -6.508  12.395  0.00  0.00    -0.082 A 
ATOM     18  H4  PFQ d          23.187  -6.677  13.285  0.00  0.00     0.083 H 
ATOM     19  C16 PFQ d          20.362  -5.644  11.756  0.00  0.00    -0.070 A 
ATOM     20  H5  PFQ d          20.952  -7.533  12.603  0.00  0.00     0.083 H 
ATOM     21  H6  PFQ d          19.371  -5.993  11.495  0.00  0.00     0.084 H 
ENDBRANCH   2  11
BRANCH   9  22
ATOM     22  C18 PFQ d          17.483  -4.461  11.507  0.00  0.00    -0.022 A 
ATOM     23  C19 PFQ d          17.089  -4.120  12.806  0.00  0.00    -0.072 A 
ATOM     24  C20 PFQ d          16.248  -4.940  13.563  0.00  0.00    -0.082 A 
ATOM     25  H7  PFQ d          17.448  -3.192  13.238  0.00  0.00     0.084 H 
ATOM     26  C21 PFQ d          15.791  -6.136  13.006  0.00  0.00    -0.083 A 
ATOM     27  H8  PFQ d          15.954  -4.652  14.565  0.00  0.00     0.083 H 
ATOM     28  C22 PFQ d          16.190  -6.486  11.703  0.00  0.00    -0.082 A 
ATOM     29  H9  PFQ d          15.136  -6.789  13.572  0.00  0.00     0.083 H 
ATOM     30  C17 PFQ d          17.034  -5.661  10.952  0.00  0.00    -0.072 A 
ATOM     31  H10 PFQ d          15.836  -7.416  11.271  0.00  0.00     0.083 H 
ATOM     32  H12 PFQ d          17.336  -5.950   9.951  0.00  0.00     0.084 H 
ENDBRANCH   9  22
BRANCH   7  33
ATOM     33  N9  PFQ d          15.525  -2.627   9.918  0.00  0.00    -0.372 N 
ATOM     34  H11 PFQ d          15.269  -3.593   9.668  0.00  0.00     0.161 HD
BRANCH  33  35
ATOM     35  C8  PFQ d          14.605  -1.815  10.739  0.00  0.00     0.013 C 
ATOM     36  H15 PFQ d          14.383  -0.874  10.215  0.00  0.00     0.067 H 
ATOM     37  H16 PFQ d          15.083  -1.593  11.705  0.00  0.00     0.067 H 
BRANCH  35  38
ATOM     38  C23 PFQ d          13.296  -2.580  10.985  0.00  0.00     0.031 C 
ATOM     39  H13 PFQ d          13.522  -3.550  11.452  0.00  0.00     0.076 H 
ATOM     40  H14 PFQ d          12.785  -2.746  10.024  0.00  0.00     0.076 H 
BRANCH  38  41
ATOM     41  O24 PFQ d          12.442  -1.822  11.852  0.00  0.00    -0.399 OA
ATOM     42  H17 PFQ d          11.891  -2.414  12.348  0.00  0.00     0.209 HD
ENDBRANCH  38  41
ENDBRANCH  35  38
ENDBRANCH  33  35
ENDBRANCH   7  33
TORSDOF 6
ENDMDL
