MODEL 1
REMARK VINA RESULT:      -7.1      0.000      0.000
REMARK  23 active torsions:
REMARK  status: ('A' for Active; 'I' for Inactive)
REMARK    1  A    between atoms: N4B_18  and  C1A_1 
REMARK    2  A    between atoms: C2A_2  and  O2A_8 
REMARK    3  A    between atoms: C3A_3  and  O3A_9 
REMARK    4  A    between atoms: C4A_4  and  O4A_10 
REMARK    5  A    between atoms: C5A_5  and  C6A_6 
REMARK    6  A    between atoms: C6A_6  and  O6A_11 
REMARK    7  A    between atoms: O4C_30  and  C1B_12 
REMARK    8  A    between atoms: C2B_13  and  O2B_19 
REMARK    9  A    between atoms: C3B_14  and  O3B_20 
REMARK   10  A    between atoms: C4B_15  and  N4B_18 
REMARK   11  A    between atoms: C5B_16  and  C6B_17 
REMARK   12  A    between atoms: O4D_42  and  C1C_22 
REMARK   13  A    between atoms: C2C_23  and  O2C_28 
REMARK   14  A    between atoms: C3C_24  and  O3C_29 
REMARK   15  A    between atoms: C4C_25  and  O4C_30 
REMARK   16  A    between atoms: C5C_26  and  C6C_27 
REMARK   17  A    between atoms: C6C_27  and  O6C_32 
REMARK   18  A    between atoms: C1D_33  and  O1D_39 
REMARK   19  A    between atoms: C2D_34  and  O2D_40 
REMARK   20  A    between atoms: C3D_35  and  O3D_41 
REMARK   21  A    between atoms: C4D_36  and  O4D_42 
REMARK   22  A    between atoms: C5D_37  and  C6D_38 
REMARK   23  A    between atoms: C6D_38  and  O6D_44 
ROOT
ATOM      1  C1B ACR d         -18.011  -6.878  -5.366  0.00  0.00     0.159 C 
ATOM      2  C2B ACR d         -17.575  -5.700  -6.236  0.00  0.00     0.110 C 
ATOM      3  C3B ACR d         -18.711  -5.291  -7.188  0.00  0.00     0.094 C 
ATOM      4  C4B ACR d         -19.086  -6.468  -8.090  0.00  0.00     0.154 C 
ATOM      5  C5B ACR d         -19.497  -7.645  -7.180  0.00  0.00     0.068 C 
ATOM      6  O5B ACR d         -18.435  -7.933  -6.236  0.00  0.00    -0.351 OA
ATOM      7  H12 ACR d         -17.165  -7.223  -4.754  0.00  0.00     0.133 H 
ATOM      8  H13 ACR d         -16.690  -5.985  -6.824  0.00  0.00     0.094 H 
ATOM      9  H14 ACR d         -19.586  -4.988  -6.595  0.00  0.00     0.090 H 
ATOM     10  H15 ACR d         -18.174  -6.781  -8.619  0.00  0.00     0.092 H 
ATOM     11  H16 ACR d         -20.406  -7.360  -6.631  0.00  0.00     0.086 H 
ENDROOT
BRANCH   1  12
ATOM     12  O4C ACR d         -19.089  -6.467  -4.501  0.00  0.00    -0.348 OA
BRANCH  12  13
ATOM     13  C4C ACR d         -19.050  -6.956  -3.160  0.00  0.00     0.096 C 
ATOM     14  C3C ACR d         -18.771  -5.775  -2.229  0.00  0.00     0.092 C 
ATOM     15  C2C ACR d         -18.957  -6.112  -0.746  0.00  0.00     0.110 C 
ATOM     16  H26 ACR d         -19.492  -4.981  -2.476  0.00  0.00     0.091 H 
ATOM     17  C1C ACR d         -20.278  -6.825  -0.479  0.00  0.00     0.159 C 
ATOM     18  H25 ACR d         -18.121  -6.734  -0.394  0.00  0.00     0.094 H 
ATOM     19  O5C ACR d         -20.399  -7.938  -1.382  0.00  0.00    -0.348 OA
ATOM     20  H24 ACR d         -20.300  -7.188   0.559  0.00  0.00     0.133 H 
ATOM     21  C5C ACR d         -20.380  -7.620  -2.789  0.00  0.00     0.089 C 
ATOM     22  H28 ACR d         -21.189  -6.907  -3.004  0.00  0.00     0.090 H 
ATOM     23  H27 ACR d         -18.242  -7.696  -3.065  0.00  0.00     0.091 H 
BRANCH  14  24
ATOM     24  O3C ACR d         -17.452  -5.269  -2.475  0.00  0.00    -0.390 OA
ATOM     25  H32 ACR d         -16.830  -5.735  -1.930  0.00  0.00     0.210 HD
ENDBRANCH  14  24
BRANCH  15  26
ATOM     26  O2C ACR d         -18.990  -4.869  -0.054  0.00  0.00    -0.388 OA
ATOM     27  H31 ACR d         -19.761  -4.380  -0.320  0.00  0.00     0.210 HD
ENDBRANCH  15  26
BRANCH  17  28
ATOM     28  O4D ACR d         -21.364  -5.912  -0.689  0.00  0.00    -0.348 OA
BRANCH  28  29
ATOM     29  C4D ACR d         -22.484  -5.982   0.205  0.00  0.00     0.096 C 
ATOM     30  C3D ACR d         -22.345  -4.730   1.077  0.00  0.00     0.092 C 
ATOM     31  C2D ACR d         -23.525  -4.517   2.032  0.00  0.00     0.110 C 
ATOM     32  H36 ACR d         -22.320  -3.865   0.398  0.00  0.00     0.091 H 
ATOM     33  C1D ACR d         -24.908  -4.692   1.351  0.00  0.00     0.156 C 
ATOM     34  H35 ACR d         -23.457  -5.266   2.835  0.00  0.00     0.094 H 
ATOM     35  O5D ACR d         -24.952  -5.793   0.418  0.00  0.00    -0.349 OA
ATOM     36  H34 ACR d         -25.632  -4.912   2.149  0.00  0.00     0.133 H 
ATOM     37  C5D ACR d         -23.851  -5.905  -0.515  0.00  0.00     0.089 C 
ATOM     38  H38 ACR d         -23.834  -4.991  -1.127  0.00  0.00     0.090 H 
ATOM     39  H37 ACR d         -22.435  -6.901   0.808  0.00  0.00     0.091 H 
BRANCH  30  40
ATOM     40  O3D ACR d         -21.098  -4.753   1.801  0.00  0.00    -0.390 OA
ATOM     41  H43 ACR d         -20.684  -3.900   1.743  0.00  0.00     0.210 HD
ENDBRANCH  30  40
BRANCH  31  42
ATOM     42  O2D ACR d         -23.379  -3.206   2.616  0.00  0.00    -0.388 OA
ATOM     43  H42 ACR d         -22.593  -3.185   3.150  0.00  0.00     0.210 HD
ENDBRANCH  31  42
BRANCH  33  44
ATOM     44  O1D ACR d         -25.336  -3.485   0.696  0.00  0.00    -0.369 OA
ATOM     45  H41 ACR d         -26.270  -3.531   0.530  0.00  0.00     0.212 HD
ENDBRANCH  33  44
BRANCH  37  46
ATOM     46  C6D ACR d         -24.138  -7.080  -1.455  0.00  0.00     0.043 C 
ATOM     47  H39 ACR d         -23.829  -6.817  -2.478  0.00  0.00     0.078 H 
ATOM     48  H40 ACR d         -25.215  -7.306  -1.444  0.00  0.00     0.078 H 
BRANCH  46  49
ATOM     49  O6D ACR d         -23.399  -8.232  -1.010  0.00  0.00    -0.398 OA
ATOM     50  H44 ACR d         -22.560  -7.953  -0.661  0.00  0.00     0.209 HD
ENDBRANCH  46  49
ENDBRANCH  37  46
ENDBRANCH  28  29
ENDBRANCH  17  28
BRANCH  21  51
ATOM     51  C6C ACR d         -20.643  -8.897  -3.582  0.00  0.00     0.043 C 
ATOM     52  H29 ACR d         -19.795  -9.586  -3.456  0.00  0.00     0.078 H 
ATOM     53  H30 ACR d         -20.759  -8.649  -4.648  0.00  0.00     0.078 H 
BRANCH  51  54
ATOM     54  O6C ACR d         -21.842  -9.523  -3.103  0.00  0.00    -0.398 OA
ATOM     55  H33 ACR d         -21.761  -9.690  -2.171  0.00  0.00     0.209 HD
ENDBRANCH  51  54
ENDBRANCH  21  51
ENDBRANCH  12  13
ENDBRANCH   1  12
BRANCH   2  56
ATOM     56  O2B ACR d         -17.257  -4.600  -5.387  0.00  0.00    -0.388 OA
ATOM     57  H22 ACR d         -16.399  -4.261  -5.616  0.00  0.00     0.210 HD
ENDBRANCH   2  56
BRANCH   3  58
ATOM     58  O3B ACR d         -18.302  -4.208  -8.017  0.00  0.00    -0.391 OA
ATOM     59  H23 ACR d         -19.065  -3.816  -8.423  0.00  0.00     0.210 HD
ENDBRANCH   3  58
BRANCH   5  60
ATOM     60  C6B ACR d         -19.779  -8.918  -7.972  0.00  0.00    -0.050 C 
ATOM     61  H17 ACR d         -20.678  -8.774  -8.590  0.00  0.00     0.031 H 
ATOM     62  H18 ACR d         -19.942  -9.753  -7.276  0.00  0.00     0.031 H 
ATOM     63  H19 ACR d         -18.920  -9.143  -8.621  0.00  0.00     0.031 H 
ENDBRANCH   5  60
BRANCH   4  64
ATOM     64  N4B ACR d         -20.052  -6.086  -9.142  0.00  0.00    -0.056 N 
ATOM     65  H20 ACR d         -20.800  -6.762  -9.120  0.00  0.00     0.278 HD
ATOM     66  H21 ACR d         -20.413  -5.177  -8.901  0.00  0.00     0.278 HD
BRANCH  64  67
ATOM     67  C1A ACR d         -19.571  -6.009 -10.548  0.00  0.00     0.146 C 
ATOM     68  C2A ACR d         -20.659  -5.728 -11.605  0.00  0.00     0.093 C 
ATOM     69  C3A ACR d         -21.547  -6.962 -11.773  0.00  0.00     0.091 C 
ATOM     70  H2  ACR d         -20.173  -5.495 -12.565  0.00  0.00     0.090 H 
ATOM     71  C4A ACR d         -20.721  -8.066 -12.405  0.00  0.00     0.086 C 
ATOM     72  H3  ACR d         -21.833  -7.291 -10.763  0.00  0.00     0.091 H 
ATOM     73  C5A ACR d         -19.380  -8.214 -11.718  0.00  0.00    -0.027 C 
ATOM     74  H4  ACR d         -20.552  -7.823 -13.464  0.00  0.00     0.094 H 
ATOM     75  C7A ACR d         -18.799  -7.249 -10.989  0.00  0.00    -0.064 C 
ATOM     76  H7  ACR d         -17.753  -7.353 -10.704  0.00  0.00     0.080 H 
ATOM     77  H1  ACR d         -18.871  -5.161 -10.579  0.00  0.00     0.095 H 
BRANCH  68  78
ATOM     78  O2A ACR d         -21.468  -4.628 -11.214  0.00  0.00    -0.390 OA
ATOM     79  H8  ACR d         -21.124  -4.252 -10.412  0.00  0.00     0.210 HD
ENDBRANCH  68  78
BRANCH  69  80
ATOM     80  O3A ACR d         -22.802  -6.750 -12.512  0.00  0.00    -0.390 OA
ATOM     81  H9  ACR d         -22.674  -6.981 -13.424  0.00  0.00     0.210 HD
ENDBRANCH  69  80
BRANCH  71  82
ATOM     82  O4A ACR d         -21.443  -9.294 -12.314  0.00  0.00    -0.388 OA
ATOM     83  H10 ACR d         -21.978  -9.288 -11.529  0.00  0.00     0.210 HD
ENDBRANCH  71  82
BRANCH  73  84
ATOM     84  C6A ACR d         -18.682  -9.522 -11.932  0.00  0.00     0.039 C 
ATOM     85  H5  ACR d         -19.380 -10.288 -12.300  0.00  0.00     0.081 H 
ATOM     86  H6  ACR d         -18.208  -9.874 -11.005  0.00  0.00     0.081 H 
BRANCH  84  87
ATOM     87  O6A ACR d         -17.695  -9.198 -12.930  0.00  0.00    -0.397 OA
ATOM     88  H11 ACR d         -18.102  -8.693 -13.624  0.00  0.00     0.209 HD
ENDBRANCH  84  87
ENDBRANCH  73  84
ENDBRANCH  64  67
ENDBRANCH   4  64
TORSDOF 23
ENDMDL
MODEL 2
REMARK VINA RESULT:      -7.1      1.323      2.384
REMARK  23 active torsions:
REMARK  status: ('A' for Active; 'I' for Inactive)
REMARK    1  A    between atoms: N4B_18  and  C1A_1 
REMARK    2  A    between atoms: C2A_2  and  O2A_8 
REMARK    3  A    between atoms: C3A_3  and  O3A_9 
REMARK    4  A    between atoms: C4A_4  and  O4A_10 
REMARK    5  A    between atoms: C5A_5  and  C6A_6 
REMARK    6  A    between atoms: C6A_6  and  O6A_11 
REMARK    7  A    between atoms: O4C_30  and  C1B_12 
REMARK    8  A    between atoms: C2B_13  and  O2B_19 
REMARK    9  A    between atoms: C3B_14  and  O3B_20 
REMARK   10  A    between atoms: C4B_15  and  N4B_18 
REMARK   11  A    between atoms: C5B_16  and  C6B_17 
REMARK   12  A    between atoms: O4D_42  and  C1C_22 
REMARK   13  A    between atoms: C2C_23  and  O2C_28 
REMARK   14  A    between atoms: C3C_24  and  O3C_29 
REMARK   15  A    between atoms: C4C_25  and  O4C_30 
REMARK   16  A    between atoms: C5C_26  and  C6C_27 
REMARK   17  A    between atoms: C6C_27  and  O6C_32 
REMARK   18  A    between atoms: C1D_33  and  O1D_39 
REMARK   19  A    between atoms: C2D_34  and  O2D_40 
REMARK   20  A    between atoms: C3D_35  and  O3D_41 
REMARK   21  A    between atoms: C4D_36  and  O4D_42 
REMARK   22  A    between atoms: C5D_37  and  C6D_38 
REMARK   23  A    between atoms: C6D_38  and  O6D_44 
ROOT
ATOM      1  C1B ACR d         -18.796  -6.521  -4.920  0.00  0.00     0.159 C 
ATOM      2  C2B ACR d         -18.299  -5.435  -5.873  0.00  0.00     0.110 C 
ATOM      3  C3B ACR d         -19.304  -5.229  -7.018  0.00  0.00     0.094 C 
ATOM      4  C4B ACR d         -19.482  -6.533  -7.796  0.00  0.00     0.154 C 
ATOM      5  C5B ACR d         -19.961  -7.613  -6.801  0.00  0.00     0.068 C 
ATOM      6  O5B ACR d         -19.034  -7.704  -5.689  0.00  0.00    -0.351 OA
ATOM      7  H12 ACR d         -18.032  -6.725  -4.156  0.00  0.00     0.133 H 
ATOM      8  H13 ACR d         -17.325  -5.728  -6.289  0.00  0.00     0.094 H 
ATOM      9  H14 ACR d         -20.271  -4.916  -6.598  0.00  0.00     0.090 H 
ATOM     10  H15 ACR d         -18.488  -6.847  -8.147  0.00  0.00     0.092 H 
ATOM     11  H16 ACR d         -20.954  -7.325  -6.426  0.00  0.00     0.086 H 
ENDROOT
BRANCH   1  12
ATOM     12  O4C ACR d         -20.008  -6.081  -4.275  0.00  0.00    -0.348 OA
BRANCH  12  13
ATOM     13  C4C ACR d         -20.084  -6.273  -2.862  0.00  0.00     0.096 C 
ATOM     14  C3C ACR d         -20.290  -4.908  -2.204  0.00  0.00     0.092 C 
ATOM     15  C2C ACR d         -20.643  -4.997  -0.717  0.00  0.00     0.110 C 
ATOM     16  H26 ACR d         -21.136  -4.420  -2.712  0.00  0.00     0.091 H 
ATOM     17  C1C ACR d         -21.761  -6.000  -0.449  0.00  0.00     0.159 C 
ATOM     18  H25 ACR d         -19.751  -5.271  -0.134  0.00  0.00     0.094 H 
ATOM     19  O5C ACR d         -21.426  -7.250  -1.076  0.00  0.00    -0.348 OA
ATOM     20  H24 ACR d         -21.872  -6.149   0.636  0.00  0.00     0.133 H 
ATOM     21  C5C ACR d         -21.241  -7.213  -2.507  0.00  0.00     0.089 C 
ATOM     22  H28 ACR d         -22.155  -6.820  -2.975  0.00  0.00     0.090 H 
ATOM     23  H27 ACR d         -19.142  -6.714  -2.504  0.00  0.00     0.091 H 
BRANCH  14  24
ATOM     24  O3C ACR d         -19.125  -4.097  -2.404  0.00  0.00    -0.390 OA
ATOM     25  H32 ACR d         -18.365  -4.547  -2.056  0.00  0.00     0.210 HD
ENDBRANCH  14  24
BRANCH  15  26
ATOM     26  O2C ACR d         -21.120  -3.710  -0.340  0.00  0.00    -0.388 OA
ATOM     27  H31 ACR d         -22.035  -3.628  -0.585  0.00  0.00     0.210 HD
ENDBRANCH  15  26
BRANCH  17  28
ATOM     28  O4D ACR d         -22.990  -5.500  -0.990  0.00  0.00    -0.348 OA
BRANCH  28  29
ATOM     29  C4D ACR d         -24.212  -5.855  -0.327  0.00  0.00     0.096 C 
ATOM     30  C3D ACR d         -24.454  -7.309  -0.745  0.00  0.00     0.092 C 
ATOM     31  C2D ACR d         -25.651  -7.957  -0.038  0.00  0.00     0.110 C 
ATOM     32  H36 ACR d         -23.560  -7.882  -0.455  0.00  0.00     0.091 H 
ATOM     33  C1D ACR d         -25.674  -7.700   1.492  0.00  0.00     0.156 C 
ATOM     34  H35 ACR d         -26.572  -7.526  -0.458  0.00  0.00     0.094 H 
ATOM     35  O5D ACR d         -25.289  -6.357   1.854  0.00  0.00    -0.349 OA
ATOM     36  H34 ACR d         -26.714  -7.843   1.823  0.00  0.00     0.133 H 
ATOM     37  C5D ACR d         -24.107  -5.820   1.216  0.00  0.00     0.089 C 
ATOM     38  H38 ACR d         -23.257  -6.462   1.489  0.00  0.00     0.090 H 
ATOM     39  H37 ACR d         -25.030  -5.199  -0.657  0.00  0.00     0.091 H 
BRANCH  30  40
ATOM     40  O3D ACR d         -24.590  -7.409  -2.177  0.00  0.00    -0.390 OA
ATOM     41  H43 ACR d         -25.020  -6.630  -2.508  0.00  0.00     0.210 HD
ENDBRANCH  30  40
BRANCH  31  42
ATOM     42  O2D ACR d         -25.625  -9.366  -0.344  0.00  0.00    -0.388 OA
ATOM     43  H42 ACR d         -26.304  -9.808   0.151  0.00  0.00     0.210 HD
ENDBRANCH  31  42
BRANCH  33  44
ATOM     44  O1D ACR d         -24.857  -8.646   2.203  0.00  0.00    -0.369 OA
ATOM     45  H41 ACR d         -24.922  -8.481   3.136  0.00  0.00     0.212 HD
ENDBRANCH  33  44
BRANCH  37  46
ATOM     46  C6D ACR d         -23.837  -4.430   1.800  0.00  0.00     0.043 C 
ATOM     47  H39 ACR d         -22.841  -4.413   2.266  0.00  0.00     0.078 H 
ATOM     48  H40 ACR d         -24.601  -4.194   2.556  0.00  0.00     0.078 H 
BRANCH  46  49
ATOM     49  O6D ACR d         -23.890  -3.455   0.742  0.00  0.00    -0.398 OA
ATOM     50  H44 ACR d         -23.875  -3.900  -0.098  0.00  0.00     0.209 HD
ENDBRANCH  46  49
ENDBRANCH  37  46
ENDBRANCH  28  29
ENDBRANCH  17  28
BRANCH  21  51
ATOM     51  C6C ACR d         -21.019  -8.637  -3.007  0.00  0.00     0.043 C 
ATOM     52  H29 ACR d         -21.442  -9.349  -2.284  0.00  0.00     0.078 H 
ATOM     53  H30 ACR d         -19.939  -8.822  -3.115  0.00  0.00     0.078 H 
BRANCH  51  54
ATOM     54  O6C ACR d         -21.663  -8.807  -4.278  0.00  0.00    -0.398 OA
ATOM     55  H33 ACR d         -21.228  -9.499  -4.762  0.00  0.00     0.209 HD
ENDBRANCH  51  54
ENDBRANCH  21  51
ENDBRANCH  12  13
ENDBRANCH   1  12
BRANCH   2  56
ATOM     56  O2B ACR d         -18.166  -4.216  -5.144  0.00  0.00    -0.388 OA
ATOM     57  H22 ACR d         -17.390  -4.259  -4.596  0.00  0.00     0.210 HD
ENDBRANCH   2  56
BRANCH   3  58
ATOM     58  O3B ACR d         -18.834  -4.234  -7.921  0.00  0.00    -0.391 OA
ATOM     59  H23 ACR d         -17.887  -4.182  -7.869  0.00  0.00     0.210 HD
ENDBRANCH   3  58
BRANCH   5  60
ATOM     60  C6B ACR d         -20.058  -8.992  -7.445  0.00  0.00    -0.050 C 
ATOM     61  H17 ACR d         -19.497  -8.995  -8.391  0.00  0.00     0.031 H 
ATOM     62  H18 ACR d         -21.113  -9.230  -7.643  0.00  0.00     0.031 H 
ATOM     63  H19 ACR d         -19.633  -9.745  -6.765  0.00  0.00     0.031 H 
ENDBRANCH   5  60
BRANCH   4  64
ATOM     64  N4B ACR d         -20.303  -6.357  -9.013  0.00  0.00    -0.056 N 
ATOM     65  H20 ACR d         -20.889  -7.173  -9.099  0.00  0.00     0.278 HD
ATOM     66  H21 ACR d         -20.879  -5.543  -8.869  0.00  0.00     0.278 HD
BRANCH  64  67
ATOM     67  C1A ACR d         -19.605  -6.177 -10.315  0.00  0.00     0.146 C 
ATOM     68  C2A ACR d         -20.503  -5.746 -11.493  0.00  0.00     0.093 C 
ATOM     69  C3A ACR d         -21.398  -6.912 -11.914  0.00  0.00     0.091 C 
ATOM     70  H2  ACR d         -19.866  -5.451 -12.340  0.00  0.00     0.090 H 
ATOM     71  C4A ACR d         -20.524  -7.995 -12.518  0.00  0.00     0.086 C 
ATOM     72  H3  ACR d         -21.850  -7.316 -10.997  0.00  0.00     0.091 H 
ATOM     73  C5A ACR d         -19.313  -8.273 -11.653  0.00  0.00    -0.027 C 
ATOM     74  H4  ACR d         -20.183  -7.665 -13.510  0.00  0.00     0.094 H 
ATOM     75  C7A ACR d         -18.819  -7.409 -10.752  0.00  0.00    -0.064 C 
ATOM     76  H7  ACR d         -17.835  -7.592 -10.323  0.00  0.00     0.080 H 
ATOM     77  H1  ACR d         -18.879  -5.366 -10.156  0.00  0.00     0.095 H 
BRANCH  68  78
ATOM     78  O2A ACR d         -21.324  -4.646 -11.124  0.00  0.00    -0.390 OA
ATOM     79  H8  ACR d         -20.903  -4.159 -10.425  0.00  0.00     0.210 HD
ENDBRANCH  68  78
BRANCH  69  80
ATOM     80  O3A ACR d         -22.514  -6.570 -12.811  0.00  0.00    -0.390 OA
ATOM     81  H9  ACR d         -22.984  -7.362 -13.045  0.00  0.00     0.210 HD
ENDBRANCH  69  80
BRANCH  71  82
ATOM     82  O4A ACR d         -21.296  -9.187 -12.658  0.00  0.00    -0.388 OA
ATOM     83  H10 ACR d         -21.776  -9.349 -11.855  0.00  0.00     0.210 HD
ENDBRANCH  71  82
BRANCH  73  84
ATOM     84  C6A ACR d         -18.639  -9.590 -11.884  0.00  0.00     0.039 C 
ATOM     85  H5  ACR d         -19.361 -10.353 -12.208  0.00  0.00     0.081 H 
ATOM     86  H6  ACR d         -18.123  -9.935 -10.977  0.00  0.00     0.081 H 
BRANCH  84  87
ATOM     87  O6A ACR d         -17.699  -9.287 -12.933  0.00  0.00    -0.397 OA
ATOM     88  H11 ACR d         -17.943  -8.468 -13.348  0.00  0.00     0.209 HD
ENDBRANCH  84  87
ENDBRANCH  73  84
ENDBRANCH  64  67
ENDBRANCH   4  64
TORSDOF 23
ENDMDL
MODEL 3
REMARK VINA RESULT:      -5.5      2.421      4.080
REMARK  23 active torsions:
REMARK  status: ('A' for Active; 'I' for Inactive)
REMARK    1  A    between atoms: N4B_18  and  C1A_1 
REMARK    2  A    between atoms: C2A_2  and  O2A_8 
REMARK    3  A    between atoms: C3A_3  and  O3A_9 
REMARK    4  A    between atoms: C4A_4  and  O4A_10 
REMARK    5  A    between atoms: C5A_5  and  C6A_6 
REMARK    6  A    between atoms: C6A_6  and  O6A_11 
REMARK    7  A    between atoms: O4C_30  and  C1B_12 
REMARK    8  A    between atoms: C2B_13  and  O2B_19 
REMARK    9  A    between atoms: C3B_14  and  O3B_20 
REMARK   10  A    between atoms: C4B_15  and  N4B_18 
REMARK   11  A    between atoms: C5B_16  and  C6B_17 
REMARK   12  A    between atoms: O4D_42  and  C1C_22 
REMARK   13  A    between atoms: C2C_23  and  O2C_28 
REMARK   14  A    between atoms: C3C_24  and  O3C_29 
REMARK   15  A    between atoms: C4C_25  and  O4C_30 
REMARK   16  A    between atoms: C5C_26  and  C6C_27 
REMARK   17  A    between atoms: C6C_27  and  O6C_32 
REMARK   18  A    between atoms: C1D_33  and  O1D_39 
REMARK   19  A    between atoms: C2D_34  and  O2D_40 
REMARK   20  A    between atoms: C3D_35  and  O3D_41 
REMARK   21  A    between atoms: C4D_36  and  O4D_42 
REMARK   22  A    between atoms: C5D_37  and  C6D_38 
REMARK   23  A    between atoms: C6D_38  and  O6D_44 
ROOT
ATOM      1  C1B ACR d         -19.049  -6.216  -4.721  0.00  0.00     0.159 C 
ATOM      2  C2B ACR d         -18.459  -5.236  -5.734  0.00  0.00     0.110 C 
ATOM      3  C3B ACR d         -19.385  -5.108  -6.955  0.00  0.00     0.094 C 
ATOM      4  C4B ACR d         -19.560  -6.473  -7.622  0.00  0.00     0.154 C 
ATOM      5  C5B ACR d         -20.135  -7.442  -6.567  0.00  0.00     0.068 C 
ATOM      6  O5B ACR d         -19.281  -7.457  -5.395  0.00  0.00    -0.351 OA
ATOM      7  H12 ACR d         -18.341  -6.371  -3.895  0.00  0.00     0.133 H 
ATOM      8  H13 ACR d         -17.472  -5.595  -6.060  0.00  0.00     0.094 H 
ATOM      9  H14 ACR d         -20.364  -4.730  -6.626  0.00  0.00     0.090 H 
ATOM     10  H15 ACR d         -18.558  -6.846  -7.880  0.00  0.00     0.092 H 
ATOM     11  H16 ACR d         -21.138  -7.092  -6.282  0.00  0.00     0.086 H 
ENDROOT
BRANCH   1  12
ATOM     12  O4C ACR d         -20.282  -5.684  -4.197  0.00  0.00    -0.348 OA
BRANCH  12  13
ATOM     13  C4C ACR d         -20.562  -5.959  -2.824  0.00  0.00     0.096 C 
ATOM     14  C3C ACR d         -20.145  -7.401  -2.531  0.00  0.00     0.092 C 
ATOM     15  C2C ACR d         -20.151  -7.746  -1.038  0.00  0.00     0.110 C 
ATOM     16  H26 ACR d         -19.112  -7.527  -2.890  0.00  0.00     0.091 H 
ATOM     17  C1C ACR d         -19.423  -6.698  -0.203  0.00  0.00     0.159 C 
ATOM     18  H25 ACR d         -21.186  -7.851  -0.681  0.00  0.00     0.094 H 
ATOM     19  O5C ACR d         -19.936  -5.396  -0.535  0.00  0.00    -0.348 OA
ATOM     20  H24 ACR d         -19.587  -6.898   0.867  0.00  0.00     0.133 H 
ATOM     21  C5C ACR d         -19.798  -4.992  -1.913  0.00  0.00     0.089 C 
ATOM     22  H28 ACR d         -18.734  -5.030  -2.191  0.00  0.00     0.090 H 
ATOM     23  H27 ACR d         -21.640  -5.846  -2.641  0.00  0.00     0.091 H 
BRANCH  14  24
ATOM     24  O3C ACR d         -20.983  -8.303  -3.265  0.00  0.00    -0.390 OA
ATOM     25  H32 ACR d         -21.649  -8.656  -2.687  0.00  0.00     0.210 HD
ENDBRANCH  14  24
BRANCH  15  26
ATOM     26  O2C ACR d         -19.441  -8.972  -0.907  0.00  0.00    -0.388 OA
ATOM     27  H31 ACR d         -18.734  -8.997  -1.541  0.00  0.00     0.210 HD
ENDBRANCH  15  26
BRANCH  17  28
ATOM     28  O4D ACR d         -18.019  -6.753  -0.488  0.00  0.00    -0.348 OA
BRANCH  28  29
ATOM     29  C4D ACR d         -17.107  -6.325   0.534  0.00  0.00     0.096 C 
ATOM     30  C3D ACR d         -16.873  -4.842   0.230  0.00  0.00     0.092 C 
ATOM     31  C2D ACR d         -16.024  -4.128   1.288  0.00  0.00     0.110 C 
ATOM     32  H36 ACR d         -17.859  -4.354   0.224  0.00  0.00     0.091 H 
ATOM     33  C1D ACR d         -16.465  -4.438   2.742  0.00  0.00     0.156 C 
ATOM     34  H35 ACR d         -14.983  -4.468   1.181  0.00  0.00     0.094 H 
ATOM     35  O5D ACR d         -16.827  -5.820   2.950  0.00  0.00    -0.349 OA
ATOM     36  H34 ACR d         -15.602  -4.225   3.390  0.00  0.00     0.133 H 
ATOM     37  C5D ACR d         -17.693  -6.426   1.962  0.00  0.00     0.089 C 
ATOM     38  H38 ACR d         -18.639  -5.864   1.955  0.00  0.00     0.090 H 
ATOM     39  H37 ACR d         -16.172  -6.902   0.477  0.00  0.00     0.091 H 
BRANCH  30  40
ATOM     40  O3D ACR d         -16.298  -4.679  -1.083  0.00  0.00    -0.390 OA
ATOM     41  H43 ACR d         -16.976  -4.412  -1.693  0.00  0.00     0.210 HD
ENDBRANCH  30  40
BRANCH  31  42
ATOM     42  O2D ACR d         -16.074  -2.715   1.003  0.00  0.00    -0.388 OA
ATOM     43  H42 ACR d         -16.316  -2.243   1.791  0.00  0.00     0.210 HD
ENDBRANCH  31  42
BRANCH  33  44
ATOM     44  O1D ACR d         -17.545  -3.587   3.164  0.00  0.00    -0.369 OA
ATOM     45  H41 ACR d         -18.326  -3.795   2.664  0.00  0.00     0.212 HD
ENDBRANCH  33  44
BRANCH  37  46
ATOM     46  C6D ACR d         -18.012  -7.853   2.416  0.00  0.00     0.043 C 
ATOM     47  H39 ACR d         -19.103  -7.984   2.482  0.00  0.00     0.078 H 
ATOM     48  H40 ACR d         -17.561  -8.035   3.403  0.00  0.00     0.078 H 
BRANCH  46  49
ATOM     49  O6D ACR d         -17.472  -8.784   1.461  0.00  0.00    -0.398 OA
ATOM     50  H44 ACR d         -17.597  -9.671   1.778  0.00  0.00     0.209 HD
ENDBRANCH  46  49
ENDBRANCH  37  46
ENDBRANCH  28  29
ENDBRANCH  17  28
BRANCH  21  51
ATOM     51  C6C ACR d         -20.278  -3.551  -2.049  0.00  0.00     0.043 C 
ATOM     52  H29 ACR d         -20.191  -3.043  -1.078  0.00  0.00     0.078 H 
ATOM     53  H30 ACR d         -21.330  -3.544  -2.373  0.00  0.00     0.078 H 
BRANCH  51  54
ATOM     54  O6C ACR d         -19.475  -2.864  -3.021  0.00  0.00    -0.398 OA
ATOM     55  H33 ACR d         -18.837  -3.466  -3.385  0.00  0.00     0.209 HD
ENDBRANCH  51  54
ENDBRANCH  21  51
ENDBRANCH  12  13
ENDBRANCH   1  12
BRANCH   2  56
ATOM     56  O2B ACR d         -18.328  -3.960  -5.111  0.00  0.00    -0.388 OA
ATOM     57  H22 ACR d         -17.421  -3.821  -4.864  0.00  0.00     0.210 HD
ENDBRANCH   2  56
BRANCH   3  58
ATOM     58  O3B ACR d         -18.827  -4.214  -7.912  0.00  0.00    -0.391 OA
ATOM     59  H23 ACR d         -17.899  -4.393  -8.008  0.00  0.00     0.210 HD
ENDBRANCH   3  58
BRANCH   5  60
ATOM     60  C6B ACR d         -20.241  -8.871  -7.089  0.00  0.00    -0.050 C 
ATOM     61  H17 ACR d         -19.766  -8.936  -8.079  0.00  0.00     0.031 H 
ATOM     62  H18 ACR d         -21.300  -9.154  -7.170  0.00  0.00     0.031 H 
ATOM     63  H19 ACR d         -19.731  -9.554  -6.393  0.00  0.00     0.031 H 
ENDBRANCH   5  60
BRANCH   4  64
ATOM     64  N4B ACR d         -20.299  -6.385  -8.900  0.00  0.00    -0.056 N 
ATOM     65  H20 ACR d         -20.797  -7.254  -9.017  0.00  0.00     0.278 HD
ATOM     66  H21 ACR d         -20.959  -5.629  -8.812  0.00  0.00     0.278 HD
BRANCH  64  67
ATOM     67  C1A ACR d         -19.525  -6.150 -10.149  0.00  0.00     0.146 C 
ATOM     68  C2A ACR d         -20.368  -5.821 -11.398  0.00  0.00     0.093 C 
ATOM     69  C3A ACR d         -21.111  -7.073 -11.865  0.00  0.00     0.091 C 
ATOM     70  H2  ACR d         -19.700  -5.473 -12.199  0.00  0.00     0.090 H 
ATOM     71  C4A ACR d         -20.092  -8.070 -12.383  0.00  0.00     0.086 C 
ATOM     72  H3  ACR d         -21.590  -7.511 -10.977  0.00  0.00     0.091 H 
ATOM     73  C5A ACR d         -18.930  -8.220 -11.425  0.00  0.00    -0.027 C 
ATOM     74  H4  ACR d         -19.710  -7.718 -13.352  0.00  0.00     0.094 H 
ATOM     75  C7A ACR d         -18.592  -7.304 -10.504  0.00  0.00    -0.064 C 
ATOM     76  H7  ACR d         -17.630  -7.385 -10.000  0.00  0.00     0.080 H 
ATOM     77  H1  ACR d         -18.895  -5.270  -9.949  0.00  0.00     0.095 H 
BRANCH  68  78
ATOM     78  O2A ACR d         -21.318  -4.803 -11.109  0.00  0.00    -0.390 OA
ATOM     79  H8  ACR d         -21.023  -3.981 -11.484  0.00  0.00     0.210 HD
ENDBRANCH  68  78
BRANCH  69  80
ATOM     80  O3A ACR d         -22.183  -6.851 -12.848  0.00  0.00    -0.390 OA
ATOM     81  H9  ACR d         -21.981  -6.080 -13.366  0.00  0.00     0.210 HD
ENDBRANCH  69  80
BRANCH  71  82
ATOM     82  O4A ACR d         -20.731  -9.334 -12.561  0.00  0.00    -0.388 OA
ATOM     83  H10 ACR d         -20.831  -9.510 -13.489  0.00  0.00     0.210 HD
ENDBRANCH  71  82
BRANCH  73  84
ATOM     84  C6A ACR d         -18.115  -9.466 -11.583  0.00  0.00     0.039 C 
ATOM     85  H5  ACR d         -18.721 -10.363 -11.389  0.00  0.00     0.081 H 
ATOM     86  H6  ACR d         -17.246  -9.459 -10.910  0.00  0.00     0.081 H 
BRANCH  84  87
ATOM     87  O6A ACR d         -17.704  -9.406 -12.962  0.00  0.00    -0.397 OA
ATOM     88  H11 ACR d         -17.169  -8.633 -13.098  0.00  0.00     0.209 HD
ENDBRANCH  84  87
ENDBRANCH  73  84
ENDBRANCH  64  67
ENDBRANCH   4  64
TORSDOF 23
ENDMDL
MODEL 4
REMARK VINA RESULT:      -4.3      1.579      2.519
REMARK  23 active torsions:
REMARK  status: ('A' for Active; 'I' for Inactive)
REMARK    1  A    between atoms: N4B_18  and  C1A_1 
REMARK    2  A    between atoms: C2A_2  and  O2A_8 
REMARK    3  A    between atoms: C3A_3  and  O3A_9 
REMARK    4  A    between atoms: C4A_4  and  O4A_10 
REMARK    5  A    between atoms: C5A_5  and  C6A_6 
REMARK    6  A    between atoms: C6A_6  and  O6A_11 
REMARK    7  A    between atoms: O4C_30  and  C1B_12 
REMARK    8  A    between atoms: C2B_13  and  O2B_19 
REMARK    9  A    between atoms: C3B_14  and  O3B_20 
REMARK   10  A    between atoms: C4B_15  and  N4B_18 
REMARK   11  A    between atoms: C5B_16  and  C6B_17 
REMARK   12  A    between atoms: O4D_42  and  C1C_22 
REMARK   13  A    between atoms: C2C_23  and  O2C_28 
REMARK   14  A    between atoms: C3C_24  and  O3C_29 
REMARK   15  A    between atoms: C4C_25  and  O4C_30 
REMARK   16  A    between atoms: C5C_26  and  C6C_27 
REMARK   17  A    between atoms: C6C_27  and  O6C_32 
REMARK   18  A    between atoms: C1D_33  and  O1D_39 
REMARK   19  A    between atoms: C2D_34  and  O2D_40 
REMARK   20  A    between atoms: C3D_35  and  O3D_41 
REMARK   21  A    between atoms: C4D_36  and  O4D_42 
REMARK   22  A    between atoms: C5D_37  and  C6D_38 
REMARK   23  A    between atoms: C6D_38  and  O6D_44 
ROOT
ATOM      1  C1B ACR d         -18.858  -6.372  -4.856  0.00  0.00     0.159 C 
ATOM      2  C2B ACR d         -18.303  -5.231  -5.708  0.00  0.00     0.110 C 
ATOM      3  C3B ACR d         -18.872  -5.305  -7.134  0.00  0.00     0.094 C 
ATOM      4  C4B ACR d         -18.495  -6.639  -7.778  0.00  0.00     0.154 C 
ATOM      5  C5B ACR d         -19.050  -7.767  -6.882  0.00  0.00     0.068 C 
ATOM      6  O5B ACR d         -18.564  -7.602  -5.525  0.00  0.00    -0.351 OA
ATOM      7  H12 ACR d         -18.379  -6.367  -3.867  0.00  0.00     0.133 H 
ATOM      8  H13 ACR d         -17.207  -5.302  -5.747  0.00  0.00     0.094 H 
ATOM      9  H14 ACR d         -19.967  -5.213  -7.090  0.00  0.00     0.090 H 
ATOM     10  H15 ACR d         -17.399  -6.722  -7.748  0.00  0.00     0.092 H 
ATOM     11  H16 ACR d         -20.148  -7.708  -6.887  0.00  0.00     0.086 H 
ENDROOT
BRANCH   1  12
ATOM     12  O4C ACR d         -20.282  -6.207  -4.696  0.00  0.00    -0.348 OA
BRANCH  12  13
ATOM     13  C4C ACR d         -20.938  -7.140  -3.837  0.00  0.00     0.096 C 
ATOM     14  C3C ACR d         -20.230  -7.122  -2.482  0.00  0.00     0.092 C 
ATOM     15  C2C ACR d         -20.986  -7.884  -1.389  0.00  0.00     0.110 C 
ATOM     16  H26 ACR d         -20.159  -6.073  -2.159  0.00  0.00     0.091 H 
ATOM     17  C1C ACR d         -22.460  -7.497  -1.333  0.00  0.00     0.159 C 
ATOM     18  H25 ACR d         -20.892  -8.968  -1.553  0.00  0.00     0.094 H 
ATOM     19  O5C ACR d         -23.020  -7.600  -2.654  0.00  0.00    -0.348 OA
ATOM     20  H24 ACR d         -22.995  -8.176  -0.652  0.00  0.00     0.133 H 
ATOM     21  C5C ACR d         -22.416  -6.770  -3.667  0.00  0.00     0.089 C 
ATOM     22  H28 ACR d         -22.469  -5.719  -3.345  0.00  0.00     0.090 H 
ATOM     23  H27 ACR d         -20.870  -8.147  -4.272  0.00  0.00     0.091 H 
BRANCH  14  24
ATOM     24  O3C ACR d         -18.897  -7.631  -2.629  0.00  0.00    -0.390 OA
ATOM     25  H32 ACR d         -18.927  -8.465  -3.083  0.00  0.00     0.210 HD
ENDBRANCH  14  24
BRANCH  15  26
ATOM     26  O2C ACR d         -20.394  -7.504  -0.152  0.00  0.00    -0.388 OA
ATOM     27  H31 ACR d         -20.817  -6.717   0.172  0.00  0.00     0.210 HD
ENDBRANCH  15  26
BRANCH  17  28
ATOM     28  O4D ACR d         -22.582  -6.150  -0.859  0.00  0.00    -0.348 OA
BRANCH  28  29
ATOM     29  C4D ACR d         -23.319  -5.927   0.351  0.00  0.00     0.096 C 
ATOM     30  C3D ACR d         -22.532  -4.826   1.070  0.00  0.00     0.092 C 
ATOM     31  C2D ACR d         -23.216  -4.318   2.345  0.00  0.00     0.110 C 
ATOM     32  H36 ACR d         -22.466  -3.973   0.379  0.00  0.00     0.091 H 
ATOM     33  C1D ACR d         -24.729  -4.029   2.158  0.00  0.00     0.156 C 
ATOM     34  H35 ACR d         -23.124  -5.096   3.117  0.00  0.00     0.094 H 
ATOM     35  O5D ACR d         -25.404  -5.011   1.343  0.00  0.00    -0.349 OA
ATOM     36  H34 ACR d         -25.187  -4.063   3.158  0.00  0.00     0.133 H 
ATOM     37  C5D ACR d         -24.753  -5.400   0.111  0.00  0.00     0.089 C 
ATOM     38  H38 ACR d         -24.657  -4.501  -0.517  0.00  0.00     0.090 H 
ATOM     39  H37 ACR d         -23.360  -6.849   0.949  0.00  0.00     0.091 H 
BRANCH  30  40
ATOM     40  O3D ACR d         -21.187  -5.265   1.351  0.00  0.00    -0.390 OA
ATOM     41  H43 ACR d         -21.217  -6.082   1.836  0.00  0.00     0.210 HD
ENDBRANCH  30  40
BRANCH  31  42
ATOM     42  O2D ACR d         -22.498  -3.148   2.787  0.00  0.00    -0.388 OA
ATOM     43  H42 ACR d         -22.910  -2.372   2.426  0.00  0.00     0.210 HD
ENDBRANCH  31  42
BRANCH  33  44
ATOM     44  O1D ACR d         -24.957  -2.715   1.619  0.00  0.00    -0.369 OA
ATOM     45  H41 ACR d         -25.124  -2.107   2.330  0.00  0.00     0.212 HD
ENDBRANCH  33  44
BRANCH  37  46
ATOM     46  C6D ACR d         -25.671  -6.378  -0.628  0.00  0.00     0.043 C 
ATOM     47  H39 ACR d         -26.720  -6.163  -0.374  0.00  0.00     0.078 H 
ATOM     48  H40 ACR d         -25.426  -7.409  -0.332  0.00  0.00     0.078 H 
BRANCH  46  49
ATOM     49  O6D ACR d         -25.478  -6.226  -2.046  0.00  0.00    -0.398 OA
ATOM     50  H44 ACR d         -25.327  -7.079  -2.437  0.00  0.00     0.209 HD
ENDBRANCH  46  49
ENDBRANCH  37  46
ENDBRANCH  28  29
ENDBRANCH  17  28
BRANCH  21  51
ATOM     51  C6C ACR d         -23.213  -6.917  -4.959  0.00  0.00     0.043 C 
ATOM     52  H29 ACR d         -23.179  -7.965  -5.292  0.00  0.00     0.078 H 
ATOM     53  H30 ACR d         -22.776  -6.271  -5.735  0.00  0.00     0.078 H 
BRANCH  51  54
ATOM     54  O6C ACR d         -24.577  -6.534  -4.730  0.00  0.00    -0.398 OA
ATOM     55  H33 ACR d         -24.656  -6.150  -3.865  0.00  0.00     0.209 HD
ENDBRANCH  51  54
ENDBRANCH  21  51
ENDBRANCH  12  13
ENDBRANCH   1  12
BRANCH   2  56
ATOM     56  O2B ACR d         -18.686  -3.992  -5.114  0.00  0.00    -0.388 OA
ATOM     57  H22 ACR d         -18.478  -3.280  -5.708  0.00  0.00     0.210 HD
ENDBRANCH   2  56
BRANCH   3  58
ATOM     58  O3B ACR d         -18.340  -4.257  -7.937  0.00  0.00    -0.391 OA
ATOM     59  H23 ACR d         -17.724  -3.748  -7.424  0.00  0.00     0.210 HD
ENDBRANCH   3  58
BRANCH   5  60
ATOM     60  C6B ACR d         -18.629  -9.151  -7.366  0.00  0.00    -0.050 C 
ATOM     61  H17 ACR d         -17.631  -9.390  -6.969  0.00  0.00     0.031 H 
ATOM     62  H18 ACR d         -18.599  -9.162  -8.465  0.00  0.00     0.031 H 
ATOM     63  H19 ACR d         -19.353  -9.899  -7.011  0.00  0.00     0.031 H 
ENDBRANCH   5  60
BRANCH   4  64
ATOM     64  N4B ACR d         -18.865  -6.699  -9.209  0.00  0.00    -0.056 N 
ATOM     65  H20 ACR d         -19.157  -5.773  -9.481  0.00  0.00     0.278 HD
ATOM     66  H21 ACR d         -18.035  -6.954  -9.721  0.00  0.00     0.278 HD
BRANCH  64  67
ATOM     67  C1A ACR d         -19.942  -7.639  -9.621  0.00  0.00     0.146 C 
ATOM     68  C2A ACR d         -19.522  -8.724 -10.633  0.00  0.00     0.093 C 
ATOM     69  C3A ACR d         -19.286  -8.089 -12.004  0.00  0.00     0.091 C 
ATOM     70  H2  ACR d         -20.326  -9.472 -10.711  0.00  0.00     0.090 H 
ATOM     71  C4A ACR d         -20.618  -7.603 -12.544  0.00  0.00     0.086 C 
ATOM     72  H3  ACR d         -18.646  -7.209 -11.844  0.00  0.00     0.091 H 
ATOM     73  C5A ACR d         -21.388  -6.827 -11.497  0.00  0.00    -0.027 C 
ATOM     74  H4  ACR d         -21.217  -8.473 -12.851  0.00  0.00     0.094 H 
ATOM     75  C7A ACR d         -21.176  -6.934 -10.176  0.00  0.00    -0.064 C 
ATOM     76  H7  ACR d         -21.901  -6.508  -9.484  0.00  0.00     0.080 H 
ATOM     77  H1  ACR d         -20.250  -8.162  -8.703  0.00  0.00     0.095 H 
BRANCH  68  78
ATOM     78  O2A ACR d         -18.327  -9.368 -10.213  0.00  0.00    -0.390 OA
ATOM     79  H8  ACR d         -17.666  -9.281 -10.891  0.00  0.00     0.210 HD
ENDBRANCH  68  78
BRANCH  69  80
ATOM     80  O3A ACR d         -18.591  -8.933 -12.989  0.00  0.00    -0.390 OA
ATOM     81  H9  ACR d         -19.208  -9.215 -13.654  0.00  0.00     0.210 HD
ENDBRANCH  69  80
BRANCH  71  82
ATOM     82  O4A ACR d         -20.381  -6.771 -13.679  0.00  0.00    -0.388 OA
ATOM     83  H10 ACR d         -20.383  -5.860 -13.408  0.00  0.00     0.210 HD
ENDBRANCH  71  82
BRANCH  73  84
ATOM     84  C6A ACR d         -22.468  -5.930 -12.018  0.00  0.00     0.039 C 
ATOM     85  H5  ACR d         -22.052  -4.981 -12.386  0.00  0.00     0.081 H 
ATOM     86  H6  ACR d         -23.220  -5.724 -11.242  0.00  0.00     0.081 H 
BRANCH  84  87
ATOM     87  O6A ACR d         -23.032  -6.702 -13.095  0.00  0.00    -0.397 OA
ATOM     88  H11 ACR d         -23.727  -6.203 -13.510  0.00  0.00     0.209 HD
ENDBRANCH  84  87
ENDBRANCH  73  84
ENDBRANCH  64  67
ENDBRANCH   4  64
TORSDOF 23
ENDMDL
MODEL 5
REMARK VINA RESULT:      -4.3      1.472      3.119
REMARK  23 active torsions:
REMARK  status: ('A' for Active; 'I' for Inactive)
REMARK    1  A    between atoms: N4B_18  and  C1A_1 
REMARK    2  A    between atoms: C2A_2  and  O2A_8 
REMARK    3  A    between atoms: C3A_3  and  O3A_9 
REMARK    4  A    between atoms: C4A_4  and  O4A_10 
REMARK    5  A    between atoms: C5A_5  and  C6A_6 
REMARK    6  A    between atoms: C6A_6  and  O6A_11 
REMARK    7  A    between atoms: O4C_30  and  C1B_12 
REMARK    8  A    between atoms: C2B_13  and  O2B_19 
REMARK    9  A    between atoms: C3B_14  and  O3B_20 
REMARK   10  A    between atoms: C4B_15  and  N4B_18 
REMARK   11  A    between atoms: C5B_16  and  C6B_17 
REMARK   12  A    between atoms: O4D_42  and  C1C_22 
REMARK   13  A    between atoms: C2C_23  and  O2C_28 
REMARK   14  A    between atoms: C3C_24  and  O3C_29 
REMARK   15  A    between atoms: C4C_25  and  O4C_30 
REMARK   16  A    between atoms: C5C_26  and  C6C_27 
REMARK   17  A    between atoms: C6C_27  and  O6C_32 
REMARK   18  A    between atoms: C1D_33  and  O1D_39 
REMARK   19  A    between atoms: C2D_34  and  O2D_40 
REMARK   20  A    between atoms: C3D_35  and  O3D_41 
REMARK   21  A    between atoms: C4D_36  and  O4D_42 
REMARK   22  A    between atoms: C5D_37  and  C6D_38 
REMARK   23  A    between atoms: C6D_38  and  O6D_44 
ROOT
ATOM      1  C1B ACR d         -18.213  -6.754  -4.901  0.00  0.00     0.159 C 
ATOM      2  C2B ACR d         -17.567  -5.730  -5.832  0.00  0.00     0.110 C 
ATOM      3  C3B ACR d         -18.441  -5.514  -7.078  0.00  0.00     0.094 C 
ATOM      4  C4B ACR d         -18.613  -6.835  -7.829  0.00  0.00     0.154 C 
ATOM      5  C5B ACR d         -19.246  -7.851  -6.855  0.00  0.00     0.068 C 
ATOM      6  O5B ACR d         -18.439  -7.950  -5.654  0.00  0.00    -0.351 OA
ATOM      7  H12 ACR d         -17.541  -6.970  -4.059  0.00  0.00     0.133 H 
ATOM      8  H13 ACR d         -16.573  -6.088  -6.140  0.00  0.00     0.094 H 
ATOM      9  H14 ACR d         -19.426  -5.137  -6.766  0.00  0.00     0.090 H 
ATOM     10  H15 ACR d         -17.609  -7.212  -8.070  0.00  0.00     0.092 H 
ATOM     11  H16 ACR d         -20.254  -7.499  -6.590  0.00  0.00     0.086 H 
ENDROOT
BRANCH   1  12
ATOM     12  O4C ACR d         -19.457  -6.229  -4.395  0.00  0.00    -0.348 OA
BRANCH  12  13
ATOM     13  C4C ACR d         -19.613  -6.220  -2.975  0.00  0.00     0.096 C 
ATOM     14  C3C ACR d         -20.102  -4.834  -2.556  0.00  0.00     0.092 C 
ATOM     15  C2C ACR d         -20.555  -4.764  -1.095  0.00  0.00     0.110 C 
ATOM     16  H26 ACR d         -20.974  -4.588  -3.180  0.00  0.00     0.091 H 
ATOM     17  C1C ACR d         -21.503  -5.901  -0.730  0.00  0.00     0.159 C 
ATOM     18  H25 ACR d         -19.680  -4.782  -0.428  0.00  0.00     0.094 H 
ATOM     19  O5C ACR d         -20.910  -7.149  -1.131  0.00  0.00    -0.348 OA
ATOM     20  H24 ACR d         -21.675  -5.907   0.356  0.00  0.00     0.133 H 
ATOM     21  C5C ACR d         -20.618  -7.291  -2.537  0.00  0.00     0.089 C 
ATOM     22  H28 ACR d         -21.545  -7.144  -3.110  0.00  0.00     0.090 H 
ATOM     23  H27 ACR d         -18.643  -6.426  -2.501  0.00  0.00     0.091 H 
BRANCH  14  24
ATOM     24  O3C ACR d         -19.080  -3.863  -2.820  0.00  0.00    -0.390 OA
ATOM     25  H32 ACR d         -18.228  -4.259  -2.683  0.00  0.00     0.210 HD
ENDBRANCH  14  24
BRANCH  15  26
ATOM     26  O2C ACR d         -21.273  -3.543  -0.955  0.00  0.00    -0.388 OA
ATOM     27  H31 ACR d         -21.472  -3.397  -0.037  0.00  0.00     0.210 HD
ENDBRANCH  15  26
BRANCH  17  28
ATOM     28  O4D ACR d         -22.752  -5.718  -1.410  0.00  0.00    -0.348 OA
BRANCH  28  29
ATOM     29  C4D ACR d         -23.946  -6.173  -0.760  0.00  0.00     0.096 C 
ATOM     30  C3D ACR d         -24.129  -7.605  -1.274  0.00  0.00     0.092 C 
ATOM     31  C2D ACR d         -25.286  -8.353  -0.600  0.00  0.00     0.110 C 
ATOM     32  H36 ACR d         -23.207  -8.155  -1.034  0.00  0.00     0.091 H 
ATOM     33  C1D ACR d         -25.298  -8.203   0.944  0.00  0.00     0.156 C 
ATOM     34  H35 ACR d         -26.231  -7.936  -0.977  0.00  0.00     0.094 H 
ATOM     35  O5D ACR d         -24.968  -6.872   1.394  0.00  0.00    -0.349 OA
ATOM     36  H34 ACR d         -26.325  -8.416   1.277  0.00  0.00     0.133 H 
ATOM     37  C5D ACR d         -23.820  -6.239   0.781  0.00  0.00     0.089 C 
ATOM     38  H38 ACR d         -22.938  -6.859   0.999  0.00  0.00     0.090 H 
ATOM     39  H37 ACR d         -24.798  -5.534  -1.034  0.00  0.00     0.091 H 
BRANCH  30  40
ATOM     40  O3D ACR d         -24.282  -7.612  -2.708  0.00  0.00    -0.390 OA
ATOM     41  H43 ACR d         -24.442  -8.501  -3.003  0.00  0.00     0.210 HD
ENDBRANCH  30  40
BRANCH  31  42
ATOM     42  O2D ACR d         -25.202  -9.735  -1.003  0.00  0.00    -0.388 OA
ATOM     43  H42 ACR d         -25.360 -10.293  -0.251  0.00  0.00     0.210 HD
ENDBRANCH  31  42
BRANCH  33  44
ATOM     44  O1D ACR d         -24.429  -9.158   1.579  0.00  0.00    -0.369 OA
ATOM     45  H41 ACR d         -23.587  -9.160   1.139  0.00  0.00     0.212 HD
ENDBRANCH  33  44
BRANCH  37  46
ATOM     46  C6D ACR d         -23.604  -4.882   1.457  0.00  0.00     0.043 C 
ATOM     47  H39 ACR d         -22.545  -4.774   1.736  0.00  0.00     0.078 H 
ATOM     48  H40 ACR d         -24.230  -4.816   2.359  0.00  0.00     0.078 H 
BRANCH  46  49
ATOM     49  O6D ACR d         -23.969  -3.835   0.540  0.00  0.00    -0.398 OA
ATOM     50  H44 ACR d         -24.196  -4.216  -0.300  0.00  0.00     0.209 HD
ENDBRANCH  46  49
ENDBRANCH  37  46
ENDBRANCH  28  29
ENDBRANCH  17  28
BRANCH  21  51
ATOM     51  C6C ACR d         -20.117  -8.710  -2.790  0.00  0.00     0.043 C 
ATOM     52  H29 ACR d         -20.441  -9.364  -1.968  0.00  0.00     0.078 H 
ATOM     53  H30 ACR d         -19.017  -8.705  -2.844  0.00  0.00     0.078 H 
BRANCH  51  54
ATOM     54  O6C ACR d         -20.654  -9.197  -4.028  0.00  0.00    -0.398 OA
ATOM     55  H33 ACR d         -19.944  -9.496  -4.584  0.00  0.00     0.209 HD
ENDBRANCH  51  54
ENDBRANCH  21  51
ENDBRANCH  12  13
ENDBRANCH   1  12
BRANCH   2  56
ATOM     56  O2B ACR d         -17.438  -4.494  -5.131  0.00  0.00    -0.388 OA
ATOM     57  H22 ACR d         -17.811  -3.794  -5.655  0.00  0.00     0.210 HD
ENDBRANCH   2  56
BRANCH   3  58
ATOM     58  O3B ACR d         -17.831  -4.578  -7.959  0.00  0.00    -0.391 OA
ATOM     59  H23 ACR d         -17.203  -5.027  -8.513  0.00  0.00     0.210 HD
ENDBRANCH   3  58
BRANCH   5  60
ATOM     60  C6B ACR d         -19.355  -9.246  -7.462  0.00  0.00    -0.050 C 
ATOM     61  H17 ACR d         -18.804  -9.276  -8.414  0.00  0.00     0.031 H 
ATOM     62  H18 ACR d         -20.413  -9.485  -7.643  0.00  0.00     0.031 H 
ATOM     63  H19 ACR d         -18.926  -9.983  -6.768  0.00  0.00     0.031 H 
ENDBRANCH   5  60
BRANCH   4  64
ATOM     64  N4B ACR d         -19.300  -6.660  -9.128  0.00  0.00    -0.056 N 
ATOM     65  H20 ACR d         -19.931  -5.879  -9.029  0.00  0.00     0.278 HD
ATOM     66  H21 ACR d         -18.593  -6.436  -9.811  0.00  0.00     0.278 HD
BRANCH  64  67
ATOM     67  C1A ACR d         -20.090  -7.799  -9.668  0.00  0.00     0.146 C 
ATOM     68  C2A ACR d         -19.351  -8.693 -10.685  0.00  0.00     0.093 C 
ATOM     69  C3A ACR d         -19.174  -7.939 -12.004  0.00  0.00     0.091 C 
ATOM     70  H2  ACR d         -19.946  -9.602 -10.862  0.00  0.00     0.090 H 
ATOM     71  C4A ACR d         -20.540  -7.747 -12.634  0.00  0.00     0.086 C 
ATOM     72  H3  ACR d         -18.775  -6.945 -11.753  0.00  0.00     0.091 H 
ATOM     73  C5A ACR d         -21.547  -7.236 -11.625  0.00  0.00    -0.027 C 
ATOM     74  H4  ACR d         -20.891  -8.712 -13.027  0.00  0.00     0.094 H 
ATOM     75  C7A ACR d         -21.412  -7.370 -10.296  0.00  0.00    -0.064 C 
ATOM     76  H7  ACR d         -22.266  -7.167  -9.651  0.00  0.00     0.080 H 
ATOM     77  H1  ACR d         -20.330  -8.434  -8.802  0.00  0.00     0.095 H 
BRANCH  68  78
ATOM     78  O2A ACR d         -18.071  -9.063 -10.192  0.00  0.00    -0.390 OA
ATOM     79  H8  ACR d         -17.714  -9.759 -10.732  0.00  0.00     0.210 HD
ENDBRANCH  68  78
BRANCH  69  80
ATOM     80  O3A ACR d         -18.228  -8.536 -12.960  0.00  0.00    -0.390 OA
ATOM     81  H9  ACR d         -17.431  -8.781 -12.504  0.00  0.00     0.210 HD
ENDBRANCH  69  80
BRANCH  71  82
ATOM     82  O4A ACR d         -20.426  -6.815 -13.709  0.00  0.00    -0.388 OA
ATOM     83  H10 ACR d         -19.805  -7.144 -14.348  0.00  0.00     0.210 HD
ENDBRANCH  71  82
BRANCH  73  84
ATOM     84  C6A ACR d         -22.768  -6.587 -12.198  0.00  0.00     0.039 C 
ATOM     85  H5  ACR d         -23.661  -6.826 -11.601  0.00  0.00     0.081 H 
ATOM     86  H6  ACR d         -22.930  -6.898 -13.240  0.00  0.00     0.081 H 
BRANCH  84  87
ATOM     87  O6A ACR d         -22.452  -5.184 -12.117  0.00  0.00    -0.397 OA
ATOM     88  H11 ACR d         -21.555  -5.046 -12.399  0.00  0.00     0.209 HD
ENDBRANCH  84  87
ENDBRANCH  73  84
ENDBRANCH  64  67
ENDBRANCH   4  64
TORSDOF 23
ENDMDL
MODEL 6
REMARK VINA RESULT:      -4.1      2.391     10.161
REMARK  23 active torsions:
REMARK  status: ('A' for Active; 'I' for Inactive)
REMARK    1  A    between atoms: N4B_18  and  C1A_1 
REMARK    2  A    between atoms: C2A_2  and  O2A_8 
REMARK    3  A    between atoms: C3A_3  and  O3A_9 
REMARK    4  A    between atoms: C4A_4  and  O4A_10 
REMARK    5  A    between atoms: C5A_5  and  C6A_6 
REMARK    6  A    between atoms: C6A_6  and  O6A_11 
REMARK    7  A    between atoms: O4C_30  and  C1B_12 
REMARK    8  A    between atoms: C2B_13  and  O2B_19 
REMARK    9  A    between atoms: C3B_14  and  O3B_20 
REMARK   10  A    between atoms: C4B_15  and  N4B_18 
REMARK   11  A    between atoms: C5B_16  and  C6B_17 
REMARK   12  A    between atoms: O4D_42  and  C1C_22 
REMARK   13  A    between atoms: C2C_23  and  O2C_28 
REMARK   14  A    between atoms: C3C_24  and  O3C_29 
REMARK   15  A    between atoms: C4C_25  and  O4C_30 
REMARK   16  A    between atoms: C5C_26  and  C6C_27 
REMARK   17  A    between atoms: C6C_27  and  O6C_32 
REMARK   18  A    between atoms: C1D_33  and  O1D_39 
REMARK   19  A    between atoms: C2D_34  and  O2D_40 
REMARK   20  A    between atoms: C3D_35  and  O3D_41 
REMARK   21  A    between atoms: C4D_36  and  O4D_42 
REMARK   22  A    between atoms: C5D_37  and  C6D_38 
REMARK   23  A    between atoms: C6D_38  and  O6D_44 
ROOT
ATOM      1  C1B ACR d         -22.471  -8.354  -3.257  0.00  0.00     0.159 C 
ATOM      2  C2B ACR d         -23.478  -7.204  -3.271  0.00  0.00     0.110 C 
ATOM      3  C3B ACR d         -23.813  -6.770  -1.835  0.00  0.00     0.094 C 
ATOM      4  C4B ACR d         -24.408  -7.947  -1.060  0.00  0.00     0.154 C 
ATOM      5  C5B ACR d         -23.378  -9.096  -1.085  0.00  0.00     0.068 C 
ATOM      6  O5B ACR d         -23.019  -9.406  -2.456  0.00  0.00    -0.351 OA
ATOM      7  H12 ACR d         -22.306  -8.718  -4.281  0.00  0.00     0.133 H 
ATOM      8  H13 ACR d         -24.398  -7.527  -3.780  0.00  0.00     0.094 H 
ATOM      9  H14 ACR d         -22.894  -6.429  -1.337  0.00  0.00     0.090 H 
ATOM     10  H15 ACR d         -25.288  -8.299  -1.619  0.00  0.00     0.092 H 
ATOM     11  H16 ACR d         -22.481  -8.772  -0.537  0.00  0.00     0.086 H 
ENDROOT
BRANCH   1  12
ATOM     12  O4C ACR d         -21.220  -7.894  -2.707  0.00  0.00    -0.348 OA
BRANCH  12  13
ATOM     13  C4C ACR d         -20.036  -8.296  -3.396  0.00  0.00     0.096 C 
ATOM     14  C3C ACR d         -20.427  -9.321  -4.461  0.00  0.00     0.092 C 
ATOM     15  C2C ACR d         -19.295  -9.643  -5.441  0.00  0.00     0.110 C 
ATOM     16  H26 ACR d         -21.253  -8.890  -5.047  0.00  0.00     0.091 H 
ATOM     17  C1C ACR d         -18.634  -8.383  -5.992  0.00  0.00     0.159 C 
ATOM     18  H25 ACR d         -18.539 -10.273  -4.948  0.00  0.00     0.094 H 
ATOM     19  O5C ACR d         -18.272  -7.528  -4.894  0.00  0.00    -0.348 OA
ATOM     20  H24 ACR d         -17.732  -8.656  -6.560  0.00  0.00     0.133 H 
ATOM     21  C5C ACR d         -19.355  -7.088  -4.047  0.00  0.00     0.089 C 
ATOM     22  H28 ACR d         -20.101  -6.567  -4.665  0.00  0.00     0.090 H 
ATOM     23  H27 ACR d         -19.339  -8.758  -2.682  0.00  0.00     0.091 H 
BRANCH  14  24
ATOM     24  O3C ACR d         -20.907 -10.514  -3.828  0.00  0.00    -0.390 OA
ATOM     25  H32 ACR d         -21.500 -10.280  -3.124  0.00  0.00     0.210 HD
ENDBRANCH  14  24
BRANCH  15  26
ATOM     26  O2C ACR d         -19.893 -10.329  -6.534  0.00  0.00    -0.388 OA
ATOM     27  H31 ACR d         -19.676  -9.881  -7.344  0.00  0.00     0.210 HD
ENDBRANCH  15  26
BRANCH  17  28
ATOM     28  O4D ACR d         -19.553  -7.701  -6.855  0.00  0.00    -0.348 OA
BRANCH  28  29
ATOM     29  C4D ACR d         -19.089  -7.300  -8.151  0.00  0.00     0.096 C 
ATOM     30  C3D ACR d         -20.149  -7.845  -9.113  0.00  0.00     0.092 C 
ATOM     31  C2D ACR d         -19.932  -7.415 -10.569  0.00  0.00     0.110 C 
ATOM     32  H36 ACR d         -21.117  -7.430  -8.796  0.00  0.00     0.091 H 
ATOM     33  C1D ACR d         -19.620  -5.903 -10.723  0.00  0.00     0.156 C 
ATOM     34  H35 ACR d         -19.069  -7.970 -10.967  0.00  0.00     0.094 H 
ATOM     35  O5D ACR d         -18.736  -5.392  -9.703  0.00  0.00    -0.349 OA
ATOM     36  H34 ACR d         -19.108  -5.780 -11.690  0.00  0.00     0.133 H 
ATOM     37  C5D ACR d         -19.029  -5.765  -8.336  0.00  0.00     0.089 C 
ATOM     38  H38 ACR d         -20.030  -5.380  -8.089  0.00  0.00     0.090 H 
ATOM     39  H37 ACR d         -18.099  -7.735  -8.353  0.00  0.00     0.091 H 
BRANCH  30  40
ATOM     40  O3D ACR d         -20.235  -9.281  -9.012  0.00  0.00    -0.390 OA
ATOM     41  H43 ACR d         -21.094  -9.566  -9.301  0.00  0.00     0.210 HD
ENDBRANCH  30  40
BRANCH  31  42
ATOM     42  O2D ACR d         -21.105  -7.798 -11.314  0.00  0.00    -0.388 OA
ATOM     43  H42 ACR d         -20.964  -8.650 -11.708  0.00  0.00     0.210 HD
ENDBRANCH  31  42
BRANCH  33  44
ATOM     44  O1D ACR d         -20.821  -5.112 -10.763  0.00  0.00    -0.369 OA
ATOM     45  H41 ACR d         -20.625  -4.260 -11.134  0.00  0.00     0.212 HD
ENDBRANCH  33  44
BRANCH  37  46
ATOM     46  C6D ACR d         -18.028  -5.056  -7.420  0.00  0.00     0.043 C 
ATOM     47  H39 ACR d         -17.625  -4.169  -7.931  0.00  0.00     0.078 H 
ATOM     48  H40 ACR d         -17.204  -5.742  -7.173  0.00  0.00     0.078 H 
BRANCH  46  49
ATOM     49  O6D ACR d         -18.697  -4.652  -6.211  0.00  0.00    -0.398 OA
ATOM     50  H44 ACR d         -19.635  -4.752  -6.322  0.00  0.00     0.209 HD
ENDBRANCH  46  49
ENDBRANCH  37  46
ENDBRANCH  28  29
ENDBRANCH  17  28
BRANCH  21  51
ATOM     51  C6C ACR d         -18.804  -6.099  -3.025  0.00  0.00     0.043 C 
ATOM     52  H29 ACR d         -19.586  -5.375  -2.758  0.00  0.00     0.078 H 
ATOM     53  H30 ACR d         -17.943  -5.567  -3.457  0.00  0.00     0.078 H 
BRANCH  51  54
ATOM     54  O6C ACR d         -18.386  -6.806  -1.848  0.00  0.00    -0.398 OA
ATOM     55  H33 ACR d         -19.146  -7.173  -1.414  0.00  0.00     0.209 HD
ENDBRANCH  51  54
ENDBRANCH  21  51
ENDBRANCH  12  13
ENDBRANCH   1  12
BRANCH   2  56
ATOM     56  O2B ACR d         -22.901  -6.103  -3.970  0.00  0.00    -0.388 OA
ATOM     57  H22 ACR d         -22.187  -5.742  -3.457  0.00  0.00     0.210 HD
ENDBRANCH   2  56
BRANCH   3  58
ATOM     58  O3B ACR d         -24.768  -5.715  -1.843  0.00  0.00    -0.391 OA
ATOM     59  H23 ACR d         -25.528  -5.973  -1.336  0.00  0.00     0.210 HD
ENDBRANCH   3  58
BRANCH   5  60
ATOM     60  C6B ACR d         -23.916 -10.370  -0.442  0.00  0.00    -0.050 C 
ATOM     61  H17 ACR d         -23.121 -11.130  -0.415  0.00  0.00     0.031 H 
ATOM     62  H18 ACR d         -24.764 -10.748  -1.030  0.00  0.00     0.031 H 
ATOM     63  H19 ACR d         -24.248 -10.151   0.583  0.00  0.00     0.031 H 
ENDBRANCH   5  60
BRANCH   4  64
ATOM     64  N4B ACR d         -24.911  -7.548   0.272  0.00  0.00    -0.056 N 
ATOM     65  H20 ACR d         -25.473  -6.721   0.144  0.00  0.00     0.278 HD
ATOM     66  H21 ACR d         -25.491  -8.300   0.609  0.00  0.00     0.278 HD
BRANCH  64  67
ATOM     67  C1A ACR d         -23.919  -7.245   1.339  0.00  0.00     0.146 C 
ATOM     68  C2A ACR d         -24.447  -6.388   2.508  0.00  0.00     0.093 C 
ATOM     69  C3A ACR d         -24.668  -4.950   2.037  0.00  0.00     0.091 C 
ATOM     70  H2  ACR d         -23.705  -6.395   3.321  0.00  0.00     0.090 H 
ATOM     71  C4A ACR d         -23.317  -4.332   1.731  0.00  0.00     0.086 C 
ATOM     72  H3  ACR d         -25.234  -5.005   1.095  0.00  0.00     0.091 H 
ATOM     73  C5A ACR d         -22.463  -5.258   0.891  0.00  0.00    -0.027 C 
ATOM     74  H4  ACR d         -22.794  -4.131   2.678  0.00  0.00     0.094 H 
ATOM     75  C7A ACR d         -22.649  -6.585   0.811  0.00  0.00    -0.064 C 
ATOM     76  H7  ACR d         -21.877  -7.205   0.358  0.00  0.00     0.080 H 
ATOM     77  H1  ACR d         -23.630  -8.218   1.764  0.00  0.00     0.095 H 
BRANCH  68  78
ATOM     78  O2A ACR d         -25.677  -6.906   2.996  0.00  0.00    -0.390 OA
ATOM     79  H8  ACR d         -25.942  -6.417   3.767  0.00  0.00     0.210 HD
ENDBRANCH  68  78
BRANCH  69  80
ATOM     80  O3A ACR d         -25.450  -4.093   2.942  0.00  0.00    -0.390 OA
ATOM     81  H9  ACR d         -26.171  -4.594   3.306  0.00  0.00     0.210 HD
ENDBRANCH  69  80
BRANCH  71  82
ATOM     82  O4A ACR d         -23.517  -3.103   1.034  0.00  0.00    -0.388 OA
ATOM     83  H10 ACR d         -24.253  -2.639   1.417  0.00  0.00     0.210 HD
ENDBRANCH  71  82
BRANCH  73  84
ATOM     84  C6A ACR d         -21.331  -4.610   0.156  0.00  0.00     0.039 C 
ATOM     85  H5  ACR d         -20.674  -4.060   0.846  0.00  0.00     0.081 H 
ATOM     86  H6  ACR d         -21.703  -3.925  -0.620  0.00  0.00     0.081 H 
BRANCH  84  87
ATOM     87  O6A ACR d         -20.644  -5.733  -0.429  0.00  0.00    -0.397 OA
ATOM     88  H11 ACR d         -19.910  -5.976   0.123  0.00  0.00     0.209 HD
ENDBRANCH  84  87
ENDBRANCH  73  84
ENDBRANCH  64  67
ENDBRANCH   4  64
TORSDOF 23
ENDMDL
