MODEL 1
REMARK VINA RESULT:      -7.3      0.000      0.000
REMARK  5 active torsions:
REMARK  status: ('A' for Active; 'I' for Inactive)
REMARK    1  A    between atoms: C1_1  and  O4_4 
REMARK    2  A    between atoms: C2_2  and  O5_5 
REMARK    3  A    between atoms: C3_3  and  O7_7 
REMARK    4  A    between atoms: C8_8  and  C9_9 
REMARK    5  A    between atoms: C9_9  and  O11_11 
ROOT
ATOM      1  C1  MNM d          27.788  47.338   0.062  0.00  0.00     0.110 C 
ATOM      2  C2  MNM d          27.528  45.929  -0.496  0.00  0.00     0.217 C 
ATOM      3  C3  MNM d          27.327  48.426  -0.931  0.00  0.00     0.071 C 
ATOM      4  N6  MNM d          27.801  45.840  -1.926  0.00  0.00    -0.046 N 
ATOM      5  C8  MNM d          26.409  47.890  -2.064  0.00  0.00     0.017 C 
ATOM      6  C10 MNM d          27.199  46.824  -2.838  0.00  0.00     0.092 C 
ATOM      7  H1  MNM d          27.216  47.450   0.995  0.00  0.00     0.093 H 
ATOM      8  H2  MNM d          26.469  45.694  -0.314  0.00  0.00     0.133 H 
ATOM      9  H3  MNM d          28.231  48.821  -1.417  0.00  0.00     0.087 H 
ATOM     10  H6  MNM d          27.490  44.931  -2.229  0.00  0.00     0.280 HD
ATOM     11  H7  MNM d          28.800  45.908  -2.038  0.00  0.00     0.280 HD
ATOM     12  H9  MNM d          25.539  47.405  -1.598  0.00  0.00     0.049 H 
ATOM     13  H12 MNM d          26.518  46.304  -3.528  0.00  0.00     0.076 H 
ATOM     14  H13 MNM d          27.997  47.316  -3.412  0.00  0.00     0.076 H 
ENDROOT
BRANCH   5  15
ATOM     15  C9  MNM d          25.867  49.005  -2.997  0.00  0.00     0.024 C 
ATOM     16  H10 MNM d          25.027  49.515  -2.501  0.00  0.00     0.074 H 
ATOM     17  H11 MNM d          25.518  48.552  -3.936  0.00  0.00     0.074 H 
BRANCH  15  18
ATOM     18  O11 MNM d          26.887  49.956  -3.286  0.00  0.00    -0.400 OA
ATOM     19  H14 MNM d          27.449  50.057  -2.526  0.00  0.00     0.209 HD
ENDBRANCH  15  18
ENDBRANCH   5  15
BRANCH   3  20
ATOM     20  O7  MNM d          26.710  49.515  -0.223  0.00  0.00    -0.392 OA
ATOM     21  H8  MNM d          25.929  49.203   0.218  0.00  0.00     0.210 HD
ENDBRANCH   3  20
BRANCH   1  22
ATOM     22  O4  MNM d          29.182  47.519   0.354  0.00  0.00    -0.389 OA
ATOM     23  H4  MNM d          29.498  46.774   0.852  0.00  0.00     0.210 HD
ENDBRANCH   1  22
BRANCH   2  24
ATOM     24  O5  MNM d          28.332  44.911   0.089  0.00  0.00    -0.368 OA
ATOM     25  H5  MNM d          27.775  44.295   0.550  0.00  0.00     0.212 HD
ENDBRANCH   2  24
TORSDOF 5
ENDMDL
MODEL 2
REMARK VINA RESULT:      -5.9      1.771      2.555
REMARK  5 active torsions:
REMARK  status: ('A' for Active; 'I' for Inactive)
REMARK    1  A    between atoms: C1_1  and  O4_4 
REMARK    2  A    between atoms: C2_2  and  O5_5 
REMARK    3  A    between atoms: C3_3  and  O7_7 
REMARK    4  A    between atoms: C8_8  and  C9_9 
REMARK    5  A    between atoms: C9_9  and  O11_11 
ROOT
ATOM      1  C1  MNM d          28.535  46.137  -1.225  0.00  0.00     0.110 C 
ATOM      2  C2  MNM d          28.950  47.252  -0.251  0.00  0.00     0.217 C 
ATOM      3  C3  MNM d          27.443  46.625  -2.201  0.00  0.00     0.071 C 
ATOM      4  N6  MNM d          27.813  48.049   0.194  0.00  0.00    -0.046 N 
ATOM      5  C8  MNM d          27.270  48.169  -2.224  0.00  0.00     0.017 C 
ATOM      6  C10 MNM d          26.895  48.617  -0.805  0.00  0.00     0.092 C 
ATOM      7  H1  MNM d          29.419  45.843  -1.809  0.00  0.00     0.093 H 
ATOM      8  H2  MNM d          29.663  47.901  -0.779  0.00  0.00     0.133 H 
ATOM      9  H3  MNM d          26.488  46.205  -1.850  0.00  0.00     0.087 H 
ATOM     10  H6  MNM d          28.185  48.822   0.723  0.00  0.00     0.280 HD
ATOM     11  H7  MNM d          27.262  47.462   0.800  0.00  0.00     0.280 HD
ATOM     12  H9  MNM d          28.241  48.617  -2.483  0.00  0.00     0.049 H 
ATOM     13  H12 MNM d          26.941  49.714  -0.751  0.00  0.00     0.076 H 
ATOM     14  H13 MNM d          25.871  48.282  -0.582  0.00  0.00     0.076 H 
ENDROOT
BRANCH   5  15
ATOM     15  C9  MNM d          26.244  48.658  -3.280  0.00  0.00     0.024 C 
ATOM     16  H10 MNM d          25.870  47.793  -3.848  0.00  0.00     0.074 H 
ATOM     17  H11 MNM d          26.739  49.360  -3.967  0.00  0.00     0.074 H 
BRANCH  15  18
ATOM     18  O11 MNM d          25.148  49.313  -2.649  0.00  0.00    -0.400 OA
ATOM     19  H14 MNM d          24.693  48.697  -2.087  0.00  0.00     0.209 HD
ENDBRANCH  15  18
ENDBRANCH   5  15
BRANCH   3  20
ATOM     20  O7  MNM d          27.682  46.100  -3.517  0.00  0.00    -0.392 OA
ATOM     21  H8  MNM d          26.896  45.673  -3.836  0.00  0.00     0.210 HD
ENDBRANCH   3  20
BRANCH   1  22
ATOM     22  O4  MNM d          28.056  44.988  -0.509  0.00  0.00    -0.389 OA
ATOM     23  H4  MNM d          28.262  44.202  -1.002  0.00  0.00     0.210 HD
ENDBRANCH   1  22
BRANCH   2  24
ATOM     24  O5  MNM d          29.554  46.783   0.949  0.00  0.00    -0.368 OA
ATOM     25  H5  MNM d          28.928  46.842   1.661  0.00  0.00     0.212 HD
ENDBRANCH   2  24
TORSDOF 5
ENDMDL
MODEL 3
REMARK VINA RESULT:      -5.7      1.781      4.250
REMARK  5 active torsions:
REMARK  status: ('A' for Active; 'I' for Inactive)
REMARK    1  A    between atoms: C1_1  and  O4_4 
REMARK    2  A    between atoms: C2_2  and  O5_5 
REMARK    3  A    between atoms: C3_3  and  O7_7 
REMARK    4  A    between atoms: C8_8  and  C9_9 
REMARK    5  A    between atoms: C9_9  and  O11_11 
ROOT
ATOM      1  C1  MNM d          27.467  47.961  -3.256  0.00  0.00     0.110 C 
ATOM      2  C2  MNM d          26.493  48.985  -2.650  0.00  0.00     0.217 C 
ATOM      3  C3  MNM d          27.969  46.966  -2.188  0.00  0.00     0.071 C 
ATOM      4  N6  MNM d          26.902  49.418  -1.319  0.00  0.00    -0.046 N 
ATOM      5  C8  MNM d          27.138  46.988  -0.874  0.00  0.00     0.017 C 
ATOM      6  C10 MNM d          27.217  48.408  -0.297  0.00  0.00     0.092 C 
ATOM      7  H1  MNM d          26.934  47.398  -4.035  0.00  0.00     0.093 H 
ATOM      8  H2  MNM d          25.506  48.502  -2.587  0.00  0.00     0.133 H 
ATOM      9  H3  MNM d          28.991  47.272  -1.920  0.00  0.00     0.087 H 
ATOM     10  H6  MNM d          26.154  49.984  -0.951  0.00  0.00     0.280 HD
ATOM     11  H7  MNM d          27.726  49.985  -1.436  0.00  0.00     0.280 HD
ATOM     12  H9  MNM d          26.089  46.777  -1.131  0.00  0.00     0.049 H 
ATOM     13  H12 MNM d          26.498  48.500   0.531  0.00  0.00     0.076 H 
ATOM     14  H13 MNM d          28.235  48.586   0.081  0.00  0.00     0.076 H 
ENDROOT
BRANCH   5  15
ATOM     15  C9  MNM d          27.584  45.915   0.154  0.00  0.00     0.024 C 
ATOM     16  H10 MNM d          27.308  44.918  -0.221  0.00  0.00     0.074 H 
ATOM     17  H11 MNM d          27.077  46.099   1.112  0.00  0.00     0.074 H 
BRANCH  15  18
ATOM     18  O11 MNM d          28.994  45.967   0.352  0.00  0.00    -0.400 OA
ATOM     19  H14 MNM d          29.302  46.853   0.199  0.00  0.00     0.209 HD
ENDBRANCH  15  18
ENDBRANCH   5  15
BRANCH   3  20
ATOM     20  O7  MNM d          28.048  45.642  -2.740  0.00  0.00    -0.392 OA
ATOM     21  H8  MNM d          28.906  45.275  -2.559  0.00  0.00     0.210 HD
ENDBRANCH   3  20
BRANCH   1  22
ATOM     22  O4  MNM d          28.590  48.623  -3.857  0.00  0.00    -0.389 OA
ATOM     23  H4  MNM d          28.827  49.380  -3.333  0.00  0.00     0.210 HD
ENDBRANCH   1  22
BRANCH   2  24
ATOM     24  O5  MNM d          26.369  50.188  -3.399  0.00  0.00    -0.368 OA
ATOM     25  H5  MNM d          27.091  50.252  -4.013  0.00  0.00     0.212 HD
ENDBRANCH   2  24
TORSDOF 5
ENDMDL
