MODEL 1
REMARK VINA RESULT:      -7.4      0.000      0.000
REMARK  10 active torsions:
REMARK  status: ('A' for Active; 'I' for Inactive)
REMARK    1  A    between atoms: C12_12  and  C21_21 
REMARK    2  A    between atoms: C13_13  and  C22_22 
REMARK    3  A    between atoms: C24_24  and  C14_14 
REMARK    4  A    between atoms: C25_25  and  C15_15 
REMARK    5  A    between atoms: C26_26  and  C16_16 
REMARK    6  A    between atoms: C27_27  and  C20_20 
REMARK       I    between atoms: C21_21  and  N28_28 
REMARK    7  A    between atoms: N28_28  and  C24_24 
REMARK    8  A    between atoms: N29_29  and  C25_25 
REMARK    9  A    between atoms: N29_29  and  C26_26 
REMARK   10  A    between atoms: C27_27  and  N29_29 
ROOT
ATOM      1  C25 N44 d         -10.216  48.870   1.493  0.00  0.00     0.109 C 
ATOM      2  H19 N44 d          -9.190  48.513   1.319  0.00  0.00     0.083 H 
ATOM      3  H20 N44 d         -10.282  49.937   1.234  0.00  0.00     0.083 H 
ENDROOT
BRANCH   1   4
ATOM      4  C15 N44 d         -10.512  48.730   2.945  0.00  0.00    -0.017 A 
ATOM      5  C9  N44 d         -11.615  49.397   3.444  0.00  0.00    -0.074 A 
ATOM      6  C5  N44 d         -11.955  49.320   4.783  0.00  0.00    -0.082 A 
ATOM      7  H9  N44 d         -12.225  49.991   2.774  0.00  0.00     0.084 H 
ATOM      8  C2  N44 d         -11.170  48.567   5.621  0.00  0.00    -0.082 A 
ATOM      9  H5  N44 d         -12.823  49.845   5.164  0.00  0.00     0.083 H 
ATOM     10  C6  N44 d         -10.065  47.894   5.134  0.00  0.00    -0.067 A 
ATOM     11  H2  N44 d         -11.418  48.499   6.674  0.00  0.00     0.083 H 
ATOM     12  C12 N44 d          -9.725  47.964   3.794  0.00  0.00     0.040 A 
ATOM     13  H6  N44 d          -9.457  47.304   5.811  0.00  0.00     0.085 H 
BRANCH  12  14
ATOM     14  C21 N44 d          -8.519  47.229   3.308  0.00  0.00     0.252 C 
ATOM     15  N28 N44 d          -8.572  45.843   3.244  0.00  0.00    -0.353 N 
ATOM     16  H25 N44 d          -9.408  45.364   3.514  0.00  0.00     0.163 HD
ATOM     17  O31 N44 d          -7.524  47.861   2.992  0.00  0.00    -0.268 OA
BRANCH  15  18
ATOM     18  C24 N44 d          -7.423  45.088   2.788  0.00  0.00     0.019 C 
ATOM     19  H17 N44 d          -6.588  45.779   2.604  0.00  0.00     0.071 H 
ATOM     20  H18 N44 d          -7.136  44.365   3.566  0.00  0.00     0.071 H 
BRANCH  18  21
ATOM     21  C14 N44 d          -7.735  44.350   1.524  0.00  0.00    -0.041 A 
ATOM     22  C7  N44 d          -7.953  42.990   1.544  0.00  0.00    -0.075 A 
ATOM     23  C3  N44 d          -8.258  42.310   0.388  0.00  0.00    -0.082 A 
ATOM     24  H7  N44 d          -7.884  42.450   2.481  0.00  0.00     0.084 H 
ATOM     25  C1  N44 d          -8.343  42.987  -0.810  0.00  0.00    -0.083 A 
ATOM     26  H3  N44 d          -8.431  41.240   0.419  0.00  0.00     0.083 H 
ATOM     27  C4  N44 d          -8.107  44.343  -0.843  0.00  0.00    -0.082 A 
ATOM     28  H1  N44 d          -8.595  42.455  -1.720  0.00  0.00     0.083 H 
ATOM     29  C8  N44 d          -7.810  45.023   0.319  0.00  0.00    -0.075 A 
ATOM     30  H4  N44 d          -8.155  44.877  -1.785  0.00  0.00     0.083 H 
ATOM     31  H8  N44 d          -7.635  46.093   0.288  0.00  0.00     0.084 H 
ENDBRANCH  18  21
ENDBRANCH  15  18
ENDBRANCH  12  14
ENDBRANCH   1   4
BRANCH   1  32
ATOM     32  N29 N44 d         -11.124  48.121   0.585  0.00  0.00    -0.060 N 
ATOM     33  H26 N44 d         -12.044  48.301   0.955  0.00  0.00     0.281 HD
BRANCH  32  34
ATOM     34  C26 N44 d         -11.019  46.619   0.632  0.00  0.00     0.109 C 
ATOM     35  H21 N44 d          -9.987  46.321   0.396  0.00  0.00     0.083 H 
ATOM     36  H22 N44 d         -11.279  46.270   1.642  0.00  0.00     0.083 H 
BRANCH  34  37
ATOM     37  C16 N44 d         -11.954  45.994  -0.364  0.00  0.00    -0.013 A 
ATOM     38  C10 N44 d         -11.414  45.566  -1.577  0.00  0.00    -0.071 A 
ATOM     39  C11 N44 d         -12.207  44.983  -2.557  0.00  0.00    -0.047 A 
ATOM     40  H10 N44 d         -10.353  45.692  -1.759  0.00  0.00     0.084 H 
ATOM     41  C17 N44 d         -13.547  44.854  -2.271  0.00  0.00     0.106 A 
ATOM     42  H11 N44 d         -11.791  44.645  -3.500  0.00  0.00     0.087 H 
ATOM     43  C18 N44 d         -14.089  45.272  -1.082  0.00  0.00     0.122 A 
ATOM     44  O33 N44 d         -14.477  44.309  -3.122  0.00  0.00    -0.323 OA
ATOM     45  C13 N44 d         -13.318  45.860  -0.089  0.00  0.00     0.085 A 
ATOM     46  O34 N44 d         -15.465  45.040  -1.039  0.00  0.00    -0.322 OA
ATOM     47  C23 N44 d         -15.677  44.430  -2.325  0.00  0.00     0.115 A 
ATOM     48  H15 N44 d         -16.092  43.423  -2.168  0.00  0.00     0.118 H 
ATOM     49  H16 N44 d         -16.402  45.042  -2.883  0.00  0.00     0.118 H 
BRANCH  45  50
ATOM     50  C22 N44 d         -13.924  46.296   1.221  0.00  0.00     0.212 C 
ATOM     51  O30 N44 d         -14.317  45.377   1.992  0.00  0.00    -0.644 OA
ATOM     52  O32 N44 d         -13.983  47.525   1.525  0.00  0.00    -0.644 OA
ENDBRANCH  45  50
ENDBRANCH  34  37
ENDBRANCH  32  34
BRANCH  32  53
ATOM     53  C27 N44 d         -11.154  48.728  -0.788  0.00  0.00     0.099 C 
ATOM     54  H23 N44 d         -11.741  48.067  -1.443  0.00  0.00     0.082 H 
ATOM     55  H24 N44 d         -11.647  49.709  -0.719  0.00  0.00     0.082 H 
BRANCH  53  56
ATOM     56  C20 N44 d          -9.812  48.924  -1.406  0.00  0.00    -0.087 C 
ATOM     57  C19 N44 d          -9.401  50.122  -1.839  0.00  0.00    -0.123 C 
ATOM     58  H12 N44 d          -8.414  50.230  -2.286  0.00  0.00     0.066 H 
ATOM     59  H13 N44 d         -10.054  50.988  -1.745  0.00  0.00     0.066 H 
ATOM     60  H14 N44 d          -9.147  48.069  -1.508  0.00  0.00     0.078 H 
ENDBRANCH  53  56
ENDBRANCH  32  53
ENDBRANCH   1  32
TORSDOF 10
ENDMDL
