MODEL 1
REMARK VINA RESULT:      -7.5      0.000      0.000
REMARK  10 active torsions:
REMARK  status: ('A' for Active; 'I' for Inactive)
REMARK    1  A    between atoms: C12_12  and  C21_21 
REMARK    2  A    between atoms: C13_13  and  C22_22 
REMARK    3  A    between atoms: C24_24  and  C14_14 
REMARK    4  A    between atoms: C25_25  and  C15_15 
REMARK    5  A    between atoms: C26_26  and  C16_16 
REMARK    6  A    between atoms: C27_27  and  C20_20 
REMARK       I    between atoms: C21_21  and  N28_28 
REMARK    7  A    between atoms: N28_28  and  C24_24 
REMARK    8  A    between atoms: N29_29  and  C25_25 
REMARK    9  A    between atoms: N29_29  and  C26_26 
REMARK   10  A    between atoms: C27_27  and  N29_29 
ROOT
ATOM      1  C25 N44 d         -10.339  48.821   1.678  0.00  0.00     0.109 C 
ATOM      2  H19 N44 d          -9.328  48.452   1.448  0.00  0.00     0.083 H 
ATOM      3  H20 N44 d         -10.407  49.888   1.418  0.00  0.00     0.083 H 
ENDROOT
BRANCH   1   4
ATOM      4  C15 N44 d         -10.554  48.689   3.146  0.00  0.00    -0.017 A 
ATOM      5  C9  N44 d         -11.577  49.424   3.713  0.00  0.00    -0.074 A 
ATOM      6  C5  N44 d         -11.839  49.360   5.071  0.00  0.00    -0.082 A 
ATOM      7  H9  N44 d         -12.186  50.062   3.084  0.00  0.00     0.084 H 
ATOM      8  C2  N44 d         -11.055  48.550   5.856  0.00  0.00    -0.082 A 
ATOM      9  H5  N44 d         -12.645  49.937   5.506  0.00  0.00     0.083 H 
ATOM     10  C6  N44 d         -10.029  47.809   5.300  0.00  0.00    -0.067 A 
ATOM     11  H2  N44 d         -11.243  48.490   6.921  0.00  0.00     0.083 H 
ATOM     12  C12 N44 d          -9.768  47.867   3.942  0.00  0.00     0.040 A 
ATOM     13  H6  N44 d          -9.421  47.175   5.935  0.00  0.00     0.085 H 
BRANCH  12  14
ATOM     14  C21 N44 d          -8.646  47.058   3.379  0.00  0.00     0.252 C 
ATOM     15  N28 N44 d          -8.914  45.764   2.953  0.00  0.00    -0.353 N 
ATOM     16  H25 N44 d          -9.842  45.400   3.022  0.00  0.00     0.163 HD
ATOM     17  O31 N44 d          -7.530  47.549   3.319  0.00  0.00    -0.268 OA
BRANCH  15  18
ATOM     18  C24 N44 d          -7.854  44.939   2.410  0.00  0.00     0.019 C 
ATOM     19  H17 N44 d          -7.011  45.582   2.119  0.00  0.00     0.071 H 
ATOM     20  H18 N44 d          -7.523  44.226   3.180  0.00  0.00     0.071 H 
BRANCH  18  21
ATOM     21  C14 N44 d          -8.327  44.180   1.211  0.00  0.00    -0.041 A 
ATOM     22  C7  N44 d          -9.352  43.267   1.321  0.00  0.00    -0.075 A 
ATOM     23  C3  N44 d          -9.803  42.580   0.218  0.00  0.00    -0.082 A 
ATOM     24  H7  N44 d          -9.809  43.088   2.287  0.00  0.00     0.084 H 
ATOM     25  C1  N44 d          -9.226  42.797  -1.015  0.00  0.00    -0.083 A 
ATOM     26  H3  N44 d         -10.613  41.867   0.319  0.00  0.00     0.083 H 
ATOM     27  C4  N44 d          -8.188  43.694  -1.132  0.00  0.00    -0.082 A 
ATOM     28  H1  N44 d          -9.588  42.266  -1.888  0.00  0.00     0.083 H 
ATOM     29  C8  N44 d          -7.743  44.387  -0.025  0.00  0.00    -0.075 A 
ATOM     30  H4  N44 d          -7.718  43.855  -2.095  0.00  0.00     0.083 H 
ATOM     31  H8  N44 d          -6.932  45.099  -0.125  0.00  0.00     0.084 H 
ENDBRANCH  18  21
ENDBRANCH  15  18
ENDBRANCH  12  14
ENDBRANCH   1   4
BRANCH   1  32
ATOM     32  N29 N44 d         -11.304  48.079   0.826  0.00  0.00    -0.060 N 
ATOM     33  H26 N44 d         -12.181  48.167   1.314  0.00  0.00     0.281 HD
BRANCH  32  34
ATOM     34  C26 N44 d         -11.103  46.588   0.740  0.00  0.00     0.109 C 
ATOM     35  H21 N44 d         -10.058  46.378   0.473  0.00  0.00     0.083 H 
ATOM     36  H22 N44 d         -11.330  46.136   1.717  0.00  0.00     0.083 H 
BRANCH  34  37
ATOM     37  C16 N44 d         -12.008  45.994  -0.302  0.00  0.00    -0.013 A 
ATOM     38  C10 N44 d         -11.438  45.634  -1.523  0.00  0.00    -0.071 A 
ATOM     39  C11 N44 d         -12.202  45.083  -2.544  0.00  0.00    -0.047 A 
ATOM     40  H10 N44 d         -10.377  45.786  -1.679  0.00  0.00     0.084 H 
ATOM     41  C17 N44 d         -13.545  44.917  -2.291  0.00  0.00     0.106 A 
ATOM     42  H11 N44 d         -11.762  44.797  -3.493  0.00  0.00     0.087 H 
ATOM     43  C18 N44 d         -14.117  45.269  -1.094  0.00  0.00     0.122 A 
ATOM     44  O33 N44 d         -14.448  44.396  -3.184  0.00  0.00    -0.323 OA
ATOM     45  C13 N44 d         -13.374  45.824  -0.060  0.00  0.00     0.085 A 
ATOM     46  O34 N44 d         -15.488  45.011  -1.088  0.00  0.00    -0.322 OA
ATOM     47  C23 N44 d         -15.665  44.459  -2.406  0.00  0.00     0.115 A 
ATOM     48  H15 N44 d         -16.064  43.438  -2.303  0.00  0.00     0.118 H 
ATOM     49  H16 N44 d         -16.390  45.084  -2.948  0.00  0.00     0.118 H 
BRANCH  45  50
ATOM     50  C22 N44 d         -14.013  46.187   1.257  0.00  0.00     0.212 C 
ATOM     51  O30 N44 d         -14.137  47.419   1.500  0.00  0.00    -0.644 OA
ATOM     52  O32 N44 d         -14.433  45.282   2.039  0.00  0.00    -0.644 OA
ENDBRANCH  45  50
ENDBRANCH  34  37
ENDBRANCH  32  34
BRANCH  32  53
ATOM     53  C27 N44 d         -11.538  48.780  -0.481  0.00  0.00     0.099 C 
ATOM     54  H23 N44 d         -11.611  48.018  -1.271  0.00  0.00     0.082 H 
ATOM     55  H24 N44 d         -12.489  49.328  -0.411  0.00  0.00     0.082 H 
BRANCH  53  56
ATOM     56  C20 N44 d         -10.470  49.747  -0.863  0.00  0.00    -0.087 C 
ATOM     57  C19 N44 d          -9.670  49.537  -1.915  0.00  0.00    -0.123 C 
ATOM     58  H12 N44 d          -8.899  50.265  -2.166  0.00  0.00     0.066 H 
ATOM     59  H13 N44 d          -9.788  48.639  -2.519  0.00  0.00     0.066 H 
ATOM     60  H14 N44 d         -10.338  50.650  -0.269  0.00  0.00     0.078 H 
ENDBRANCH  53  56
ENDBRANCH  32  53
ENDBRANCH   1  32
TORSDOF 10
ENDMDL
MODEL 2
REMARK VINA RESULT:      -7.3      2.239      4.805
REMARK  10 active torsions:
REMARK  status: ('A' for Active; 'I' for Inactive)
REMARK    1  A    between atoms: C12_12  and  C21_21 
REMARK    2  A    between atoms: C13_13  and  C22_22 
REMARK    3  A    between atoms: C24_24  and  C14_14 
REMARK    4  A    between atoms: C25_25  and  C15_15 
REMARK    5  A    between atoms: C26_26  and  C16_16 
REMARK    6  A    between atoms: C27_27  and  C20_20 
REMARK       I    between atoms: C21_21  and  N28_28 
REMARK    7  A    between atoms: N28_28  and  C24_24 
REMARK    8  A    between atoms: N29_29  and  C25_25 
REMARK    9  A    between atoms: N29_29  and  C26_26 
REMARK   10  A    between atoms: C27_27  and  N29_29 
ROOT
ATOM      1  C25 N44 d          -7.950  46.060   0.873  0.00  0.00     0.109 C 
ATOM      2  H19 N44 d          -8.994  45.740   0.737  0.00  0.00     0.083 H 
ATOM      3  H20 N44 d          -7.494  46.249  -0.110  0.00  0.00     0.083 H 
ENDROOT
BRANCH   1   4
ATOM      4  C15 N44 d          -7.207  44.943   1.519  0.00  0.00    -0.017 A 
ATOM      5  C9  N44 d          -6.463  45.233   2.647  0.00  0.00    -0.074 A 
ATOM      6  C5  N44 d          -5.741  44.251   3.302  0.00  0.00    -0.082 A 
ATOM      7  H9  N44 d          -6.444  46.249   3.025  0.00  0.00     0.084 H 
ATOM      8  C2  N44 d          -5.772  42.970   2.808  0.00  0.00    -0.082 A 
ATOM      9  H5  N44 d          -5.164  44.488   4.187  0.00  0.00     0.083 H 
ATOM     10  C6  N44 d          -6.513  42.667   1.682  0.00  0.00    -0.067 A 
ATOM     11  H2  N44 d          -5.209  42.189   3.307  0.00  0.00     0.083 H 
ATOM     12  C12 N44 d          -7.239  43.645   1.026  0.00  0.00     0.040 A 
ATOM     13  H6  N44 d          -6.524  41.650   1.307  0.00  0.00     0.085 H 
BRANCH  12  14
ATOM     14  C21 N44 d          -8.022  43.280  -0.192  0.00  0.00     0.252 C 
ATOM     15  N28 N44 d          -9.290  42.740  -0.025  0.00  0.00    -0.353 N 
ATOM     16  H25 N44 d          -9.659  42.612   0.895  0.00  0.00     0.163 HD
ATOM     17  O31 N44 d          -7.525  43.456  -1.293  0.00  0.00    -0.268 OA
BRANCH  15  18
ATOM     18  C24 N44 d         -10.081  42.362  -1.179  0.00  0.00     0.019 C 
ATOM     19  H17 N44 d          -9.413  42.218  -2.041  0.00  0.00     0.071 H 
ATOM     20  H18 N44 d         -10.607  41.420  -0.961  0.00  0.00     0.071 H 
BRANCH  18  21
ATOM     21  C14 N44 d         -11.086  43.420  -1.509  0.00  0.00    -0.041 A 
ATOM     22  C7  N44 d         -10.705  44.740  -1.605  0.00  0.00    -0.075 A 
ATOM     23  C3  N44 d         -11.620  45.715  -1.927  0.00  0.00    -0.082 A 
ATOM     24  H7  N44 d          -9.672  45.014  -1.425  0.00  0.00     0.084 H 
ATOM     25  C1  N44 d         -12.938  45.377  -2.153  0.00  0.00    -0.083 A 
ATOM     26  H3  N44 d         -11.306  46.749  -2.002  0.00  0.00     0.083 H 
ATOM     27  C4  N44 d         -13.332  44.062  -2.041  0.00  0.00    -0.082 A 
ATOM     28  H1  N44 d         -13.659  46.142  -2.418  0.00  0.00     0.083 H 
ATOM     29  C8  N44 d         -12.409  43.087  -1.726  0.00  0.00    -0.075 A 
ATOM     30  H4  N44 d         -14.370  43.794  -2.200  0.00  0.00     0.083 H 
ATOM     31  H8  N44 d         -12.724  42.052  -1.649  0.00  0.00     0.084 H 
ENDBRANCH  18  21
ENDBRANCH  15  18
ENDBRANCH  12  14
ENDBRANCH   1   4
BRANCH   1  32
ATOM     32  N29 N44 d          -7.956  47.340   1.629  0.00  0.00    -0.060 N 
ATOM     33  H26 N44 d          -7.069  47.345   2.109  0.00  0.00     0.281 HD
BRANCH  32  34
ATOM     34  C26 N44 d          -8.957  47.443   2.750  0.00  0.00     0.109 C 
ATOM     35  H21 N44 d          -8.577  46.899   3.626  0.00  0.00     0.083 H 
ATOM     36  H22 N44 d          -9.100  48.502   3.011  0.00  0.00     0.083 H 
BRANCH  34  37
ATOM     37  C16 N44 d         -10.275  46.853   2.335  0.00  0.00    -0.013 A 
ATOM     38  C10 N44 d         -10.361  45.464   2.244  0.00  0.00    -0.071 A 
ATOM     39  C11 N44 d         -11.539  44.835   1.863  0.00  0.00    -0.047 A 
ATOM     40  H10 N44 d          -9.490  44.862   2.477  0.00  0.00     0.084 H 
ATOM     41  C17 N44 d         -12.610  45.650   1.575  0.00  0.00     0.106 A 
ATOM     42  H11 N44 d         -11.612  43.755   1.795  0.00  0.00     0.087 H 
ATOM     43  C18 N44 d         -12.536  47.018   1.659  0.00  0.00     0.122 A 
ATOM     44  O33 N44 d         -13.845  45.203   1.177  0.00  0.00    -0.323 OA
ATOM     45  C13 N44 d         -11.369  47.669   2.036  0.00  0.00     0.085 A 
ATOM     46  O34 N44 d         -13.748  47.616   1.311  0.00  0.00    -0.322 OA
ATOM     47  C23 N44 d         -14.549  46.457   1.020  0.00  0.00     0.115 A 
ATOM     48  H15 N44 d         -15.415  46.455   1.699  0.00  0.00     0.118 H 
ATOM     49  H16 N44 d         -14.899  46.529  -0.020  0.00  0.00     0.118 H 
BRANCH  45  50
ATOM     50  C22 N44 d         -11.309  49.172   2.144  0.00  0.00     0.212 C 
ATOM     51  O30 N44 d         -11.428  49.657   3.303  0.00  0.00    -0.644 OA
ATOM     52  O32 N44 d         -11.106  49.883   1.114  0.00  0.00    -0.644 OA
ENDBRANCH  45  50
ENDBRANCH  34  37
ENDBRANCH  32  34
BRANCH  32  53
ATOM     53  C27 N44 d          -7.884  48.524   0.709  0.00  0.00     0.099 C 
ATOM     54  H23 N44 d          -8.455  49.347   1.164  0.00  0.00     0.082 H 
ATOM     55  H24 N44 d          -6.829  48.820   0.612  0.00  0.00     0.082 H 
BRANCH  53  56
ATOM     56  C20 N44 d          -8.427  48.279  -0.657  0.00  0.00    -0.087 C 
ATOM     57  C19 N44 d          -9.062  49.233  -1.347  0.00  0.00    -0.123 C 
ATOM     58  H12 N44 d          -9.447  49.020  -2.343  0.00  0.00     0.066 H 
ATOM     59  H13 N44 d          -9.195  50.222  -0.913  0.00  0.00     0.066 H 
ATOM     60  H14 N44 d          -8.303  47.295  -1.106  0.00  0.00     0.078 H 
ENDBRANCH  53  56
ENDBRANCH  32  53
ENDBRANCH   1  32
TORSDOF 10
ENDMDL
MODEL 3
REMARK VINA RESULT:      -7.3      1.911      3.495
REMARK  10 active torsions:
REMARK  status: ('A' for Active; 'I' for Inactive)
REMARK    1  A    between atoms: C12_12  and  C21_21 
REMARK    2  A    between atoms: C13_13  and  C22_22 
REMARK    3  A    between atoms: C24_24  and  C14_14 
REMARK    4  A    between atoms: C25_25  and  C15_15 
REMARK    5  A    between atoms: C26_26  and  C16_16 
REMARK    6  A    between atoms: C27_27  and  C20_20 
REMARK       I    between atoms: C21_21  and  N28_28 
REMARK    7  A    between atoms: N28_28  and  C24_24 
REMARK    8  A    between atoms: N29_29  and  C25_25 
REMARK    9  A    between atoms: N29_29  and  C26_26 
REMARK   10  A    between atoms: C27_27  and  N29_29 
ROOT
ATOM      1  C25 N44 d          -8.976  48.539   1.487  0.00  0.00     0.109 C 
ATOM      2  H19 N44 d          -9.450  49.487   1.785  0.00  0.00     0.083 H 
ATOM      3  H20 N44 d          -8.473  48.092   2.358  0.00  0.00     0.083 H 
ENDROOT
BRANCH   1   4
ATOM      4  C15 N44 d          -7.939  48.847   0.464  0.00  0.00    -0.017 A 
ATOM      5  C9  N44 d          -8.042  50.045  -0.216  0.00  0.00    -0.074 A 
ATOM      6  C5  N44 d          -7.120  50.402  -1.184  0.00  0.00    -0.082 A 
ATOM      7  H9  N44 d          -8.860  50.718   0.014  0.00  0.00     0.084 H 
ATOM      8  C2  N44 d          -6.092  49.537  -1.467  0.00  0.00    -0.082 A 
ATOM      9  H5  N44 d          -7.208  51.346  -1.709  0.00  0.00     0.083 H 
ATOM     10  C6  N44 d          -5.977  48.336  -0.793  0.00  0.00    -0.067 A 
ATOM     11  H2  N44 d          -5.363  49.799  -2.226  0.00  0.00     0.083 H 
ATOM     12  C12 N44 d          -6.894  47.978   0.179  0.00  0.00     0.040 A 
ATOM     13  H6  N44 d          -5.158  47.666  -1.030  0.00  0.00     0.085 H 
BRANCH  12  14
ATOM     14  C21 N44 d          -6.740  46.668   0.880  0.00  0.00     0.252 C 
ATOM     15  N28 N44 d          -7.197  45.521   0.244  0.00  0.00    -0.353 N 
ATOM     16  H25 N44 d          -7.610  45.587  -0.663  0.00  0.00     0.163 HD
ATOM     17  O31 N44 d          -6.229  46.643   1.989  0.00  0.00    -0.268 OA
BRANCH  15  18
ATOM     18  C24 N44 d          -7.077  44.230   0.891  0.00  0.00     0.019 C 
ATOM     19  H17 N44 d          -6.045  43.867   0.780  0.00  0.00     0.071 H 
ATOM     20  H18 N44 d          -7.314  44.340   1.960  0.00  0.00     0.071 H 
BRANCH  18  21
ATOM     21  C14 N44 d          -8.014  43.237   0.281  0.00  0.00    -0.041 A 
ATOM     22  C7  N44 d          -8.189  41.996   0.855  0.00  0.00    -0.075 A 
ATOM     23  C3  N44 d          -9.063  41.086   0.308  0.00  0.00    -0.082 A 
ATOM     24  H7  N44 d          -7.631  41.735   1.747  0.00  0.00     0.084 H 
ATOM     25  C1  N44 d          -9.773  41.406  -0.829  0.00  0.00    -0.083 A 
ATOM     26  H3  N44 d          -9.193  40.115   0.772  0.00  0.00     0.083 H 
ATOM     27  C4  N44 d          -9.591  42.636  -1.421  0.00  0.00    -0.082 A 
ATOM     28  H1  N44 d         -10.471  40.695  -1.255  0.00  0.00     0.083 H 
ATOM     29  C8  N44 d          -8.720  43.550  -0.866  0.00  0.00    -0.075 A 
ATOM     30  H4  N44 d         -10.133  42.887  -2.325  0.00  0.00     0.083 H 
ATOM     31  H8  N44 d          -8.588  44.520  -1.331  0.00  0.00     0.084 H 
ENDBRANCH  18  21
ENDBRANCH  15  18
ENDBRANCH  12  14
ENDBRANCH   1   4
BRANCH   1  32
ATOM     32  N29 N44 d         -10.046  47.608   1.046  0.00  0.00    -0.060 N 
ATOM     33  H26 N44 d          -9.569  46.950   0.449  0.00  0.00     0.281 HD
BRANCH  32  34
ATOM     34  C26 N44 d         -11.103  48.190   0.145  0.00  0.00     0.109 C 
ATOM     35  H21 N44 d         -11.839  48.735   0.755  0.00  0.00     0.083 H 
ATOM     36  H22 N44 d         -10.631  48.884  -0.565  0.00  0.00     0.083 H 
BRANCH  34  37
ATOM     37  C16 N44 d         -11.803  47.101  -0.618  0.00  0.00    -0.013 A 
ATOM     38  C10 N44 d         -11.082  46.448  -1.619  0.00  0.00    -0.071 A 
ATOM     39  C11 N44 d         -11.652  45.433  -2.377  0.00  0.00    -0.047 A 
ATOM     40  H10 N44 d         -10.055  46.739  -1.809  0.00  0.00     0.084 H 
ATOM     41  C17 N44 d         -12.959  45.111  -2.093  0.00  0.00     0.106 A 
ATOM     42  H11 N44 d         -11.094  44.921  -3.153  0.00  0.00     0.087 H 
ATOM     43  C18 N44 d         -13.678  45.747  -1.112  0.00  0.00     0.122 A 
ATOM     44  O33 N44 d         -13.682  44.141  -2.744  0.00  0.00    -0.323 OA
ATOM     45  C13 N44 d         -13.131  46.765  -0.344  0.00  0.00     0.085 A 
ATOM     46  O34 N44 d         -14.978  45.245  -1.026  0.00  0.00    -0.322 OA
ATOM     47  C23 N44 d         -14.949  44.238  -2.054  0.00  0.00     0.115 A 
ATOM     48  H15 N44 d         -15.166  43.264  -1.591  0.00  0.00     0.118 H 
ATOM     49  H16 N44 d         -15.728  44.476  -2.793  0.00  0.00     0.118 H 
BRANCH  45  50
ATOM     50  C22 N44 d         -13.927  47.441   0.745  0.00  0.00     0.212 C 
ATOM     51  O30 N44 d         -14.208  46.737   1.754  0.00  0.00    -0.644 OA
ATOM     52  O32 N44 d         -14.245  48.664   0.644  0.00  0.00    -0.644 OA
ENDBRANCH  45  50
ENDBRANCH  34  37
ENDBRANCH  32  34
BRANCH  32  53
ATOM     53  C27 N44 d         -10.552  46.770   2.186  0.00  0.00     0.099 C 
ATOM     54  H23 N44 d         -10.073  47.124   3.110  0.00  0.00     0.082 H 
ATOM     55  H24 N44 d         -11.640  46.911   2.259  0.00  0.00     0.082 H 
BRANCH  53  56
ATOM     56  C20 N44 d         -10.279  45.312   2.049  0.00  0.00    -0.087 C 
ATOM     57  C19 N44 d         -11.252  44.433   1.777  0.00  0.00    -0.123 C 
ATOM     58  H12 N44 d         -11.018  43.374   1.684  0.00  0.00     0.066 H 
ATOM     59  H13 N44 d         -12.277  44.778   1.650  0.00  0.00     0.066 H 
ATOM     60  H14 N44 d          -9.260  44.950   2.173  0.00  0.00     0.078 H 
ENDBRANCH  53  56
ENDBRANCH  32  53
ENDBRANCH   1  32
TORSDOF 10
ENDMDL
MODEL 4
REMARK VINA RESULT:      -7.2      1.954      5.818
REMARK  10 active torsions:
REMARK  status: ('A' for Active; 'I' for Inactive)
REMARK    1  A    between atoms: C12_12  and  C21_21 
REMARK    2  A    between atoms: C13_13  and  C22_22 
REMARK    3  A    between atoms: C24_24  and  C14_14 
REMARK    4  A    between atoms: C25_25  and  C15_15 
REMARK    5  A    between atoms: C26_26  and  C16_16 
REMARK    6  A    between atoms: C27_27  and  C20_20 
REMARK       I    between atoms: C21_21  and  N28_28 
REMARK    7  A    between atoms: N28_28  and  C24_24 
REMARK    8  A    between atoms: N29_29  and  C25_25 
REMARK    9  A    between atoms: N29_29  and  C26_26 
REMARK   10  A    between atoms: C27_27  and  N29_29 
ROOT
ATOM      1  C25 N44 d         -10.055  44.560  -0.829  0.00  0.00     0.109 C 
ATOM      2  H19 N44 d         -10.234  44.320  -1.888  0.00  0.00     0.083 H 
ATOM      3  H20 N44 d          -9.487  45.499  -0.758  0.00  0.00     0.083 H 
ENDROOT
BRANCH   1   4
ATOM      4  C15 N44 d          -9.223  43.472  -0.245  0.00  0.00    -0.017 A 
ATOM      5  C9  N44 d          -9.683  42.175  -0.369  0.00  0.00    -0.074 A 
ATOM      6  C5  N44 d          -8.969  41.109   0.150  0.00  0.00    -0.082 A 
ATOM      7  H9  N44 d         -10.619  41.989  -0.882  0.00  0.00     0.084 H 
ATOM      8  C2  N44 d          -7.787  41.361   0.801  0.00  0.00    -0.082 A 
ATOM      9  H5  N44 d          -9.336  40.095   0.045  0.00  0.00     0.083 H 
ATOM     10  C6  N44 d          -7.316  42.654   0.931  0.00  0.00    -0.067 A 
ATOM     11  H2  N44 d          -7.217  40.538   1.218  0.00  0.00     0.083 H 
ATOM     12  C12 N44 d          -8.024  43.722   0.409  0.00  0.00     0.040 A 
ATOM     13  H6  N44 d          -6.381  42.833   1.449  0.00  0.00     0.085 H 
BRANCH  12  14
ATOM     14  C21 N44 d          -7.487  45.105   0.576  0.00  0.00     0.252 C 
ATOM     15  N28 N44 d          -7.643  46.005  -0.470  0.00  0.00    -0.353 N 
ATOM     16  H25 N44 d          -8.113  45.721  -1.305  0.00  0.00     0.163 HD
ATOM     17  O31 N44 d          -6.920  45.402   1.616  0.00  0.00    -0.268 OA
BRANCH  15  18
ATOM     18  C24 N44 d          -7.128  47.355  -0.355  0.00  0.00     0.019 C 
ATOM     19  H17 N44 d          -6.592  47.455   0.599  0.00  0.00     0.071 H 
ATOM     20  H18 N44 d          -6.436  47.547  -1.188  0.00  0.00     0.071 H 
BRANCH  18  21
ATOM     21  C14 N44 d          -8.239  48.357  -0.400  0.00  0.00    -0.041 A 
ATOM     22  C7  N44 d          -9.455  48.029  -0.958  0.00  0.00    -0.075 A 
ATOM     23  C3  N44 d         -10.484  48.940  -0.986  0.00  0.00    -0.082 A 
ATOM     24  H7  N44 d          -9.601  47.042  -1.381  0.00  0.00     0.084 H 
ATOM     25  C1  N44 d         -10.306  50.200  -0.455  0.00  0.00    -0.083 A 
ATOM     26  H3  N44 d         -11.437  48.667  -1.425  0.00  0.00     0.083 H 
ATOM     27  C4  N44 d          -9.088  50.544   0.088  0.00  0.00    -0.082 A 
ATOM     28  H1  N44 d         -11.120  50.916  -0.465  0.00  0.00     0.083 H 
ATOM     29  C8  N44 d          -8.061  49.625   0.121  0.00  0.00    -0.075 A 
ATOM     30  H4  N44 d          -8.937  51.539   0.490  0.00  0.00     0.083 H 
ATOM     31  H8  N44 d          -7.107  49.898   0.558  0.00  0.00     0.084 H 
ENDBRANCH  18  21
ENDBRANCH  15  18
ENDBRANCH  12  14
ENDBRANCH   1   4
BRANCH   1  32
ATOM     32  N29 N44 d         -11.374  44.771  -0.177  0.00  0.00    -0.060 N 
ATOM     33  H26 N44 d         -11.614  45.721  -0.411  0.00  0.00     0.281 HD
BRANCH  32  34
ATOM     34  C26 N44 d         -11.376  44.774   1.330  0.00  0.00     0.109 C 
ATOM     35  H21 N44 d         -12.333  44.371   1.691  0.00  0.00     0.083 H 
ATOM     36  H22 N44 d         -10.552  44.143   1.694  0.00  0.00     0.083 H 
BRANCH  34  37
ATOM     37  C16 N44 d         -11.199  46.171   1.853  0.00  0.00    -0.013 A 
ATOM     38  C10 N44 d          -9.964  46.499   2.413  0.00  0.00    -0.071 A 
ATOM     39  C11 N44 d          -9.715  47.766   2.926  0.00  0.00    -0.047 A 
ATOM     40  H10 N44 d          -9.181  45.750   2.450  0.00  0.00     0.084 H 
ATOM     41  C17 N44 d         -10.747  48.674   2.857  0.00  0.00     0.106 A 
ATOM     42  H11 N44 d          -8.755  48.027   3.359  0.00  0.00     0.087 H 
ATOM     43  C18 N44 d         -11.966  48.362   2.309  0.00  0.00     0.122 A 
ATOM     44  O33 N44 d         -10.682  49.965   3.319  0.00  0.00    -0.323 OA
ATOM     45  C13 N44 d         -12.239  47.102   1.793  0.00  0.00     0.085 A 
ATOM     46  O34 N44 d         -12.843  49.446   2.364  0.00  0.00    -0.322 OA
ATOM     47  C23 N44 d         -12.009  50.436   2.995  0.00  0.00     0.115 A 
ATOM     48  H15 N44 d         -11.916  51.295   2.313  0.00  0.00     0.118 H 
ATOM     49  H16 N44 d         -12.499  50.759   3.926  0.00  0.00     0.118 H 
BRANCH  45  50
ATOM     50  C22 N44 d         -13.576  46.780   1.175  0.00  0.00     0.212 C 
ATOM     51  O30 N44 d         -13.746  47.150  -0.020  0.00  0.00    -0.644 OA
ATOM     52  O32 N44 d         -14.448  46.134   1.830  0.00  0.00    -0.644 OA
ENDBRANCH  45  50
ENDBRANCH  34  37
ENDBRANCH  32  34
BRANCH  32  53
ATOM     53  C27 N44 d         -12.448  43.948  -0.827  0.00  0.00     0.099 C 
ATOM     54  H23 N44 d         -12.184  42.887  -0.714  0.00  0.00     0.082 H 
ATOM     55  H24 N44 d         -13.397  44.148  -0.307  0.00  0.00     0.082 H 
BRANCH  53  56
ATOM     56  C20 N44 d         -12.647  44.227  -2.278  0.00  0.00    -0.087 C 
ATOM     57  C19 N44 d         -13.496  45.168  -2.708  0.00  0.00    -0.123 C 
ATOM     58  H12 N44 d         -13.616  45.346  -3.775  0.00  0.00     0.066 H 
ATOM     59  H13 N44 d         -14.066  45.755  -1.990  0.00  0.00     0.066 H 
ATOM     60  H14 N44 d         -12.084  43.649  -3.009  0.00  0.00     0.078 H 
ENDBRANCH  53  56
ENDBRANCH  32  53
ENDBRANCH   1  32
TORSDOF 10
ENDMDL
MODEL 5
REMARK VINA RESULT:      -7.1      2.497      5.296
REMARK  10 active torsions:
REMARK  status: ('A' for Active; 'I' for Inactive)
REMARK    1  A    between atoms: C12_12  and  C21_21 
REMARK    2  A    between atoms: C13_13  and  C22_22 
REMARK    3  A    between atoms: C24_24  and  C14_14 
REMARK    4  A    between atoms: C25_25  and  C15_15 
REMARK    5  A    between atoms: C26_26  and  C16_16 
REMARK    6  A    between atoms: C27_27  and  C20_20 
REMARK       I    between atoms: C21_21  and  N28_28 
REMARK    7  A    between atoms: N28_28  and  C24_24 
REMARK    8  A    between atoms: N29_29  and  C25_25 
REMARK    9  A    between atoms: N29_29  and  C26_26 
REMARK   10  A    between atoms: C27_27  and  N29_29 
ROOT
ATOM      1  C25 N44 d          -9.903  45.380  -0.267  0.00  0.00     0.109 C 
ATOM      2  H19 N44 d         -10.599  46.127  -0.676  0.00  0.00     0.083 H 
ATOM      3  H20 N44 d          -8.904  45.533  -0.702  0.00  0.00     0.083 H 
ENDROOT
BRANCH   1   4
ATOM      4  C15 N44 d         -10.382  44.031  -0.678  0.00  0.00    -0.017 A 
ATOM      5  C9  N44 d         -11.691  43.917  -1.106  0.00  0.00    -0.074 A 
ATOM      6  C5  N44 d         -12.213  42.698  -1.501  0.00  0.00    -0.082 A 
ATOM      7  H9  N44 d         -12.321  44.799  -1.132  0.00  0.00     0.084 H 
ATOM      8  C2  N44 d         -11.404  41.589  -1.458  0.00  0.00    -0.082 A 
ATOM      9  H5  N44 d         -13.239  42.619  -1.838  0.00  0.00     0.083 H 
ATOM     10  C6  N44 d         -10.092  41.690  -1.033  0.00  0.00    -0.067 A 
ATOM     11  H2  N44 d         -11.797  40.625  -1.760  0.00  0.00     0.083 H 
ATOM     12  C12 N44 d          -9.566  42.909  -0.642  0.00  0.00     0.040 A 
ATOM     13  H6  N44 d          -9.469  40.804  -1.006  0.00  0.00     0.085 H 
BRANCH  12  14
ATOM     14  C21 N44 d          -8.146  42.976  -0.182  0.00  0.00     0.252 C 
ATOM     15  N28 N44 d          -7.824  42.421   1.049  0.00  0.00    -0.353 N 
ATOM     16  H25 N44 d          -8.535  41.984   1.599  0.00  0.00     0.163 HD
ATOM     17  O31 N44 d          -7.316  43.522  -0.892  0.00  0.00    -0.268 OA
BRANCH  15  18
ATOM     18  C24 N44 d          -6.462  42.472   1.539  0.00  0.00     0.019 C 
ATOM     19  H17 N44 d          -6.154  41.464   1.852  0.00  0.00     0.071 H 
ATOM     20  H18 N44 d          -5.802  42.824   0.732  0.00  0.00     0.071 H 
BRANCH  18  21
ATOM     21  C14 N44 d          -6.347  43.403   2.705  0.00  0.00    -0.041 A 
ATOM     22  C7  N44 d          -5.684  44.604   2.579  0.00  0.00    -0.075 A 
ATOM     23  C3  N44 d          -5.592  45.471   3.642  0.00  0.00    -0.082 A 
ATOM     24  H7  N44 d          -5.230  44.868   1.631  0.00  0.00     0.084 H 
ATOM     25  C1  N44 d          -6.161  45.142   4.854  0.00  0.00    -0.083 A 
ATOM     26  H3  N44 d          -5.070  46.414   3.528  0.00  0.00     0.083 H 
ATOM     27  C4  N44 d          -6.809  43.935   4.996  0.00  0.00    -0.082 A 
ATOM     28  H1  N44 d          -6.100  45.829   5.690  0.00  0.00     0.083 H 
ATOM     29  C8  N44 d          -6.907  43.072   3.925  0.00  0.00    -0.075 A 
ATOM     30  H4  N44 d          -7.243  43.663   5.951  0.00  0.00     0.083 H 
ATOM     31  H8  N44 d          -7.427  42.127   4.040  0.00  0.00     0.084 H 
ENDBRANCH  18  21
ENDBRANCH  15  18
ENDBRANCH  12  14
ENDBRANCH   1   4
BRANCH   1  32
ATOM     32  N29 N44 d          -9.804  45.598   1.200  0.00  0.00    -0.060 N 
ATOM     33  H26 N44 d          -9.609  44.682   1.572  0.00  0.00     0.281 HD
BRANCH  32  34
ATOM     34  C26 N44 d         -11.078  45.993   1.900  0.00  0.00     0.109 C 
ATOM     35  H21 N44 d         -11.825  45.197   1.767  0.00  0.00     0.083 H 
ATOM     36  H22 N44 d         -10.875  46.129   2.972  0.00  0.00     0.083 H 
BRANCH  34  37
ATOM     37  C16 N44 d         -11.615  47.276   1.331  0.00  0.00    -0.013 A 
ATOM     38  C10 N44 d         -10.747  48.366   1.264  0.00  0.00    -0.071 A 
ATOM     39  C11 N44 d         -11.161  49.591   0.757  0.00  0.00    -0.047 A 
ATOM     40  H10 N44 d          -9.727  48.255   1.615  0.00  0.00     0.084 H 
ATOM     41  C17 N44 d         -12.466  49.674   0.331  0.00  0.00     0.106 A 
ATOM     42  H11 N44 d         -10.488  50.440   0.700  0.00  0.00     0.087 H 
ATOM     43  C18 N44 d         -13.330  48.609   0.393  0.00  0.00     0.122 A 
ATOM     44  O33 N44 d         -13.047  50.804  -0.190  0.00  0.00    -0.323 OA
ATOM     45  C13 N44 d         -12.940  47.376   0.898  0.00  0.00     0.085 A 
ATOM     46  O34 N44 d         -14.594  48.948  -0.090  0.00  0.00    -0.322 OA
ATOM     47  C23 N44 d         -14.385  50.325  -0.453  0.00  0.00     0.115 A 
ATOM     48  H15 N44 d         -14.586  50.434  -1.529  0.00  0.00     0.118 H 
ATOM     49  H16 N44 d         -15.093  50.945   0.117  0.00  0.00     0.118 H 
BRANCH  45  50
ATOM     50  C22 N44 d         -13.894  46.208   0.941  0.00  0.00     0.212 C 
ATOM     51  O30 N44 d         -14.352  45.899   2.076  0.00  0.00    -0.644 OA
ATOM     52  O32 N44 d         -14.233  45.615  -0.127  0.00  0.00    -0.644 OA
ENDBRANCH  45  50
ENDBRANCH  34  37
ENDBRANCH  32  34
BRANCH  32  53
ATOM     53  C27 N44 d          -8.589  46.405   1.556  0.00  0.00     0.099 C 
ATOM     54  H23 N44 d          -8.924  47.386   1.924  0.00  0.00     0.082 H 
ATOM     55  H24 N44 d          -8.048  45.878   2.356  0.00  0.00     0.082 H 
BRANCH  53  56
ATOM     56  C20 N44 d          -7.644  46.630   0.426  0.00  0.00    -0.087 C 
ATOM     57  C19 N44 d          -7.234  47.857   0.080  0.00  0.00    -0.123 C 
ATOM     58  H12 N44 d          -6.543  47.985  -0.752  0.00  0.00     0.066 H 
ATOM     59  H13 N44 d          -7.592  48.725   0.630  0.00  0.00     0.066 H 
ATOM     60  H14 N44 d          -7.277  45.773  -0.135  0.00  0.00     0.078 H 
ENDBRANCH  53  56
ENDBRANCH  32  53
ENDBRANCH   1  32
TORSDOF 10
ENDMDL
MODEL 6
REMARK VINA RESULT:      -6.9      2.457      5.056
REMARK  10 active torsions:
REMARK  status: ('A' for Active; 'I' for Inactive)
REMARK    1  A    between atoms: C12_12  and  C21_21 
REMARK    2  A    between atoms: C13_13  and  C22_22 
REMARK    3  A    between atoms: C24_24  and  C14_14 
REMARK    4  A    between atoms: C25_25  and  C15_15 
REMARK    5  A    between atoms: C26_26  and  C16_16 
REMARK    6  A    between atoms: C27_27  and  C20_20 
REMARK       I    between atoms: C21_21  and  N28_28 
REMARK    7  A    between atoms: N28_28  and  C24_24 
REMARK    8  A    between atoms: N29_29  and  C25_25 
REMARK    9  A    between atoms: N29_29  and  C26_26 
REMARK   10  A    between atoms: C27_27  and  N29_29 
ROOT
ATOM      1  C25 N44 d          -8.699  45.668   1.684  0.00  0.00     0.109 C 
ATOM      2  H19 N44 d          -9.390  45.800   2.531  0.00  0.00     0.083 H 
ATOM      3  H20 N44 d          -9.246  45.246   0.828  0.00  0.00     0.083 H 
ENDROOT
BRANCH   1   4
ATOM      4  C15 N44 d          -7.655  44.689   2.091  0.00  0.00    -0.017 A 
ATOM      5  C9  N44 d          -6.992  44.914   3.283  0.00  0.00    -0.074 A 
ATOM      6  C5  N44 d          -6.005  44.052   3.729  0.00  0.00    -0.082 A 
ATOM      7  H9  N44 d          -7.249  45.782   3.879  0.00  0.00     0.084 H 
ATOM      8  C2  N44 d          -5.687  42.960   2.960  0.00  0.00    -0.082 A 
ATOM      9  H5  N44 d          -5.493  44.236   4.666  0.00  0.00     0.083 H 
ATOM     10  C6  N44 d          -6.343  42.722   1.767  0.00  0.00    -0.067 A 
ATOM     11  H2  N44 d          -4.914  42.276   3.292  0.00  0.00     0.083 H 
ATOM     12  C12 N44 d          -7.334  43.579   1.320  0.00  0.00     0.040 A 
ATOM     13  H6  N44 d          -6.079  41.854   1.174  0.00  0.00     0.085 H 
BRANCH  12  14
ATOM     14  C21 N44 d          -8.016  43.293   0.023  0.00  0.00     0.252 C 
ATOM     15  N28 N44 d          -9.251  42.661   0.051  0.00  0.00    -0.353 N 
ATOM     16  H25 N44 d          -9.665  42.416   0.928  0.00  0.00     0.163 HD
ATOM     17  O31 N44 d          -7.467  43.612  -1.020  0.00  0.00    -0.268 OA
BRANCH  15  18
ATOM     18  C24 N44 d          -9.944  42.355  -1.184  0.00  0.00     0.019 C 
ATOM     19  H17 N44 d          -9.227  42.392  -2.017  0.00  0.00     0.071 H 
ATOM     20  H18 N44 d         -10.374  41.345  -1.114  0.00  0.00     0.071 H 
BRANCH  18  21
ATOM     21  C14 N44 d         -11.042  43.339  -1.441  0.00  0.00    -0.041 A 
ATOM     22  C7  N44 d         -12.342  42.911  -1.596  0.00  0.00    -0.075 A 
ATOM     23  C3  N44 d         -13.358  43.812  -1.814  0.00  0.00    -0.082 A 
ATOM     24  H7  N44 d         -12.567  41.852  -1.546  0.00  0.00     0.084 H 
ATOM     25  C1  N44 d         -13.081  45.161  -1.883  0.00  0.00    -0.083 A 
ATOM     26  H3  N44 d         -14.376  43.461  -1.930  0.00  0.00     0.083 H 
ATOM     27  C4  N44 d         -11.782  45.597  -1.749  0.00  0.00    -0.082 A 
ATOM     28  H1  N44 d         -13.882  45.874  -2.043  0.00  0.00     0.083 H 
ATOM     29  C8  N44 d         -10.767  44.691  -1.522  0.00  0.00    -0.075 A 
ATOM     30  H4  N44 d         -11.556  46.655  -1.821  0.00  0.00     0.083 H 
ATOM     31  H8  N44 d          -9.748  45.042  -1.407  0.00  0.00     0.084 H 
ENDBRANCH  18  21
ENDBRANCH  15  18
ENDBRANCH  12  14
ENDBRANCH   1   4
BRANCH   1  32
ATOM     32  N29 N44 d          -8.194  47.009   1.291  0.00  0.00    -0.060 N 
ATOM     33  H26 N44 d          -7.220  46.989   1.549  0.00  0.00     0.281 HD
BRANCH  32  34
ATOM     34  C26 N44 d          -8.735  48.178   2.072  0.00  0.00     0.109 C 
ATOM     35  H21 N44 d          -9.145  47.817   3.026  0.00  0.00     0.083 H 
ATOM     36  H22 N44 d          -7.921  48.890   2.269  0.00  0.00     0.083 H 
BRANCH  34  37
ATOM     37  C16 N44 d          -9.821  48.871   1.298  0.00  0.00    -0.013 A 
ATOM     38  C10 N44 d          -9.433  49.727   0.267  0.00  0.00    -0.071 A 
ATOM     39  C11 N44 d         -10.371  50.412  -0.496  0.00  0.00    -0.047 A 
ATOM     40  H10 N44 d          -8.379  49.862   0.057  0.00  0.00     0.084 H 
ATOM     41  C17 N44 d         -11.694  50.206  -0.180  0.00  0.00     0.106 A 
ATOM     42  H11 N44 d         -10.074  51.076  -1.301  0.00  0.00     0.087 H 
ATOM     43  C18 N44 d         -12.087  49.366   0.832  0.00  0.00     0.122 A 
ATOM     44  O33 N44 d         -12.751  50.802  -0.822  0.00  0.00    -0.323 OA
ATOM     45  C13 N44 d         -11.169  48.673   1.610  0.00  0.00     0.085 A 
ATOM     46  O34 N44 d         -13.476  49.334   0.958  0.00  0.00    -0.322 OA
ATOM     47  C23 N44 d         -13.865  50.236  -0.094  0.00  0.00     0.115 A 
ATOM     48  H15 N44 d         -14.500  49.687  -0.804  0.00  0.00     0.118 H 
ATOM     49  H16 N44 d         -14.440  51.061   0.352  0.00  0.00     0.118 H 
BRANCH  45  50
ATOM     50  C22 N44 d         -11.616  47.739   2.706  0.00  0.00     0.212 C 
ATOM     51  O30 N44 d         -11.648  48.217   3.874  0.00  0.00    -0.644 OA
ATOM     52  O32 N44 d         -11.976  46.554   2.433  0.00  0.00    -0.644 OA
ENDBRANCH  45  50
ENDBRANCH  34  37
ENDBRANCH  32  34
BRANCH  32  53
ATOM     53  C27 N44 d          -8.177  47.176  -0.201  0.00  0.00     0.099 C 
ATOM     54  H23 N44 d          -8.742  46.343  -0.646  0.00  0.00     0.082 H 
ATOM     55  H24 N44 d          -8.671  48.128  -0.446  0.00  0.00     0.082 H 
BRANCH  53  56
ATOM     56  C20 N44 d          -6.814  47.189  -0.806  0.00  0.00    -0.087 C 
ATOM     57  C19 N44 d          -6.070  48.300  -0.846  0.00  0.00    -0.123 C 
ATOM     58  H12 N44 d          -5.078  48.275  -1.295  0.00  0.00     0.066 H 
ATOM     59  H13 N44 d          -6.455  49.229  -0.430  0.00  0.00     0.066 H 
ATOM     60  H14 N44 d          -6.413  46.269  -1.227  0.00  0.00     0.078 H 
ENDBRANCH  53  56
ENDBRANCH  32  53
ENDBRANCH   1  32
TORSDOF 10
ENDMDL
MODEL 7
REMARK VINA RESULT:      -6.8      2.224      6.319
REMARK  10 active torsions:
REMARK  status: ('A' for Active; 'I' for Inactive)
REMARK    1  A    between atoms: C12_12  and  C21_21 
REMARK    2  A    between atoms: C13_13  and  C22_22 
REMARK    3  A    between atoms: C24_24  and  C14_14 
REMARK    4  A    between atoms: C25_25  and  C15_15 
REMARK    5  A    between atoms: C26_26  and  C16_16 
REMARK    6  A    between atoms: C27_27  and  C20_20 
REMARK       I    between atoms: C21_21  and  N28_28 
REMARK    7  A    between atoms: N28_28  and  C24_24 
REMARK    8  A    between atoms: N29_29  and  C25_25 
REMARK    9  A    between atoms: N29_29  and  C26_26 
REMARK   10  A    between atoms: C27_27  and  N29_29 
ROOT
ATOM      1  C25 N44 d         -11.865  46.024  -0.813  0.00  0.00     0.109 C 
ATOM      2  H19 N44 d         -11.438  46.643  -1.617  0.00  0.00     0.083 H 
ATOM      3  H20 N44 d         -11.182  45.191  -0.590  0.00  0.00     0.083 H 
ENDROOT
BRANCH   1   4
ATOM      4  C15 N44 d         -13.147  45.451  -1.306  0.00  0.00    -0.017 A 
ATOM      5  C9  N44 d         -14.303  46.173  -1.079  0.00  0.00    -0.074 A 
ATOM      6  C5  N44 d         -15.535  45.706  -1.503  0.00  0.00    -0.082 A 
ATOM      7  H9  N44 d         -14.244  47.122  -0.560  0.00  0.00     0.084 H 
ATOM      8  C2  N44 d         -15.594  44.499  -2.156  0.00  0.00    -0.082 A 
ATOM      9  H5  N44 d         -16.435  46.281  -1.323  0.00  0.00     0.083 H 
ATOM     10  C6  N44 d         -14.445  43.768  -2.389  0.00  0.00    -0.067 A 
ATOM     11  H2  N44 d         -16.551  44.116  -2.491  0.00  0.00     0.083 H 
ATOM     12  C12 N44 d         -13.210  44.234  -1.971  0.00  0.00     0.040 A 
ATOM     13  H6  N44 d         -14.511  42.817  -2.906  0.00  0.00     0.085 H 
BRANCH  12  14
ATOM     14  C21 N44 d         -11.992  43.411  -2.236  0.00  0.00     0.252 C 
ATOM     15  N28 N44 d         -11.713  42.351  -1.384  0.00  0.00    -0.353 N 
ATOM     16  H25 N44 d         -12.327  42.152  -0.621  0.00  0.00     0.163 HD
ATOM     17  O31 N44 d         -11.275  43.698  -3.182  0.00  0.00    -0.268 OA
BRANCH  15  18
ATOM     18  C24 N44 d         -10.537  41.533  -1.597  0.00  0.00     0.019 C 
ATOM     19  H17 N44 d         -10.760  40.498  -1.298  0.00  0.00     0.071 H 
ATOM     20  H18 N44 d         -10.270  41.557  -2.664  0.00  0.00     0.071 H 
BRANCH  18  21
ATOM     21  C14 N44 d          -9.381  42.037  -0.791  0.00  0.00    -0.041 A 
ATOM     22  C7  N44 d          -8.917  41.320   0.290  0.00  0.00    -0.075 A 
ATOM     23  C3  N44 d          -7.844  41.769   1.023  0.00  0.00    -0.082 A 
ATOM     24  H7  N44 d          -9.404  40.392   0.566  0.00  0.00     0.084 H 
ATOM     25  C1  N44 d          -7.221  42.951   0.683  0.00  0.00    -0.083 A 
ATOM     26  H3  N44 d          -7.487  41.193   1.869  0.00  0.00     0.083 H 
ATOM     27  C4  N44 d          -7.690  43.684  -0.385  0.00  0.00    -0.082 A 
ATOM     28  H1  N44 d          -6.367  43.301   1.252  0.00  0.00     0.083 H 
ATOM     29  C8  N44 d          -8.761  43.227  -1.122  0.00  0.00    -0.075 A 
ATOM     30  H4  N44 d          -7.215  44.623  -0.645  0.00  0.00     0.083 H 
ATOM     31  H8  N44 d          -9.119  43.804  -1.967  0.00  0.00     0.084 H 
ENDBRANCH  18  21
ENDBRANCH  15  18
ENDBRANCH  12  14
ENDBRANCH   1   4
BRANCH   1  32
ATOM     32  N29 N44 d         -11.973  46.867   0.407  0.00  0.00    -0.060 N 
ATOM     33  H26 N44 d         -12.926  47.196   0.393  0.00  0.00     0.281 HD
BRANCH  32  34
ATOM     34  C26 N44 d         -11.167  48.139   0.408  0.00  0.00     0.109 C 
ATOM     35  H21 N44 d         -11.163  48.567  -0.605  0.00  0.00     0.083 H 
ATOM     36  H22 N44 d         -11.623  48.856   1.106  0.00  0.00     0.083 H 
BRANCH  34  37
ATOM     37  C16 N44 d          -9.752  47.865   0.834  0.00  0.00    -0.013 A 
ATOM     38  C10 N44 d          -8.905  47.257  -0.092  0.00  0.00    -0.071 A 
ATOM     39  C11 N44 d          -7.583  46.962   0.220  0.00  0.00    -0.047 A 
ATOM     40  H10 N44 d          -9.285  47.009  -1.076  0.00  0.00     0.084 H 
ATOM     41  C17 N44 d          -7.158  47.296   1.485  0.00  0.00     0.106 A 
ATOM     42  H11 N44 d          -6.920  46.494  -0.499  0.00  0.00     0.087 H 
ATOM     43  C18 N44 d          -7.983  47.893   2.405  0.00  0.00     0.122 A 
ATOM     44  O33 N44 d          -5.892  47.073   1.966  0.00  0.00    -0.323 OA
ATOM     45  C13 N44 d          -9.308  48.195   2.118  0.00  0.00     0.085 A 
ATOM     46  O34 N44 d          -7.321  48.122   3.612  0.00  0.00    -0.322 OA
ATOM     47  C23 N44 d          -6.013  47.605   3.305  0.00  0.00     0.115 A 
ATOM     48  H15 N44 d          -5.282  48.419   3.422  0.00  0.00     0.118 H 
ATOM     49  H16 N44 d          -5.783  46.800   4.019  0.00  0.00     0.118 H 
BRANCH  45  50
ATOM     50  C22 N44 d         -10.196  48.870   3.132  0.00  0.00     0.212 C 
ATOM     51  O30 N44 d         -10.297  50.125   3.043  0.00  0.00    -0.644 OA
ATOM     52  O32 N44 d         -10.831  48.184   3.988  0.00  0.00    -0.644 OA
ENDBRANCH  45  50
ENDBRANCH  34  37
ENDBRANCH  32  34
BRANCH  32  53
ATOM     53  C27 N44 d         -11.887  46.040   1.657  0.00  0.00     0.099 C 
ATOM     54  H23 N44 d         -11.322  46.612   2.408  0.00  0.00     0.082 H 
ATOM     55  H24 N44 d         -12.909  45.863   2.023  0.00  0.00     0.082 H 
BRANCH  53  56
ATOM     56  C20 N44 d         -11.221  44.719   1.479  0.00  0.00    -0.087 C 
ATOM     57  C19 N44 d         -10.113  44.389   2.153  0.00  0.00    -0.123 C 
ATOM     58  H12 N44 d          -9.652  43.414   1.999  0.00  0.00     0.066 H 
ATOM     59  H13 N44 d          -9.672  45.095   2.855  0.00  0.00     0.066 H 
ATOM     60  H14 N44 d         -11.649  44.001   0.781  0.00  0.00     0.078 H 
ENDBRANCH  53  56
ENDBRANCH  32  53
ENDBRANCH   1  32
TORSDOF 10
ENDMDL
MODEL 8
REMARK VINA RESULT:      -6.8      2.185      4.265
REMARK  10 active torsions:
REMARK  status: ('A' for Active; 'I' for Inactive)
REMARK    1  A    between atoms: C12_12  and  C21_21 
REMARK    2  A    between atoms: C13_13  and  C22_22 
REMARK    3  A    between atoms: C24_24  and  C14_14 
REMARK    4  A    between atoms: C25_25  and  C15_15 
REMARK    5  A    between atoms: C26_26  and  C16_16 
REMARK    6  A    between atoms: C27_27  and  C20_20 
REMARK       I    between atoms: C21_21  and  N28_28 
REMARK    7  A    between atoms: N28_28  and  C24_24 
REMARK    8  A    between atoms: N29_29  and  C25_25 
REMARK    9  A    between atoms: N29_29  and  C26_26 
REMARK   10  A    between atoms: C27_27  and  N29_29 
ROOT
ATOM      1  C25 N44 d          -7.534  48.659   2.160  0.00  0.00     0.109 C 
ATOM      2  H19 N44 d          -7.587  49.451   2.923  0.00  0.00     0.083 H 
ATOM      3  H20 N44 d          -6.495  48.555   1.813  0.00  0.00     0.083 H 
ENDROOT
BRANCH   1   4
ATOM      4  C15 N44 d          -8.367  49.082   1.001  0.00  0.00    -0.017 A 
ATOM      5  C9  N44 d          -9.218  50.155   1.178  0.00  0.00    -0.074 A 
ATOM      6  C5  N44 d         -10.028  50.606   0.151  0.00  0.00    -0.082 A 
ATOM      7  H9  N44 d          -9.253  50.653   2.140  0.00  0.00     0.084 H 
ATOM      8  C2  N44 d          -9.976  49.962  -1.061  0.00  0.00    -0.082 A 
ATOM      9  H5  N44 d         -10.690  51.451   0.299  0.00  0.00     0.083 H 
ATOM     10  C6  N44 d          -9.128  48.887  -1.252  0.00  0.00    -0.067 A 
ATOM     11  H2  N44 d         -10.607  50.299  -1.876  0.00  0.00     0.083 H 
ATOM     12  C12 N44 d          -8.313  48.437  -0.228  0.00  0.00     0.040 A 
ATOM     13  H6  N44 d          -9.101  48.391  -2.215  0.00  0.00     0.085 H 
BRANCH  12  14
ATOM     14  C21 N44 d          -7.415  47.268  -0.470  0.00  0.00     0.252 C 
ATOM     15  N28 N44 d          -7.951  45.991  -0.366  0.00  0.00    -0.353 N 
ATOM     16  H25 N44 d          -8.917  45.874  -0.141  0.00  0.00     0.163 HD
ATOM     17  O31 N44 d          -6.241  47.466  -0.742  0.00  0.00    -0.268 OA
BRANCH  15  18
ATOM     18  C24 N44 d          -7.114  44.829  -0.584  0.00  0.00     0.019 C 
ATOM     19  H17 N44 d          -6.699  44.869  -1.601  0.00  0.00     0.071 H 
ATOM     20  H18 N44 d          -6.293  44.835   0.148  0.00  0.00     0.071 H 
BRANCH  18  21
ATOM     21  C14 N44 d          -7.901  43.566  -0.426  0.00  0.00    -0.041 A 
ATOM     22  C7  N44 d          -8.998  43.322  -1.224  0.00  0.00    -0.075 A 
ATOM     23  C3  N44 d          -9.714  42.155  -1.096  0.00  0.00    -0.082 A 
ATOM     24  H7  N44 d          -9.299  44.057  -1.960  0.00  0.00     0.084 H 
ATOM     25  C1  N44 d          -9.341  41.215  -0.159  0.00  0.00    -0.083 A 
ATOM     26  H3  N44 d         -10.572  41.974  -1.732  0.00  0.00     0.083 H 
ATOM     27  C4  N44 d          -8.258  41.458   0.656  0.00  0.00    -0.082 A 
ATOM     28  H1  N44 d          -9.897  40.288  -0.064  0.00  0.00     0.083 H 
ATOM     29  C8  N44 d          -7.538  42.626   0.520  0.00  0.00    -0.075 A 
ATOM     30  H4  N44 d          -7.972  40.731   1.407  0.00  0.00     0.083 H 
ATOM     31  H8  N44 d          -6.680  42.808   1.158  0.00  0.00     0.084 H 
ENDBRANCH  18  21
ENDBRANCH  15  18
ENDBRANCH  12  14
ENDBRANCH   1   4
BRANCH   1  32
ATOM     32  N29 N44 d          -7.935  47.378   2.798  0.00  0.00    -0.060 N 
ATOM     33  H26 N44 d          -8.111  46.762   2.020  0.00  0.00     0.281 HD
BRANCH  32  34
ATOM     34  C26 N44 d          -9.248  47.388   3.537  0.00  0.00     0.109 C 
ATOM     35  H21 N44 d          -9.133  46.846   4.486  0.00  0.00     0.083 H 
ATOM     36  H22 N44 d          -9.540  48.428   3.742  0.00  0.00     0.083 H 
BRANCH  34  37
ATOM     37  C16 N44 d         -10.319  46.727   2.715  0.00  0.00    -0.013 A 
ATOM     38  C10 N44 d         -10.006  45.513   2.104  0.00  0.00    -0.071 A 
ATOM     39  C11 N44 d         -10.934  44.835   1.323  0.00  0.00    -0.047 A 
ATOM     40  H10 N44 d          -9.018  45.088   2.241  0.00  0.00     0.084 H 
ATOM     41  C17 N44 d         -12.169  45.424   1.181  0.00  0.00     0.106 A 
ATOM     42  H11 N44 d         -10.696  43.889   0.849  0.00  0.00     0.087 H 
ATOM     43  C18 N44 d         -12.488  46.619   1.777  0.00  0.00     0.122 A 
ATOM     44  O33 N44 d         -13.203  44.902   0.443  0.00  0.00    -0.323 OA
ATOM     45  C13 N44 d         -11.577  47.315   2.560  0.00  0.00     0.085 A 
ATOM     46  O34 N44 d         -13.794  47.008   1.475  0.00  0.00    -0.322 OA
ATOM     47  C23 N44 d         -14.218  45.911   0.645  0.00  0.00     0.115 A 
ATOM     48  H15 N44 d         -15.090  45.435   1.118  0.00  0.00     0.118 H 
ATOM     49  H16 N44 d         -14.507  46.312  -0.338  0.00  0.00     0.118 H 
BRANCH  45  50
ATOM     50  C22 N44 d         -11.948  48.617   3.225  0.00  0.00     0.212 C 
ATOM     51  O30 N44 d         -12.272  49.567   2.459  0.00  0.00    -0.644 OA
ATOM     52  O32 N44 d         -11.967  48.710   4.489  0.00  0.00    -0.644 OA
ENDBRANCH  45  50
ENDBRANCH  34  37
ENDBRANCH  32  34
BRANCH  32  53
ATOM     53  C27 N44 d          -6.786  46.739   3.522  0.00  0.00     0.099 C 
ATOM     54  H23 N44 d          -5.912  47.401   3.431  0.00  0.00     0.082 H 
ATOM     55  H24 N44 d          -7.061  46.639   4.583  0.00  0.00     0.082 H 
BRANCH  53  56
ATOM     56  C20 N44 d          -6.406  45.392   3.011  0.00  0.00    -0.087 C 
ATOM     57  C19 N44 d          -6.719  44.271   3.671  0.00  0.00    -0.123 C 
ATOM     58  H12 N44 d          -6.426  43.302   3.268  0.00  0.00     0.066 H 
ATOM     59  H13 N44 d          -7.267  44.327   4.610  0.00  0.00     0.066 H 
ATOM     60  H14 N44 d          -5.858  45.318   2.073  0.00  0.00     0.078 H 
ENDBRANCH  53  56
ENDBRANCH  32  53
ENDBRANCH   1  32
TORSDOF 10
ENDMDL
MODEL 9
REMARK VINA RESULT:      -6.8      2.514      6.267
REMARK  10 active torsions:
REMARK  status: ('A' for Active; 'I' for Inactive)
REMARK    1  A    between atoms: C12_12  and  C21_21 
REMARK    2  A    between atoms: C13_13  and  C22_22 
REMARK    3  A    between atoms: C24_24  and  C14_14 
REMARK    4  A    between atoms: C25_25  and  C15_15 
REMARK    5  A    between atoms: C26_26  and  C16_16 
REMARK    6  A    between atoms: C27_27  and  C20_20 
REMARK       I    between atoms: C21_21  and  N28_28 
REMARK    7  A    between atoms: N28_28  and  C24_24 
REMARK    8  A    between atoms: N29_29  and  C25_25 
REMARK    9  A    between atoms: N29_29  and  C26_26 
REMARK   10  A    between atoms: C27_27  and  N29_29 
ROOT
ATOM      1  C25 N44 d         -10.164  45.643  -0.661  0.00  0.00     0.109 C 
ATOM      2  H19 N44 d         -10.572  46.320  -1.427  0.00  0.00     0.083 H 
ATOM      3  H20 N44 d          -9.065  45.660  -0.705  0.00  0.00     0.083 H 
ENDROOT
BRANCH   1   4
ATOM      4  C15 N44 d         -10.616  44.261  -0.981  0.00  0.00    -0.017 A 
ATOM      5  C9  N44 d         -11.919  44.094  -1.409  0.00  0.00    -0.074 A 
ATOM      6  C5  N44 d         -12.417  42.841  -1.722  0.00  0.00    -0.082 A 
ATOM      7  H9  N44 d         -12.564  44.960  -1.501  0.00  0.00     0.084 H 
ATOM      8  C2  N44 d         -11.589  41.753  -1.596  0.00  0.00    -0.082 A 
ATOM      9  H5  N44 d         -13.439  42.721  -2.060  0.00  0.00     0.083 H 
ATOM     10  C6  N44 d         -10.283  41.906  -1.170  0.00  0.00    -0.067 A 
ATOM     11  H2  N44 d         -11.963  40.763  -1.833  0.00  0.00     0.083 H 
ATOM     12  C12 N44 d          -9.781  43.159  -0.860  0.00  0.00     0.040 A 
ATOM     13  H6  N44 d          -9.645  41.035  -1.076  0.00  0.00     0.085 H 
BRANCH  12  14
ATOM     14  C21 N44 d          -8.367  43.283  -0.396  0.00  0.00     0.252 C 
ATOM     15  N28 N44 d          -8.077  42.980   0.927  0.00  0.00    -0.353 N 
ATOM     16  H25 N44 d          -8.808  42.680   1.540  0.00  0.00     0.163 HD
ATOM     17  O31 N44 d          -7.512  43.655  -1.185  0.00  0.00    -0.268 OA
BRANCH  15  18
ATOM     18  C24 N44 d          -6.721  43.097   1.424  0.00  0.00     0.019 C 
ATOM     19  H17 N44 d          -6.290  42.091   1.531  0.00  0.00     0.071 H 
ATOM     20  H18 N44 d          -6.124  43.677   0.705  0.00  0.00     0.071 H 
BRANCH  18  21
ATOM     21  C14 N44 d          -6.694  43.785   2.752  0.00  0.00    -0.041 A 
ATOM     22  C7  N44 d          -6.385  43.084   3.897  0.00  0.00    -0.075 A 
ATOM     23  C3  N44 d          -6.341  43.715   5.118  0.00  0.00    -0.082 A 
ATOM     24  H7  N44 d          -6.175  42.022   3.834  0.00  0.00     0.084 H 
ATOM     25  C1  N44 d          -6.612  45.063   5.208  0.00  0.00    -0.083 A 
ATOM     26  H3  N44 d          -6.093  43.152   6.010  0.00  0.00     0.083 H 
ATOM     27  C4  N44 d          -6.941  45.769   4.072  0.00  0.00    -0.082 A 
ATOM     28  H1  N44 d          -6.567  45.566   6.168  0.00  0.00     0.083 H 
ATOM     29  C8  N44 d          -6.976  45.134   2.848  0.00  0.00    -0.075 A 
ATOM     30  H4  N44 d          -7.173  46.826   4.140  0.00  0.00     0.083 H 
ATOM     31  H8  N44 d          -7.227  45.698   1.956  0.00  0.00     0.084 H 
ENDBRANCH  18  21
ENDBRANCH  15  18
ENDBRANCH  12  14
ENDBRANCH   1   4
BRANCH   1  32
ATOM     32  N29 N44 d         -10.578  46.154   0.672  0.00  0.00    -0.060 N 
ATOM     33  H26 N44 d         -11.352  46.767   0.470  0.00  0.00     0.281 HD
BRANCH  32  34
ATOM     34  C26 N44 d          -9.595  47.056   1.372  0.00  0.00     0.109 C 
ATOM     35  H21 N44 d          -8.834  46.441   1.873  0.00  0.00     0.083 H 
ATOM     36  H22 N44 d          -9.110  47.706   0.630  0.00  0.00     0.083 H 
BRANCH  34  37
ATOM     37  C16 N44 d         -10.296  47.907   2.393  0.00  0.00    -0.013 A 
ATOM     38  C10 N44 d         -10.249  47.489   3.723  0.00  0.00    -0.071 A 
ATOM     39  C11 N44 d         -10.874  48.212   4.731  0.00  0.00    -0.047 A 
ATOM     40  H10 N44 d          -9.715  46.581   3.976  0.00  0.00     0.084 H 
ATOM     41  C17 N44 d         -11.542  49.354   4.350  0.00  0.00     0.106 A 
ATOM     42  H11 N44 d         -10.837  47.894   5.767  0.00  0.00     0.087 H 
ATOM     43  C18 N44 d         -11.595  49.773   3.044  0.00  0.00     0.122 A 
ATOM     44  O33 N44 d         -12.219  50.185   5.208  0.00  0.00    -0.323 OA
ATOM     45  C13 N44 d         -10.981  49.066   2.019  0.00  0.00     0.085 A 
ATOM     46  O34 N44 d         -12.336  50.949   2.916  0.00  0.00    -0.322 OA
ATOM     47  C23 N44 d         -12.708  51.186   4.286  0.00  0.00     0.115 A 
ATOM     48  H15 N44 d         -12.304  52.163   4.591  0.00  0.00     0.118 H 
ATOM     49  H16 N44 d         -13.806  51.206   4.349  0.00  0.00     0.118 H 
BRANCH  45  50
ATOM     50  C22 N44 d         -11.031  49.551   0.592  0.00  0.00     0.212 C 
ATOM     51  O30 N44 d         -11.932  49.053  -0.139  0.00  0.00    -0.644 OA
ATOM     52  O32 N44 d         -10.226  50.442   0.187  0.00  0.00    -0.644 OA
ENDBRANCH  45  50
ENDBRANCH  34  37
ENDBRANCH  32  34
BRANCH  32  53
ATOM     53  C27 N44 d         -11.180  45.068   1.516  0.00  0.00     0.099 C 
ATOM     54  H23 N44 d         -11.008  44.106   1.011  0.00  0.00     0.082 H 
ATOM     55  H24 N44 d         -10.669  45.067   2.491  0.00  0.00     0.082 H 
BRANCH  53  56
ATOM     56  C20 N44 d         -12.643  45.212   1.758  0.00  0.00    -0.087 C 
ATOM     57  C19 N44 d         -13.334  46.265   1.304  0.00  0.00    -0.123 C 
ATOM     58  H12 N44 d         -14.403  46.339   1.499  0.00  0.00     0.066 H 
ATOM     59  H13 N44 d         -12.828  47.046   0.741  0.00  0.00     0.066 H 
ATOM     60  H14 N44 d         -13.165  44.439   2.320  0.00  0.00     0.078 H 
ENDBRANCH  53  56
ENDBRANCH  32  53
ENDBRANCH   1  32
TORSDOF 10
ENDMDL
MODEL 10
REMARK VINA RESULT:      -6.7      2.971      6.277
REMARK  10 active torsions:
REMARK  status: ('A' for Active; 'I' for Inactive)
REMARK    1  A    between atoms: C12_12  and  C21_21 
REMARK    2  A    between atoms: C13_13  and  C22_22 
REMARK    3  A    between atoms: C24_24  and  C14_14 
REMARK    4  A    between atoms: C25_25  and  C15_15 
REMARK    5  A    between atoms: C26_26  and  C16_16 
REMARK    6  A    between atoms: C27_27  and  C20_20 
REMARK       I    between atoms: C21_21  and  N28_28 
REMARK    7  A    between atoms: N28_28  and  C24_24 
REMARK    8  A    between atoms: N29_29  and  C25_25 
REMARK    9  A    between atoms: N29_29  and  C26_26 
REMARK   10  A    between atoms: C27_27  and  N29_29 
ROOT
ATOM      1  C25 N44 d          -9.884  45.500  -0.475  0.00  0.00     0.109 C 
ATOM      2  H19 N44 d          -9.983  46.180  -1.334  0.00  0.00     0.083 H 
ATOM      3  H20 N44 d          -8.818  45.345  -0.252  0.00  0.00     0.083 H 
ENDROOT
BRANCH   1   4
ATOM      4  C15 N44 d         -10.471  44.187  -0.858  0.00  0.00    -0.017 A 
ATOM      5  C9  N44 d         -11.752  44.182  -1.376  0.00  0.00    -0.074 A 
ATOM      6  C5  N44 d         -12.369  43.002  -1.752  0.00  0.00    -0.082 A 
ATOM      7  H9  N44 d         -12.283  45.120  -1.490  0.00  0.00     0.084 H 
ATOM      8  C2  N44 d         -11.685  41.821  -1.597  0.00  0.00    -0.082 A 
ATOM      9  H5  N44 d         -13.373  43.009  -2.160  0.00  0.00     0.083 H 
ATOM     10  C6  N44 d         -10.403  41.813  -1.081  0.00  0.00    -0.067 A 
ATOM     11  H2  N44 d         -12.155  40.887  -1.883  0.00  0.00     0.083 H 
ATOM     12  C12 N44 d          -9.781  42.992  -0.708  0.00  0.00     0.040 A 
ATOM     13  H6  N44 d          -9.878  40.871  -0.967  0.00  0.00     0.085 H 
BRANCH  12  14
ATOM     14  C21 N44 d          -8.397  42.941  -0.148  0.00  0.00     0.252 C 
ATOM     15  N28 N44 d          -8.223  42.446   1.137  0.00  0.00    -0.353 N 
ATOM     16  H25 N44 d          -9.015  42.128   1.660  0.00  0.00     0.163 HD
ATOM     17  O31 N44 d          -7.465  43.342  -0.827  0.00  0.00    -0.268 OA
BRANCH  15  18
ATOM     18  C24 N44 d          -6.901  42.387   1.725  0.00  0.00     0.019 C 
ATOM     19  H17 N44 d          -6.728  41.376   2.122  0.00  0.00     0.071 H 
ATOM     20  H18 N44 d          -6.152  42.610   0.950  0.00  0.00     0.071 H 
BRANCH  18  21
ATOM     21  C14 N44 d          -6.764  43.379   2.837  0.00  0.00    -0.041 A 
ATOM     22  C7  N44 d          -6.939  44.725   2.599  0.00  0.00    -0.075 A 
ATOM     23  C3  N44 d          -6.833  45.639   3.621  0.00  0.00    -0.082 A 
ATOM     24  H7  N44 d          -7.163  45.066   1.595  0.00  0.00     0.084 H 
ATOM     25  C1  N44 d          -6.545  45.215   4.900  0.00  0.00    -0.083 A 
ATOM     26  H3  N44 d          -6.977  46.694   3.420  0.00  0.00     0.083 H 
ATOM     27  C4  N44 d          -6.349  43.874   5.145  0.00  0.00    -0.082 A 
ATOM     28  H1  N44 d          -6.472  45.932   5.710  0.00  0.00     0.083 H 
ATOM     29  C8  N44 d          -6.464  42.959   4.119  0.00  0.00    -0.075 A 
ATOM     30  H4  N44 d          -6.104  43.536   6.145  0.00  0.00     0.083 H 
ATOM     31  H8  N44 d          -6.318  41.903   4.320  0.00  0.00     0.084 H 
ENDBRANCH  18  21
ENDBRANCH  15  18
ENDBRANCH  12  14
ENDBRANCH   1   4
BRANCH   1  32
ATOM     32  N29 N44 d         -10.509  46.156   0.704  0.00  0.00    -0.060 N 
ATOM     33  H26 N44 d         -11.206  46.765   0.306  0.00  0.00     0.281 HD
BRANCH  32  34
ATOM     34  C26 N44 d          -9.629  47.098   1.483  0.00  0.00     0.109 C 
ATOM     35  H21 N44 d         -10.260  47.778   2.073  0.00  0.00     0.083 H 
ATOM     36  H22 N44 d          -8.985  46.517   2.159  0.00  0.00     0.083 H 
BRANCH  34  37
ATOM     37  C16 N44 d          -8.768  47.905   0.552  0.00  0.00    -0.013 A 
ATOM     38  C10 N44 d          -7.456  47.477   0.352  0.00  0.00    -0.071 A 
ATOM     39  C11 N44 d          -6.590  48.166  -0.488  0.00  0.00    -0.047 A 
ATOM     40  H10 N44 d          -7.103  46.588   0.863  0.00  0.00     0.084 H 
ATOM     41  C17 N44 d          -7.091  49.289  -1.105  0.00  0.00     0.106 A 
ATOM     42  H11 N44 d          -5.570  47.835  -0.649  0.00  0.00     0.087 H 
ATOM     43  C18 N44 d          -8.380  49.720  -0.915  0.00  0.00     0.122 A 
ATOM     44  O33 N44 d          -6.378  50.093  -1.960  0.00  0.00    -0.323 OA
ATOM     45  C13 N44 d          -9.263  49.050  -0.079  0.00  0.00     0.085 A 
ATOM     46  O34 N44 d          -8.642  50.881  -1.643  0.00  0.00    -0.322 OA
ATOM     47  C23 N44 d          -7.374  51.087  -2.291  0.00  0.00     0.115 A 
ATOM     48  H15 N44 d          -7.534  51.067  -3.380  0.00  0.00     0.118 H 
ATOM     49  H16 N44 d          -6.989  52.074  -1.995  0.00  0.00     0.118 H 
BRANCH  45  50
ATOM     50  C22 N44 d         -10.683  49.523   0.104  0.00  0.00     0.212 C 
ATOM     51  O30 N44 d         -11.551  48.996  -0.646  0.00  0.00    -0.644 OA
ATOM     52  O32 N44 d         -10.967  50.373   1.000  0.00  0.00    -0.644 OA
ENDBRANCH  45  50
ENDBRANCH  34  37
ENDBRANCH  32  34
BRANCH  32  53
ATOM     53  C27 N44 d         -11.300  45.177   1.524  0.00  0.00     0.099 C 
ATOM     54  H23 N44 d         -11.309  44.214   0.993  0.00  0.00     0.082 H 
ATOM     55  H24 N44 d         -10.797  45.057   2.495  0.00  0.00     0.082 H 
BRANCH  53  56
ATOM     56  C20 N44 d         -12.711  45.583   1.777  0.00  0.00    -0.087 C 
ATOM     57  C19 N44 d         -13.322  46.517   1.039  0.00  0.00    -0.123 C 
ATOM     58  H12 N44 d         -14.355  46.790   1.251  0.00  0.00     0.066 H 
ATOM     59  H13 N44 d         -12.786  47.004   0.226  0.00  0.00     0.066 H 
ATOM     60  H14 N44 d         -13.261  45.106   2.587  0.00  0.00     0.078 H 
ENDBRANCH  53  56
ENDBRANCH  32  53
ENDBRANCH   1  32
TORSDOF 10
ENDMDL
