MODEL 1
REMARK VINA RESULT:      -6.8      0.000      0.000
REMARK  4 active torsions:
REMARK  status: ('A' for Active; 'I' for Inactive)
REMARK    1  A    between atoms: C1_2  and  C6_3 
REMARK    2  A    between atoms: C6_3  and  C7_4 
REMARK    3  A    between atoms: C7_4  and  C8_5 
REMARK    4  A    between atoms: C8_5  and  C9_6 
ROOT
ATOM      1  N1  BDI d          15.538  17.007  20.194  0.00  0.00    -0.338 N 
ATOM      2  C1  BDI d          16.719  17.350  19.709  0.00  0.00     0.105 A 
ATOM      3  N2  BDI d          17.540  17.566  20.598  0.00  0.00    -0.227 NA
ATOM      4  C2  BDI d          16.989  17.391  21.902  0.00  0.00     0.160 A 
ATOM      5  C4  BDI d          17.537  17.525  23.286  0.00  0.00     0.291 A 
ATOM      6  N5  BDI d          16.637  17.255  24.324  0.00  0.00    -0.262 N 
ATOM      7  N4  BDI d          15.207  16.854  24.090  0.00  0.00    -0.262 N 
ATOM      8  C5  BDI d          14.644  16.713  22.807  0.00  0.00     0.289 A 
ATOM      9  O1  BDI d          13.442  16.376  22.595  0.00  0.00    -0.264 OA
ATOM     10  C3  BDI d          15.633  17.010  21.643  0.00  0.00     0.138 A 
ATOM     11  O3  BDI d          18.708  17.852  23.461  0.00  0.00    -0.264 OA
ATOM     12  H1  BDI d          14.699  16.778  19.642  0.00  0.00     0.167 HD
ATOM     13  H11 BDI d          16.961  17.333  25.267  0.00  0.00     0.190 HD
ATOM     14  H12 BDI d          14.627  16.679  24.885  0.00  0.00     0.190 HD
ENDROOT
BRANCH   2  15
ATOM     15  C6  BDI d          16.990  17.455  18.207  0.00  0.00    -0.010 C 
ATOM     16  H2  BDI d          17.422  16.498  17.881  0.00  0.00     0.044 H 
ATOM     17  H3  BDI d          17.726  18.258  18.059  0.00  0.00     0.044 H 
BRANCH  15  18
ATOM     18  C7  BDI d          15.769  17.760  17.280  0.00  0.00    -0.059 C 
ATOM     19  H4  BDI d          14.966  18.225  17.871  0.00  0.00     0.033 H 
ATOM     20  H5  BDI d          15.401  16.823  16.836  0.00  0.00     0.033 H 
BRANCH  18  21
ATOM     21  C8  BDI d          16.217  18.737  16.144  0.00  0.00    -0.068 C 
ATOM     22  H6  BDI d          16.972  19.426  16.551  0.00  0.00     0.032 H 
ATOM     23  H7  BDI d          15.340  19.310  15.809  0.00  0.00     0.032 H 
BRANCH  21  24
ATOM     24  C9  BDI d          16.824  18.005  14.922  0.00  0.00    -0.077 C 
ATOM     25  H8  BDI d          17.812  18.432  14.693  0.00  0.00     0.027 H 
ATOM     26  H9  BDI d          16.161  18.129  14.053  0.00  0.00     0.027 H 
ATOM     27  H10 BDI d          16.932  16.934  15.152  0.00  0.00     0.027 H 
ENDBRANCH  21  24
ENDBRANCH  18  21
ENDBRANCH  15  18
ENDBRANCH   2  15
TORSDOF 4
ENDMDL
MODEL 2
REMARK VINA RESULT:      -6.5      0.973      1.071
REMARK  4 active torsions:
REMARK  status: ('A' for Active; 'I' for Inactive)
REMARK    1  A    between atoms: C1_2  and  C6_3 
REMARK    2  A    between atoms: C6_3  and  C7_4 
REMARK    3  A    between atoms: C7_4  and  C8_5 
REMARK    4  A    between atoms: C8_5  and  C9_6 
ROOT
ATOM      1  N1  BDI d          14.416  16.550  20.626  0.00  0.00    -0.338 N 
ATOM      2  C1  BDI d          15.365  16.721  19.721  0.00  0.00     0.105 A 
ATOM      3  N2  BDI d          16.442  17.020  20.229  0.00  0.00    -0.227 NA
ATOM      4  C2  BDI d          16.369  17.101  21.652  0.00  0.00     0.160 A 
ATOM      5  C4  BDI d          17.358  17.419  22.725  0.00  0.00     0.291 A 
ATOM      6  N5  BDI d          16.864  17.390  24.035  0.00  0.00    -0.262 N 
ATOM      7  N4  BDI d          15.436  17.062  24.368  0.00  0.00    -0.262 N 
ATOM      8  C5  BDI d          14.466  16.754  23.395  0.00  0.00     0.289 A 
ATOM      9  O1  BDI d          13.260  16.475  23.661  0.00  0.00    -0.264 OA
ATOM     10  C3  BDI d          15.001  16.783  21.934  0.00  0.00     0.138 A 
ATOM     11  O3  BDI d          18.523  17.685  22.436  0.00  0.00    -0.264 OA
ATOM     12  H1  BDI d          13.436  16.295  20.436  0.00  0.00     0.167 HD
ATOM     13  H11 BDI d          17.492  17.597  24.785  0.00  0.00     0.190 HD
ATOM     14  H12 BDI d          15.161  17.062  25.330  0.00  0.00     0.190 HD
ENDROOT
BRANCH   2  15
ATOM     15  C6  BDI d          15.106  16.559  18.221  0.00  0.00    -0.010 C 
ATOM     16  H2  BDI d          14.130  16.065  18.105  0.00  0.00     0.044 H 
ATOM     17  H3  BDI d          15.896  15.908  17.818  0.00  0.00     0.044 H 
BRANCH  15  18
ATOM     18  C7  BDI d          15.082  17.859  17.355  0.00  0.00    -0.059 C 
ATOM     19  H4  BDI d          14.724  18.701  17.966  0.00  0.00     0.033 H 
ATOM     20  H5  BDI d          14.409  17.718  16.497  0.00  0.00     0.033 H 
BRANCH  18  21
ATOM     21  C8  BDI d          16.527  18.163  16.842  0.00  0.00    -0.068 C 
ATOM     22  H6  BDI d          17.034  17.208  16.636  0.00  0.00     0.032 H 
ATOM     23  H7  BDI d          17.072  18.706  17.628  0.00  0.00     0.032 H 
BRANCH  21  24
ATOM     24  C9  BDI d          16.543  19.018  15.550  0.00  0.00    -0.077 C 
ATOM     25  H8  BDI d          15.932  19.920  15.701  0.00  0.00     0.027 H 
ATOM     26  H9  BDI d          16.130  18.430  14.717  0.00  0.00     0.027 H 
ATOM     27  H10 BDI d          17.577  19.310  15.316  0.00  0.00     0.027 H 
ENDBRANCH  21  24
ENDBRANCH  18  21
ENDBRANCH  15  18
ENDBRANCH   2  15
TORSDOF 4
ENDMDL
MODEL 3
REMARK VINA RESULT:      -5.0      1.859      2.503
REMARK  4 active torsions:
REMARK  status: ('A' for Active; 'I' for Inactive)
REMARK    1  A    between atoms: C1_2  and  C6_3 
REMARK    2  A    between atoms: C6_3  and  C7_4 
REMARK    3  A    between atoms: C7_4  and  C8_5 
REMARK    4  A    between atoms: C8_5  and  C9_6 
ROOT
ATOM      1  N1  BDI d          14.615  17.217  18.015  0.00  0.00    -0.338 N 
ATOM      2  C1  BDI d          15.615  17.578  17.229  0.00  0.00     0.105 A 
ATOM      3  N2  BDI d          16.663  17.727  17.852  0.00  0.00    -0.227 NA
ATOM      4  C2  BDI d          16.509  17.472  19.247  0.00  0.00     0.160 A 
ATOM      5  C4  BDI d          17.437  17.509  20.417  0.00  0.00     0.291 A 
ATOM      6  N5  BDI d          16.867  17.182  21.654  0.00  0.00    -0.262 N 
ATOM      7  N4  BDI d          15.421  16.813  21.822  0.00  0.00    -0.262 N 
ATOM      8  C5  BDI d          14.506  16.762  20.752  0.00  0.00     0.289 A 
ATOM      9  O1  BDI d          13.285  16.453  20.879  0.00  0.00    -0.264 OA
ATOM     10  C3  BDI d          15.124  17.124  19.370  0.00  0.00     0.138 A 
ATOM     11  O3  BDI d          18.618  17.812  20.264  0.00  0.00    -0.264 OA
ATOM     12  H1  BDI d          13.646  17.034  17.717  0.00  0.00     0.167 HD
ATOM     13  H11 BDI d          17.452  17.195  22.465  0.00  0.00     0.190 HD
ATOM     14  H12 BDI d          15.090  16.593  22.740  0.00  0.00     0.190 HD
ENDROOT
BRANCH   2  15
ATOM     15  C6  BDI d          15.443  17.779  15.721  0.00  0.00    -0.010 C 
ATOM     16  H2  BDI d          14.586  17.168  15.402  0.00  0.00     0.044 H 
ATOM     17  H3  BDI d          16.356  17.412  15.233  0.00  0.00     0.044 H 
BRANCH  15  18
ATOM     18  C7  BDI d          15.194  19.237  15.219  0.00  0.00    -0.059 C 
ATOM     19  H4  BDI d          15.314  19.941  16.056  0.00  0.00     0.033 H 
ATOM     20  H5  BDI d          14.174  19.319  14.815  0.00  0.00     0.033 H 
BRANCH  18  21
ATOM     21  C8  BDI d          16.228  19.578  14.096  0.00  0.00    -0.068 C 
ATOM     22  H6  BDI d          16.600  20.600  14.260  0.00  0.00     0.032 H 
ATOM     23  H7  BDI d          15.720  19.524  13.122  0.00  0.00     0.032 H 
BRANCH  21  24
ATOM     24  C9  BDI d          17.438  18.611  14.075  0.00  0.00    -0.077 C 
ATOM     25  H8  BDI d          17.354  17.901  14.912  0.00  0.00     0.027 H 
ATOM     26  H9  BDI d          18.370  19.187  14.176  0.00  0.00     0.027 H 
ATOM     27  H10 BDI d          17.449  18.057  13.125  0.00  0.00     0.027 H 
ENDBRANCH  21  24
ENDBRANCH  18  21
ENDBRANCH  15  18
ENDBRANCH   2  15
TORSDOF 4
ENDMDL
MODEL 4
REMARK VINA RESULT:      -4.6      2.837      5.610
REMARK  4 active torsions:
REMARK  status: ('A' for Active; 'I' for Inactive)
REMARK    1  A    between atoms: C1_2  and  C6_3 
REMARK    2  A    between atoms: C6_3  and  C7_4 
REMARK    3  A    between atoms: C7_4  and  C8_5 
REMARK    4  A    between atoms: C8_5  and  C9_6 
ROOT
ATOM      1  N1  BDI d          14.195  16.304  19.899  0.00  0.00    -0.338 N 
ATOM      2  C1  BDI d          14.971  16.897  20.789  0.00  0.00     0.105 A 
ATOM      3  N2  BDI d          15.861  17.559  20.261  0.00  0.00    -0.227 NA
ATOM      4  C2  BDI d          15.810  17.501  18.836  0.00  0.00     0.160 A 
ATOM      5  C4  BDI d          16.632  18.102  17.744  0.00  0.00     0.291 A 
ATOM      6  N5  BDI d          16.234  17.785  16.439  0.00  0.00    -0.262 N 
ATOM      7  N4  BDI d          15.059  16.901  16.130  0.00  0.00    -0.262 N 
ATOM      8  C5  BDI d          14.253  16.311  17.122  0.00  0.00     0.289 A 
ATOM      9  O1  BDI d          13.260  15.564  16.877  0.00  0.00    -0.264 OA
ATOM     10  C3  BDI d          14.683  16.654  18.578  0.00  0.00     0.138 A 
ATOM     11  O3  BDI d          17.589  18.825  18.013  0.00  0.00    -0.264 OA
ATOM     12  H1  BDI d          13.386  15.701  20.106  0.00  0.00     0.167 HD
ATOM     13  H11 BDI d          16.757  18.166  15.676  0.00  0.00     0.190 HD
ATOM     14  H12 BDI d          14.839  16.721  15.171  0.00  0.00     0.190 HD
ENDROOT
BRANCH   2  15
ATOM     15  C6  BDI d          14.754  16.747  22.297  0.00  0.00    -0.010 C 
ATOM     16  H2  BDI d          14.910  15.689  22.550  0.00  0.00     0.044 H 
ATOM     17  H3  BDI d          13.711  17.024  22.509  0.00  0.00     0.044 H 
BRANCH  15  18
ATOM     18  C7  BDI d          15.667  17.596  23.239  0.00  0.00    -0.059 C 
ATOM     19  H4  BDI d          15.091  17.916  24.120  0.00  0.00     0.033 H 
ATOM     20  H5  BDI d          16.030  18.483  22.698  0.00  0.00     0.033 H 
BRANCH  18  21
ATOM     21  C8  BDI d          16.884  16.727  23.695  0.00  0.00    -0.068 C 
ATOM     22  H6  BDI d          16.620  15.665  23.581  0.00  0.00     0.032 H 
ATOM     23  H7  BDI d          17.091  16.942  24.754  0.00  0.00     0.032 H 
BRANCH  21  24
ATOM     24  C9  BDI d          18.168  17.007  22.875  0.00  0.00    -0.077 C 
ATOM     25  H8  BDI d          18.427  18.073  22.952  0.00  0.00     0.027 H 
ATOM     26  H9  BDI d          17.993  16.748  21.820  0.00  0.00     0.027 H 
ATOM     27  H10 BDI d          18.995  16.399  23.270  0.00  0.00     0.027 H 
ENDBRANCH  21  24
ENDBRANCH  18  21
ENDBRANCH  15  18
ENDBRANCH   2  15
TORSDOF 4
ENDMDL
