MODEL 1
REMARK VINA RESULT:      -9.0      0.000      0.000
REMARK  2 active torsions:
REMARK  status: ('A' for Active; 'I' for Inactive)
REMARK    1  A    between atoms: C3_3  and  O3_20 
REMARK    2  A    between atoms: C5_5  and  O4_21 
ROOT
ATOM      1  C1  M1S d          55.298  75.848  -5.668  0.00  0.00     0.296 C 
ATOM      2  C2  M1S d          55.412  76.641  -4.398  0.00  0.00     0.081 A 
ATOM      3  C3  M1S d          54.540  77.728  -4.212  0.00  0.00     0.085 A 
ATOM      4  C4  M1S d          54.607  78.533  -3.084  0.00  0.00    -0.016 A 
ATOM      5  C5  M1S d          55.588  78.225  -2.138  0.00  0.00     0.090 A 
ATOM      6  C6  M1S d          56.416  77.156  -2.341  0.00  0.00     0.075 A 
ATOM      7  C7  M1S d          56.386  76.330  -3.454  0.00  0.00    -0.008 A 
ATOM      8  C8  M1S d          57.362  75.152  -3.580  0.00  0.00     0.017 C 
ATOM      9  C9  M1S d          58.639  75.451  -4.310  0.00  0.00     0.131 C 
ATOM     10  C10 M1S d          59.135  76.855  -4.508  0.00  0.00    -0.009 C 
ATOM     11  C11 M1S d          60.465  76.857  -5.271  0.00  0.00    -0.059 C 
ATOM     12  C12 M1S d          60.917  78.269  -5.609  0.00  0.00    -0.064 C 
ATOM     13  C13 M1S d          59.942  78.997  -6.533  0.00  0.00    -0.062 C 
ATOM     14  C14 M1S d          59.888  78.329  -7.906  0.00  0.00    -0.050 C 
ATOM     15  C15 M1S d          58.525  77.711  -8.125  0.00  0.00    -0.106 C 
ATOM     16  C16 M1S d          58.408  76.401  -8.326  0.00  0.00    -0.105 C 
ATOM     17  C17 M1S d          57.050  75.779  -8.561  0.00  0.00    -0.030 C 
ATOM     18  C18 M1S d          56.583  74.822  -7.469  0.00  0.00     0.032 C 
ATOM     19  O2  M1S d          54.264  75.564  -6.233  0.00  0.00    -0.259 OA
ATOM     20 CL1  M1S d          57.573  76.785  -1.054  0.00  0.00    -0.081 Cl
ATOM     21  O5  M1S d          59.277  74.467  -4.693  0.00  0.00    -0.298 OA
ATOM     22  O1  M1S d          56.565  75.547  -6.211  0.00  0.00    -0.317 OA
ATOM     23  H1  M1S d          53.927  79.366  -2.942  0.00  0.00     0.092 H 
ATOM     24  H2  M1S d          56.848  74.340  -4.114  0.00  0.00     0.051 H 
ATOM     25  H3  M1S d          57.622  74.816  -2.565  0.00  0.00     0.051 H 
ATOM     26  H4  M1S d          59.282  77.328  -3.526  0.00  0.00     0.044 H 
ATOM     27  H5  M1S d          58.390  77.425  -5.081  0.00  0.00     0.044 H 
ATOM     28  H6  M1S d          60.341  76.289  -6.206  0.00  0.00     0.033 H 
ATOM     29  H7  M1S d          61.234  76.375  -4.649  0.00  0.00     0.033 H 
ATOM     30  H8  M1S d          61.898  78.214  -6.105  0.00  0.00     0.033 H 
ATOM     31  H9  M1S d          61.010  78.842  -4.674  0.00  0.00     0.033 H 
ATOM     32  H10 M1S d          60.272  80.040  -6.653  0.00  0.00     0.033 H 
ATOM     33  H11 M1S d          58.938  78.979  -6.084  0.00  0.00     0.033 H 
ATOM     34  H12 M1S d          60.656  77.544  -7.961  0.00  0.00     0.038 H 
ATOM     35  H13 M1S d          60.077  79.082  -8.685  0.00  0.00     0.038 H 
ATOM     36  H14 M1S d          57.636  78.340  -8.118  0.00  0.00     0.076 H 
ATOM     37  H15 M1S d          59.297  75.771  -8.321  0.00  0.00     0.076 H 
ATOM     38  H16 M1S d          57.089  75.222  -9.509  0.00  0.00     0.042 H 
ATOM     39  H17 M1S d          56.313  76.591  -8.642  0.00  0.00     0.042 H 
ATOM     40  H18 M1S d          57.275  73.971  -7.399  0.00  0.00     0.075 H 
ATOM     41  H19 M1S d          55.572  74.455  -7.702  0.00  0.00     0.075 H 
ENDROOT
BRANCH   3  42
ATOM     42  O3  M1S d          53.557  78.002  -5.147  0.00  0.00    -0.360 OA
ATOM     43  H20 M1S d          53.621  77.382  -5.864  0.00  0.00     0.217 HD
ENDBRANCH   3  42
BRANCH   5  44
ATOM     44  O4  M1S d          55.736  79.013  -1.024  0.00  0.00    -0.359 OA
ATOM     45  H21 M1S d          55.085  79.705  -1.038  0.00  0.00     0.217 HD
ENDBRANCH   5  44
TORSDOF 2
ENDMDL
