MODEL 1
REMARK VINA RESULT:      -9.0      0.000      0.000
REMARK  2 active torsions:
REMARK  status: ('A' for Active; 'I' for Inactive)
REMARK    1  A    between atoms: C3_3  and  O3_20 
REMARK    2  A    between atoms: C5_5  and  O4_21 
ROOT
ATOM      1  C1  M1S d          55.436  75.891  -5.752  0.00  0.00     0.296 C 
ATOM      2  C2  M1S d          55.520  76.649  -4.461  0.00  0.00     0.081 A 
ATOM      3  C3  M1S d          54.640  77.728  -4.264  0.00  0.00     0.085 A 
ATOM      4  C4  M1S d          54.680  78.504  -3.114  0.00  0.00    -0.016 A 
ATOM      5  C5  M1S d          55.643  78.174  -2.157  0.00  0.00     0.090 A 
ATOM      6  C6  M1S d          56.480  77.114  -2.371  0.00  0.00     0.075 A 
ATOM      7  C7  M1S d          56.476  76.318  -3.505  0.00  0.00    -0.008 A 
ATOM      8  C8  M1S d          57.460  75.148  -3.642  0.00  0.00     0.017 C 
ATOM      9  C9  M1S d          58.750  75.471  -4.337  0.00  0.00     0.131 C 
ATOM     10  C10 M1S d          59.245  76.882  -4.488  0.00  0.00    -0.009 C 
ATOM     11  C11 M1S d          60.590  76.909  -5.223  0.00  0.00    -0.059 C 
ATOM     12  C12 M1S d          61.042  78.331  -5.514  0.00  0.00    -0.064 C 
ATOM     13  C13 M1S d          60.083  79.080  -6.439  0.00  0.00    -0.062 C 
ATOM     14  C14 M1S d          60.060  78.448  -7.830  0.00  0.00    -0.050 C 
ATOM     15  C15 M1S d          58.705  77.831  -8.093  0.00  0.00    -0.106 C 
ATOM     16  C16 M1S d          58.598  76.525  -8.330  0.00  0.00    -0.105 C 
ATOM     17  C17 M1S d          57.248  75.905  -8.610  0.00  0.00    -0.030 C 
ATOM     18  C18 M1S d          56.763  74.917  -7.553  0.00  0.00     0.032 C 
ATOM     19  O2  M1S d          54.416  75.617  -6.347  0.00  0.00    -0.259 OA
ATOM     20 CL1  M1S d          57.612  76.714  -1.070  0.00  0.00    -0.081 Cl
ATOM     21  O5  M1S d          59.401  74.500  -4.732  0.00  0.00    -0.298 OA
ATOM     22  O1  M1S d          56.716  75.609  -6.277  0.00  0.00    -0.317 OA
ATOM     23  H1  M1S d          53.993  79.329  -2.964  0.00  0.00     0.092 H 
ATOM     24  H2  M1S d          56.961  74.348  -4.208  0.00  0.00     0.051 H 
ATOM     25  H3  M1S d          57.701  74.786  -2.631  0.00  0.00     0.051 H 
ATOM     26  H4  M1S d          59.369  77.329  -3.491  0.00  0.00     0.044 H 
ATOM     27  H5  M1S d          58.508  77.463  -5.061  0.00  0.00     0.044 H 
ATOM     28  H6  M1S d          60.488  76.365  -6.175  0.00  0.00     0.033 H 
ATOM     29  H7  M1S d          61.348  76.415  -4.598  0.00  0.00     0.033 H 
ATOM     30  H8  M1S d          62.033  78.294  -5.991  0.00  0.00     0.033 H 
ATOM     31  H9  M1S d          61.113  78.880  -4.563  0.00  0.00     0.033 H 
ATOM     32  H10 M1S d          60.410  80.127  -6.525  0.00  0.00     0.033 H 
ATOM     33  H11 M1S d          59.070  79.046  -6.011  0.00  0.00     0.033 H 
ATOM     34  H12 M1S d          60.833  77.668  -7.889  0.00  0.00     0.038 H 
ATOM     35  H13 M1S d          60.261  79.222  -8.585  0.00  0.00     0.038 H 
ATOM     36  H14 M1S d          57.813  78.456  -8.088  0.00  0.00     0.076 H 
ATOM     37  H15 M1S d          59.489  75.900  -8.323  0.00  0.00     0.076 H 
ATOM     38  H16 M1S d          57.309  75.373  -9.571  0.00  0.00     0.042 H 
ATOM     39  H17 M1S d          56.509  76.716  -8.685  0.00  0.00     0.042 H 
ATOM     40  H18 M1S d          57.457  74.067  -7.491  0.00  0.00     0.075 H 
ATOM     41  H19 M1S d          55.759  74.553  -7.817  0.00  0.00     0.075 H 
ENDROOT
BRANCH   3  42
ATOM     42  O3  M1S d          53.675  78.022  -5.212  0.00  0.00    -0.360 OA
ATOM     43  H20 M1S d          53.320  77.214  -5.562  0.00  0.00     0.217 HD
ENDBRANCH   3  42
BRANCH   5  44
ATOM     44  O4  M1S d          55.764  78.933  -1.019  0.00  0.00    -0.359 OA
ATOM     45  H21 M1S d          56.441  78.565  -0.464  0.00  0.00     0.217 HD
ENDBRANCH   5  44
TORSDOF 2
ENDMDL
MODEL 2
REMARK VINA RESULT:      -6.9      2.500      5.254
REMARK  2 active torsions:
REMARK  status: ('A' for Active; 'I' for Inactive)
REMARK    1  A    between atoms: C3_3  and  O3_20 
REMARK    2  A    between atoms: C5_5  and  O4_21 
ROOT
ATOM      1  C1  M1S d          55.508  77.109  -5.516  0.00  0.00     0.296 C 
ATOM      2  C2  M1S d          56.176  76.306  -6.594  0.00  0.00     0.081 A 
ATOM      3  C3  M1S d          55.594  75.084  -6.970  0.00  0.00     0.085 A 
ATOM      4  C4  M1S d          56.171  74.264  -7.931  0.00  0.00    -0.016 A 
ATOM      5  C5  M1S d          57.368  74.701  -8.505  0.00  0.00     0.090 A 
ATOM      6  C6  M1S d          57.907  75.899  -8.125  0.00  0.00     0.075 A 
ATOM      7  C7  M1S d          57.366  76.744  -7.169  0.00  0.00    -0.008 A 
ATOM      8  C8  M1S d          58.053  78.071  -6.820  0.00  0.00     0.017 C 
ATOM      9  C9  M1S d          59.018  78.013  -5.672  0.00  0.00     0.131 C 
ATOM     10  C10 M1S d          59.610  76.718  -5.191  0.00  0.00    -0.009 C 
ATOM     11  C11 M1S d          60.569  76.963  -4.020  0.00  0.00    -0.059 C 
ATOM     12  C12 M1S d          61.072  75.658  -3.424  0.00  0.00    -0.064 C 
ATOM     13  C13 M1S d          59.949  74.808  -2.830  0.00  0.00    -0.062 C 
ATOM     14  C14 M1S d          59.316  75.502  -1.625  0.00  0.00    -0.050 C 
ATOM     15  C15 M1S d          57.890  75.891  -1.944  0.00  0.00    -0.106 C 
ATOM     16  C16 M1S d          57.522  77.169  -1.913  0.00  0.00    -0.105 C 
ATOM     17  C17 M1S d          56.094  77.564  -2.216  0.00  0.00    -0.030 C 
ATOM     18  C18 M1S d          55.910  78.393  -3.482  0.00  0.00     0.032 C 
ATOM     19  O2  M1S d          54.312  77.236  -5.368  0.00  0.00    -0.259 OA
ATOM     20 CL1  M1S d          59.378  76.415  -8.963  0.00  0.00    -0.081 Cl
ATOM     21  O5  M1S d          59.330  79.101  -5.182  0.00  0.00    -0.298 OA
ATOM     22  O1  M1S d          56.443  77.635  -4.600  0.00  0.00    -0.317 OA
ATOM     23  H1  M1S d          55.713  73.326  -8.223  0.00  0.00     0.092 H 
ATOM     24  H2  M1S d          57.272  78.803  -6.570  0.00  0.00     0.051 H 
ATOM     25  H3  M1S d          58.604  78.413  -7.709  0.00  0.00     0.051 H 
ATOM     26  H4  M1S d          60.161  76.245  -6.017  0.00  0.00     0.044 H 
ATOM     27  H5  M1S d          58.800  76.052  -4.861  0.00  0.00     0.044 H 
ATOM     28  H6  M1S d          60.042  77.532  -3.240  0.00  0.00     0.033 H 
ATOM     29  H7  M1S d          61.430  77.545  -4.381  0.00  0.00     0.033 H 
ATOM     30  H8  M1S d          61.794  75.890  -2.628  0.00  0.00     0.033 H 
ATOM     31  H9  M1S d          61.570  75.078  -4.215  0.00  0.00     0.033 H 
ATOM     32  H10 M1S d          60.361  73.839  -2.512  0.00  0.00     0.033 H 
ATOM     33  H11 M1S d          59.177  74.644  -3.597  0.00  0.00     0.033 H 
ATOM     34  H12 M1S d          59.894  76.404  -1.380  0.00  0.00     0.038 H 
ATOM     35  H13 M1S d          59.324  74.816  -0.765  0.00  0.00     0.038 H 
ATOM     36  H14 M1S d          57.162  75.123  -2.200  0.00  0.00     0.076 H 
ATOM     37  H15 M1S d          58.254  77.937  -1.668  0.00  0.00     0.076 H 
ATOM     38  H16 M1S d          55.714  78.150  -1.366  0.00  0.00     0.042 H 
ATOM     39  H17 M1S d          55.501  76.643  -2.321  0.00  0.00     0.042 H 
ATOM     40  H18 M1S d          56.452  79.345  -3.385  0.00  0.00     0.075 H 
ATOM     41  H19 M1S d          54.841  78.594  -3.644  0.00  0.00     0.075 H 
ENDROOT
BRANCH   3  42
ATOM     42  O3  M1S d          54.394  74.681  -6.410  0.00  0.00    -0.360 OA
ATOM     43  H20 M1S d          54.566  74.182  -5.620  0.00  0.00     0.217 HD
ENDBRANCH   3  42
BRANCH   5  44
ATOM     44  O4  M1S d          58.012  73.912  -9.426  0.00  0.00    -0.359 OA
ATOM     45  H21 M1S d          58.206  74.426 -10.201  0.00  0.00     0.217 HD
ENDBRANCH   5  44
TORSDOF 2
ENDMDL
MODEL 3
REMARK VINA RESULT:      -6.9      2.687      6.083
REMARK  2 active torsions:
REMARK  status: ('A' for Active; 'I' for Inactive)
REMARK    1  A    between atoms: C3_3  and  O3_20 
REMARK    2  A    between atoms: C5_5  and  O4_21 
ROOT
ATOM      1  C1  M1S d          60.337  76.914  -3.334  0.00  0.00     0.296 C 
ATOM      2  C2  M1S d          60.441  77.436  -4.737  0.00  0.00     0.081 A 
ATOM      3  C3  M1S d          61.009  78.708  -4.933  0.00  0.00     0.085 A 
ATOM      4  C4  M1S d          61.106  79.278  -6.194  0.00  0.00    -0.016 A 
ATOM      5  C5  M1S d          60.604  78.538  -7.268  0.00  0.00     0.090 A 
ATOM      6  C6  M1S d          60.065  77.301  -7.048  0.00  0.00     0.075 A 
ATOM      7  C7  M1S d          59.946  76.697  -5.807  0.00  0.00    -0.008 A 
ATOM      8  C8  M1S d          59.326  75.299  -5.673  0.00  0.00     0.017 C 
ATOM      9  C9  M1S d          57.850  75.274  -5.403  0.00  0.00     0.131 C 
ATOM     10  C10 M1S d          56.967  76.457  -5.682  0.00  0.00    -0.009 C 
ATOM     11  C11 M1S d          55.509  76.141  -5.326  0.00  0.00    -0.059 C 
ATOM     12  C12 M1S d          54.619  77.366  -5.464  0.00  0.00    -0.064 C 
ATOM     13  C13 M1S d          55.013  78.494  -4.510  0.00  0.00    -0.062 C 
ATOM     14  C14 M1S d          54.789  78.083  -3.056  0.00  0.00    -0.050 C 
ATOM     15  C15 M1S d          56.117  77.974  -2.341  0.00  0.00    -0.106 C 
ATOM     16  C16 M1S d          56.500  76.814  -1.813  0.00  0.00    -0.105 C 
ATOM     17  C17 M1S d          57.820  76.702  -1.084  0.00  0.00    -0.030 C 
ATOM     18  C18 M1S d          58.851  75.799  -1.754  0.00  0.00     0.032 C 
ATOM     19  O2  M1S d          61.166  77.061  -2.461  0.00  0.00    -0.259 OA
ATOM     20 CL1  M1S d          59.531  76.397  -8.474  0.00  0.00    -0.081 Cl
ATOM     21  O5  M1S d          57.402  74.203  -4.985  0.00  0.00    -0.298 OA
ATOM     22  O1  M1S d          59.088  76.303  -3.095  0.00  0.00    -0.317 OA
ATOM     23  H1  M1S d          61.553  80.255  -6.341  0.00  0.00     0.092 H 
ATOM     24  H2  M1S d          59.831  74.781  -4.845  0.00  0.00     0.051 H 
ATOM     25  H3  M1S d          59.509  74.755  -6.612  0.00  0.00     0.051 H 
ATOM     26  H4  M1S d          57.031  76.711  -6.750  0.00  0.00     0.044 H 
ATOM     27  H5  M1S d          57.308  77.312  -5.081  0.00  0.00     0.044 H 
ATOM     28  H6  M1S d          55.465  75.784  -4.286  0.00  0.00     0.033 H 
ATOM     29  H7  M1S d          55.140  75.354  -6.000  0.00  0.00     0.033 H 
ATOM     30  H8  M1S d          53.581  77.072  -5.250  0.00  0.00     0.033 H 
ATOM     31  H9  M1S d          54.690  77.739  -6.497  0.00  0.00     0.033 H 
ATOM     32  H10 M1S d          54.401  79.382  -4.732  0.00  0.00     0.033 H 
ATOM     33  H11 M1S d          56.076  78.735  -4.657  0.00  0.00     0.033 H 
ATOM     34  H12 M1S d          54.278  77.110  -3.026  0.00  0.00     0.038 H 
ATOM     35  H13 M1S d          54.166  78.840  -2.556  0.00  0.00     0.038 H 
ATOM     36  H14 M1S d          56.762  78.847  -2.257  0.00  0.00     0.076 H 
ATOM     37  H15 M1S d          55.859  75.939  -1.908  0.00  0.00     0.076 H 
ATOM     38  H16 M1S d          57.621  76.304  -0.078  0.00  0.00     0.042 H 
ATOM     39  H17 M1S d          58.251  77.710  -1.002  0.00  0.00     0.042 H 
ATOM     40  H18 M1S d          58.468  74.770  -1.804  0.00  0.00     0.075 H 
ATOM     41  H19 M1S d          59.789  75.814  -1.179  0.00  0.00     0.075 H 
ENDROOT
BRANCH   3  42
ATOM     42  O3  M1S d          61.525  79.414  -3.860  0.00  0.00    -0.360 OA
ATOM     43  H20 M1S d          62.026  80.154  -4.180  0.00  0.00     0.217 HD
ENDBRANCH   3  42
BRANCH   5  44
ATOM     44  O4  M1S d          60.627  79.068  -8.534  0.00  0.00    -0.359 OA
ATOM     45  H21 M1S d          59.755  79.029  -8.910  0.00  0.00     0.217 HD
ENDBRANCH   5  44
TORSDOF 2
ENDMDL
