REMARK  8 active torsions:
REMARK  status: ('A' for Active; 'I' for Inactive)
REMARK    1  A    between atoms: CAA_1  and  OAN_2 
REMARK    2  A    between atoms: OAN_2  and  CAR_3 
REMARK    3  A    between atoms: CAQ_8  and  CAL_9 
REMARK    4  A    between atoms: CAL_9  and  CAU_10 
REMARK    5  A    between atoms: CAT_13  and  OAF_14 
REMARK    6  A    between atoms: CAS_15  and  OAE_16 
REMARK    7  A    between atoms: CAV_18  and  CAO_19 
REMARK    8  A    between atoms: CAV_18  and  OAG_22 
ROOT
ATOM      1  CAU XNW d          13.369   2.705  38.852  0.00  0.00     0.050 C 
ATOM      2  CAP XNW d          13.762   3.375  40.168  0.00  0.00     0.165 C 
ATOM      3  OAC XNW d          14.528   4.341  40.200  0.00  0.00    -0.294 OA
ATOM      4  CAT XNW d          13.182   2.849  41.463  0.00  0.00     0.118 C 
ATOM      5  CAS XNW d          11.667   2.729  41.295  0.00  0.00     0.070 C 
ATOM      6  CAM XNW d          11.243   2.027  39.981  0.00  0.00     0.001 C 
ATOM      7  CAV XNW d          11.843   2.666  38.721  0.00  0.00     0.158 C 
ATOM      8  H10 XNW d          13.741   1.670  38.853  0.00  0.00     0.058 H 
ATOM      9  H11 XNW d          13.623   1.873  41.716  0.00  0.00     0.099 H 
ATOM     10  H13 XNW d          11.247   3.746  41.275  0.00  0.00     0.087 H 
ATOM     11  H15 XNW d          10.146   2.068  39.903  0.00  0.00     0.042 H 
ATOM     12  H16 XNW d          11.568   0.977  40.027  0.00  0.00     0.042 H 
ENDROOT
BRANCH   1  13
ATOM     13  CAL XNW d          14.032   3.454  37.703  0.00  0.00    -0.028 C 
ATOM     14  H8  XNW d          13.405   3.331  36.808  0.00  0.00     0.041 H 
ATOM     15  H9  XNW d          14.081   4.519  37.973  0.00  0.00     0.041 H 
BRANCH  13  16
ATOM     16  CAQ XNW d          15.449   2.984  37.360  0.00  0.00    -0.057 A 
ATOM     17  CAI XNW d          15.568   2.155  36.286  0.00  0.00    -0.074 A 
ATOM     18  CAK XNW d          16.801   1.694  35.864  0.00  0.00    -0.050 A 
ATOM     19  H5  XNW d          14.676   1.850  35.750  0.00  0.00     0.084 H 
ATOM     20  CAR XNW d          17.974   2.016  36.494  0.00  0.00     0.068 A 
ATOM     21  H4  XNW d          16.841   1.048  34.995  0.00  0.00     0.087 H 
ATOM     22  CAJ XNW d          17.885   2.858  37.601  0.00  0.00    -0.050 A 
ATOM     23  CAH XNW d          16.624   3.333  38.023  0.00  0.00    -0.074 A 
ATOM     24  H6  XNW d          18.782   3.148  38.137  0.00  0.00     0.087 H 
ATOM     25  H7  XNW d          16.568   3.987  38.886  0.00  0.00     0.084 H 
BRANCH  20  26
ATOM     26  OAN XNW d          19.130   1.471  35.962  0.00  0.00    -0.356 OA
BRANCH  26  27
ATOM     27  CAA XNW d          20.244   1.668  36.833  0.00  0.00     0.010 C 
ATOM     28  H1  XNW d          21.144   1.225  36.383  0.00  0.00     0.066 H 
ATOM     29  H2  XNW d          20.043   1.185  37.801  0.00  0.00     0.066 H 
ATOM     30  H3  XNW d          20.403   2.745  36.987  0.00  0.00     0.066 H 
ENDBRANCH  26  27
ENDBRANCH  20  26
ENDBRANCH  13  16
ENDBRANCH   1  13
BRANCH   7  31
ATOM     31  CAO XNW d          11.461   1.807  37.496  0.00  0.00     0.210 C 
ATOM     32  OAD XNW d          11.501   0.552  37.640  0.00  0.00    -0.646 OA
ATOM     33  OAB XNW d          11.061   2.420  36.467  0.00  0.00    -0.646 OA
ENDBRANCH   7  31
BRANCH   7  34
ATOM     34  OAG XNW d          11.276   3.995  38.540  0.00  0.00    -0.378 OA
ATOM     35  H17 XNW d          11.646   4.393  37.761  0.00  0.00     0.211 HD
ENDBRANCH   7  34
BRANCH   4  36
ATOM     36  OAF XNW d          13.444   3.812  42.508  0.00  0.00    -0.385 OA
ATOM     37  H12 XNW d          14.382   3.933  42.598  0.00  0.00     0.210 HD
ENDBRANCH   4  36
BRANCH   5  38
ATOM     38  OAE XNW d          11.138   2.043  42.437  0.00  0.00    -0.392 OA
ATOM     39  H14 XNW d          11.340   2.537  43.223  0.00  0.00     0.210 HD
ENDBRANCH   5  38
TORSDOF 8
