MODEL 1
REMARK VINA RESULT:     -10.6      0.000      0.000
REMARK  8 active torsions:
REMARK  status: ('A' for Active; 'I' for Inactive)
REMARK    1  A    between atoms: CAA_1  and  OAN_2 
REMARK    2  A    between atoms: OAN_2  and  CAR_3 
REMARK    3  A    between atoms: CAQ_8  and  CAL_9 
REMARK    4  A    between atoms: CAL_9  and  CAU_10 
REMARK    5  A    between atoms: CAT_13  and  OAF_14 
REMARK    6  A    between atoms: CAS_15  and  OAE_16 
REMARK    7  A    between atoms: CAV_18  and  CAO_19 
REMARK    8  A    between atoms: CAV_18  and  OAG_22 
ROOT
ATOM      1  CAU XNW d          13.343   2.690  38.857  0.00  0.00     0.050 C 
ATOM      2  CAP XNW d          13.649   3.321  40.215  0.00  0.00     0.165 C 
ATOM      3  OAC XNW d          14.357   4.325  40.318  0.00  0.00    -0.294 OA
ATOM      4  CAT XNW d          13.052   2.706  41.463  0.00  0.00     0.118 C 
ATOM      5  CAS XNW d          11.554   2.511  41.231  0.00  0.00     0.070 C 
ATOM      6  CAM XNW d          11.218   1.847  39.872  0.00  0.00     0.001 C 
ATOM      7  CAV XNW d          11.827   2.574  38.665  0.00  0.00     0.158 C 
ATOM      8  H10 XNW d          13.772   1.678  38.828  0.00  0.00     0.058 H 
ATOM      9  H11 XNW d          13.538   1.746  41.691  0.00  0.00     0.099 H 
ATOM     10  H13 XNW d          11.078   3.504  41.238  0.00  0.00     0.087 H 
ATOM     11  H15 XNW d          10.124   1.831  39.753  0.00  0.00     0.042 H 
ATOM     12  H16 XNW d          11.600   0.815  39.886  0.00  0.00     0.042 H 
ENDROOT
BRANCH   1  13
ATOM     13  CAL XNW d          14.004   3.525  37.768  0.00  0.00    -0.028 C 
ATOM     14  H8  XNW d          13.356   3.504  36.880  0.00  0.00     0.041 H 
ATOM     15  H9  XNW d          14.089   4.559  38.135  0.00  0.00     0.041 H 
BRANCH  13  16
ATOM     16  CAQ XNW d          15.399   3.051  37.351  0.00  0.00    -0.057 A 
ATOM     17  CAI XNW d          15.489   2.419  36.148  0.00  0.00    -0.074 A 
ATOM     18  CAK XNW d          16.702   1.978  35.654  0.00  0.00    -0.050 A 
ATOM     19  H5  XNW d          14.589   2.260  35.564  0.00  0.00     0.084 H 
ATOM     20  CAR XNW d          17.883   2.123  36.334  0.00  0.00     0.068 A 
ATOM     21  H4  XNW d          16.720   1.494  34.685  0.00  0.00     0.087 H 
ATOM     22  CAJ XNW d          17.823   2.761  37.572  0.00  0.00    -0.050 A 
ATOM     23  CAH XNW d          16.583   3.218  38.068  0.00  0.00    -0.074 A 
ATOM     24  H6  XNW d          18.727   2.906  38.153  0.00  0.00     0.087 H 
ATOM     25  H7  XNW d          16.550   3.712  39.033  0.00  0.00     0.084 H 
BRANCH  20  26
ATOM     26  OAN XNW d          19.016   1.622  35.717  0.00  0.00    -0.356 OA
BRANCH  26  27
ATOM     27  CAA XNW d          20.091   1.478  36.646  0.00  0.00     0.010 C 
ATOM     28  H1  XNW d          19.753   0.882  37.506  0.00  0.00     0.066 H 
ATOM     29  H2  XNW d          20.413   2.471  36.992  0.00  0.00     0.066 H 
ATOM     30  H3  XNW d          20.933   0.969  36.155  0.00  0.00     0.066 H 
ENDBRANCH  26  27
ENDBRANCH  20  26
ENDBRANCH  13  16
ENDBRANCH   1  13
BRANCH   7  31
ATOM     31  CAO XNW d          11.539   1.751  37.391  0.00  0.00     0.210 C 
ATOM     32  OAD XNW d          11.241   0.533  37.549  0.00  0.00    -0.646 OA
ATOM     33  OAB XNW d          11.545   2.373  36.292  0.00  0.00    -0.646 OA
ENDBRANCH   7  31
BRANCH   7  34
ATOM     34  OAG XNW d          11.193   3.876  38.519  0.00  0.00    -0.378 OA
ATOM     35  H17 XNW d          11.689   4.402  37.903  0.00  0.00     0.211 HD
ENDBRANCH   7  34
BRANCH   4  36
ATOM     36  OAF XNW d          13.221   3.634  42.557  0.00  0.00    -0.385 OA
ATOM     37  H12 XNW d          12.708   4.416  42.391  0.00  0.00     0.210 HD
ENDBRANCH   4  36
BRANCH   5  38
ATOM     38  OAE XNW d          11.023   1.747  42.321  0.00  0.00    -0.392 OA
ATOM     39  H14 XNW d          11.636   1.059  42.552  0.00  0.00     0.210 HD
ENDBRANCH   5  38
TORSDOF 8
ENDMDL
