MODEL 1
REMARK VINA RESULT:      -4.7      0.000      0.000
REMARK  6 active torsions:
REMARK  status: ('A' for Active; 'I' for Inactive)
REMARK    1  A    between atoms: N_1  and  CA_2 
REMARK    2  A    between atoms: CA_2  and  C_3 
REMARK    3  A    between atoms: CA_2  and  CB_5 
REMARK    4  A    between atoms: CB_5  and  CG_6 
REMARK    5  A    between atoms: CG_6  and  CD1_7 
REMARK    6  A    between atoms: CG_6  and  CD2_8 
ROOT
ATOM      1  CB  LEU d          33.857  -2.811  38.399  0.00  0.00    -0.026 C 
ATOM      2  H5  LEU d          33.363  -3.178  39.311  0.00  0.00     0.037 H 
ATOM      3  H6  LEU d          34.284  -3.660  37.846  0.00  0.00     0.037 H 
ENDROOT
BRANCH   1   4
ATOM      4  CA  LEU d          34.981  -1.821  38.780  0.00  0.00     0.182 C 
ATOM      5  H4  LEU d          34.517  -0.883  39.120  0.00  0.00     0.101 H 
BRANCH   4   6
ATOM      6  N   LEU d          35.856  -1.518  37.608  0.00  0.00    -0.065 N 
ATOM      7  H1  LEU d          35.295  -1.141  36.859  0.00  0.00     0.275 HD
ATOM      8  H2  LEU d          36.307  -2.363  37.298  0.00  0.00     0.275 HD
ATOM      9  H3  LEU d          36.555  -0.843  37.876  0.00  0.00     0.275 HD
ENDBRANCH   4   6
BRANCH   4  10
ATOM     10  C   LEU d          35.824  -2.391  39.918  0.00  0.00     0.204 C 
ATOM     11  O   LEU d          35.260  -2.716  40.965  0.00  0.00    -0.646 OA
ATOM     12  OXT LEU d          37.047  -2.507  39.581  0.00  0.00    -0.646 OA
ENDBRANCH   4  10
ENDBRANCH   1   4
BRANCH   1  13
ATOM     13  CG  LEU d          32.843  -2.089  37.523  0.00  0.00    -0.059 C 
ATOM     14  H7  LEU d          33.240  -1.080  37.337  0.00  0.00     0.038 H 
BRANCH  13  15
ATOM     15  CD1 LEU d          32.628  -2.718  36.169  0.00  0.00    -0.073 C 
ATOM     16  H8  LEU d          31.884  -2.134  35.608  0.00  0.00     0.028 H 
ATOM     17  H9  LEU d          32.265  -3.749  36.297  0.00  0.00     0.028 H 
ATOM     18  H10 LEU d          33.578  -2.730  35.616  0.00  0.00     0.028 H 
ENDBRANCH  13  15
BRANCH  13  19
ATOM     19  CD2 LEU d          31.540  -1.930  38.296  0.00  0.00    -0.073 C 
ATOM     20  H11 LEU d          31.747  -1.469  39.273  0.00  0.00     0.028 H 
ATOM     21  H12 LEU d          31.080  -2.918  38.447  0.00  0.00     0.028 H 
ATOM     22  H13 LEU d          30.852  -1.289  37.726  0.00  0.00     0.028 H 
ENDBRANCH  13  19
ENDBRANCH   1  13
TORSDOF 6
ENDMDL
