MODEL 1
REMARK VINA RESULT:      -4.8      0.000      0.000
REMARK  6 active torsions:
REMARK  status: ('A' for Active; 'I' for Inactive)
REMARK    1  A    between atoms: N_1  and  CA_2 
REMARK    2  A    between atoms: CA_2  and  C_3 
REMARK    3  A    between atoms: CA_2  and  CB_5 
REMARK    4  A    between atoms: CB_5  and  CG_6 
REMARK    5  A    between atoms: CG_6  and  CD1_7 
REMARK    6  A    between atoms: CG_6  and  CD2_8 
ROOT
ATOM      1  CB  LEU d          33.568  -3.342  37.961  0.00  0.00    -0.026 C 
ATOM      2  H5  LEU d          33.370  -3.973  38.840  0.00  0.00     0.037 H 
ATOM      3  H6  LEU d          34.088  -3.935  37.194  0.00  0.00     0.037 H 
ENDROOT
BRANCH   1   4
ATOM      4  CA  LEU d          34.448  -2.140  38.372  0.00  0.00     0.182 C 
ATOM      5  H4  LEU d          33.858  -1.220  38.247  0.00  0.00     0.101 H 
BRANCH   4   6
ATOM      6  N   LEU d          35.666  -2.041  37.514  0.00  0.00    -0.065 N 
ATOM      7  H1  LEU d          36.373  -2.671  37.861  0.00  0.00     0.275 HD
ATOM      8  H2  LEU d          36.016  -1.097  37.535  0.00  0.00     0.275 HD
ATOM      9  H3  LEU d          35.429  -2.290  36.566  0.00  0.00     0.275 HD
ENDBRANCH   4   6
BRANCH   4  10
ATOM     10  C   LEU d          34.858  -2.262  39.838  0.00  0.00     0.204 C 
ATOM     11  O   LEU d          35.793  -1.571  40.249  0.00  0.00    -0.646 OA
ATOM     12  OXT LEU d          34.097  -3.063  40.471  0.00  0.00    -0.646 OA
ENDBRANCH   4  10
ENDBRANCH   1   4
BRANCH   1  13
ATOM     13  CG  LEU d          32.254  -2.821  37.400  0.00  0.00    -0.059 C 
ATOM     14  H7  LEU d          31.540  -3.658  37.422  0.00  0.00     0.038 H 
BRANCH  13  15
ATOM     15  CD1 LEU d          31.629  -1.708  38.204  0.00  0.00    -0.073 C 
ATOM     16  H8  LEU d          32.295  -0.833  38.197  0.00  0.00     0.028 H 
ATOM     17  H9  LEU d          31.477  -2.045  39.240  0.00  0.00     0.028 H 
ATOM     18  H10 LEU d          30.660  -1.435  37.761  0.00  0.00     0.028 H 
ENDBRANCH  13  15
BRANCH  13  19
ATOM     19  CD2 LEU d          32.454  -2.431  35.941  0.00  0.00    -0.073 C 
ATOM     20  H11 LEU d          31.509  -2.046  35.531  0.00  0.00     0.028 H 
ATOM     21  H12 LEU d          32.770  -3.314  35.366  0.00  0.00     0.028 H 
ATOM     22  H13 LEU d          33.228  -1.653  35.872  0.00  0.00     0.028 H 
ENDBRANCH  13  19
ENDBRANCH   1  13
TORSDOF 6
ENDMDL
MODEL 2
REMARK VINA RESULT:      -4.6      1.667      2.182
REMARK  6 active torsions:
REMARK  status: ('A' for Active; 'I' for Inactive)
REMARK    1  A    between atoms: N_1  and  CA_2 
REMARK    2  A    between atoms: CA_2  and  C_3 
REMARK    3  A    between atoms: CA_2  and  CB_5 
REMARK    4  A    between atoms: CB_5  and  CG_6 
REMARK    5  A    between atoms: CG_6  and  CD1_7 
REMARK    6  A    between atoms: CG_6  and  CD2_8 
ROOT
ATOM      1  CB  LEU d          33.472  -2.354  37.252  0.00  0.00    -0.026 C 
ATOM      2  H5  LEU d          33.574  -3.449  37.248  0.00  0.00     0.037 H 
ATOM      3  H6  LEU d          33.757  -1.956  36.267  0.00  0.00     0.037 H 
ENDROOT
BRANCH   1   4
ATOM      4  CA  LEU d          34.390  -1.751  38.341  0.00  0.00     0.182 C 
ATOM      5  H4  LEU d          33.977  -2.013  39.326  0.00  0.00     0.101 H 
BRANCH   4   6
ATOM      6  N   LEU d          34.452  -0.263  38.234  0.00  0.00    -0.065 N 
ATOM      7  H1  LEU d          34.271   0.147  39.138  0.00  0.00     0.275 HD
ATOM      8  H2  LEU d          33.758   0.055  37.576  0.00  0.00     0.275 HD
ATOM      9  H3  LEU d          35.367   0.013  37.917  0.00  0.00     0.275 HD
ENDBRANCH   4   6
BRANCH   4  10
ATOM     10  C   LEU d          35.796  -2.335  38.229  0.00  0.00     0.204 C 
ATOM     11  O   LEU d          36.232  -2.617  37.111  0.00  0.00    -0.646 OA
ATOM     12  OXT LEU d          36.367  -2.399  39.366  0.00  0.00    -0.646 OA
ENDBRANCH   4  10
ENDBRANCH   1   4
BRANCH   1  13
ATOM     13  CG  LEU d          32.031  -1.975  37.560  0.00  0.00    -0.059 C 
ATOM     14  H7  LEU d          31.892  -0.938  37.218  0.00  0.00     0.038 H 
BRANCH  13  15
ATOM     15  CD1 LEU d          31.000  -2.804  36.835  0.00  0.00    -0.073 C 
ATOM     16  H8  LEU d          30.102  -2.195  36.653  0.00  0.00     0.028 H 
ATOM     17  H9  LEU d          30.733  -3.676  37.450  0.00  0.00     0.028 H 
ATOM     18  H10 LEU d          31.413  -3.145  35.875  0.00  0.00     0.028 H 
ENDBRANCH  13  15
BRANCH  13  19
ATOM     19  CD2 LEU d          31.823  -1.989  39.068  0.00  0.00    -0.073 C 
ATOM     20  H11 LEU d          32.799  -1.952  39.574  0.00  0.00     0.028 H 
ATOM     21  H12 LEU d          31.295  -2.910  39.357  0.00  0.00     0.028 H 
ATOM     22  H13 LEU d          31.224  -1.115  39.364  0.00  0.00     0.028 H 
ENDBRANCH  13  19
ENDBRANCH   1  13
TORSDOF 6
ENDMDL
MODEL 3
REMARK VINA RESULT:      -3.8      1.970      2.308
REMARK  6 active torsions:
REMARK  status: ('A' for Active; 'I' for Inactive)
REMARK    1  A    between atoms: N_1  and  CA_2 
REMARK    2  A    between atoms: CA_2  and  C_3 
REMARK    3  A    between atoms: CA_2  and  CB_5 
REMARK    4  A    between atoms: CB_5  and  CG_6 
REMARK    5  A    between atoms: CG_6  and  CD1_7 
REMARK    6  A    between atoms: CG_6  and  CD2_8 
ROOT
ATOM      1  CB  LEU d          32.288  -1.703  39.430  0.00  0.00    -0.026 C 
ATOM      2  H5  LEU d          32.842  -0.766  39.591  0.00  0.00     0.037 H 
ATOM      3  H6  LEU d          31.499  -1.797  40.190  0.00  0.00     0.037 H 
ENDROOT
BRANCH   1   4
ATOM      4  CA  LEU d          33.257  -2.904  39.536  0.00  0.00     0.182 C 
ATOM      5  H4  LEU d          32.950  -3.662  38.800  0.00  0.00     0.101 H 
BRANCH   4   6
ATOM      6  N   LEU d          33.212  -3.518  40.896  0.00  0.00    -0.065 N 
ATOM      7  H1  LEU d          32.258  -3.539  41.224  0.00  0.00     0.275 HD
ATOM      8  H2  LEU d          33.773  -2.971  41.530  0.00  0.00     0.275 HD
ATOM      9  H3  LEU d          33.573  -4.457  40.853  0.00  0.00     0.275 HD
ENDBRANCH   4   6
BRANCH   4  10
ATOM     10  C   LEU d          34.683  -2.461  39.216  0.00  0.00     0.204 C 
ATOM     11  O   LEU d          35.193  -2.834  38.157  0.00  0.00    -0.646 OA
ATOM     12  OXT LEU d          35.143  -1.685  40.114  0.00  0.00    -0.646 OA
ENDBRANCH   4  10
ENDBRANCH   1   4
BRANCH   1  13
ATOM     13  CG  LEU d          31.664  -1.696  38.042  0.00  0.00    -0.059 C 
ATOM     14  H7  LEU d          30.642  -1.305  38.153  0.00  0.00     0.038 H 
BRANCH  13  15
ATOM     15  CD1 LEU d          32.359  -0.798  37.050  0.00  0.00    -0.073 C 
ATOM     16  H8  LEU d          33.448  -0.868  37.192  0.00  0.00     0.028 H 
ATOM     17  H9  LEU d          32.035   0.241  37.206  0.00  0.00     0.028 H 
ATOM     18  H10 LEU d          32.101  -1.113  36.028  0.00  0.00     0.028 H 
ENDBRANCH  13  15
BRANCH  13  19
ATOM     19  CD2 LEU d          31.552  -3.130  37.539  0.00  0.00    -0.073 C 
ATOM     20  H11 LEU d          30.650  -3.597  37.961  0.00  0.00     0.028 H 
ATOM     21  H12 LEU d          32.440  -3.699  37.851  0.00  0.00     0.028 H 
ATOM     22  H13 LEU d          31.484  -3.129  36.442  0.00  0.00     0.028 H 
ENDBRANCH  13  19
ENDBRANCH   1  13
TORSDOF 6
ENDMDL
MODEL 4
REMARK VINA RESULT:      -3.8      2.664      4.013
REMARK  6 active torsions:
REMARK  status: ('A' for Active; 'I' for Inactive)
REMARK    1  A    between atoms: N_1  and  CA_2 
REMARK    2  A    between atoms: CA_2  and  C_3 
REMARK    3  A    between atoms: CA_2  and  CB_5 
REMARK    4  A    between atoms: CB_5  and  CG_6 
REMARK    5  A    between atoms: CG_6  and  CD1_7 
REMARK    6  A    between atoms: CG_6  and  CD2_8 
ROOT
ATOM      1  CB  LEU d          34.039  -1.058  39.065  0.00  0.00    -0.026 C 
ATOM      2  H5  LEU d          34.251  -0.387  39.911  0.00  0.00     0.037 H 
ATOM      3  H6  LEU d          34.098  -0.491  38.124  0.00  0.00     0.037 H 
ENDROOT
BRANCH   1   4
ATOM      4  CA  LEU d          32.624  -1.660  39.221  0.00  0.00     0.182 C 
ATOM      5  H4  LEU d          31.949  -0.870  39.582  0.00  0.00     0.101 H 
BRANCH   4   6
ATOM      6  N   LEU d          32.617  -2.778  40.211  0.00  0.00    -0.065 N 
ATOM      7  H1  LEU d          33.287  -3.479  39.931  0.00  0.00     0.275 HD
ATOM      8  H2  LEU d          31.698  -3.188  40.248  0.00  0.00     0.275 HD
ATOM      9  H3  LEU d          32.863  -2.422  41.121  0.00  0.00     0.275 HD
ENDBRANCH   4   6
BRANCH   4  10
ATOM     10  C   LEU d          32.112  -2.162  37.872  0.00  0.00     0.204 C 
ATOM     11  O   LEU d          31.525  -3.246  37.830  0.00  0.00    -0.646 OA
ATOM     12  OXT LEU d          32.329  -1.316  36.946  0.00  0.00    -0.646 OA
ENDBRANCH   4  10
ENDBRANCH   1   4
BRANCH   1  13
ATOM     13  CG  LEU d          35.055  -2.190  39.043  0.00  0.00    -0.059 C 
ATOM     14  H7  LEU d          34.497  -3.126  39.198  0.00  0.00     0.038 H 
BRANCH  13  15
ATOM     15  CD1 LEU d          35.789  -2.345  37.735  0.00  0.00    -0.073 C 
ATOM     16  H8  LEU d          35.682  -3.379  37.375  0.00  0.00     0.028 H 
ATOM     17  H9  LEU d          36.855  -2.117  37.883  0.00  0.00     0.028 H 
ATOM     18  H10 LEU d          35.366  -1.652  36.993  0.00  0.00     0.028 H 
ENDBRANCH  13  15
BRANCH  13  19
ATOM     19  CD2 LEU d          36.008  -2.028  40.220  0.00  0.00    -0.073 C 
ATOM     20  H11 LEU d          36.863  -2.708  40.097  0.00  0.00     0.028 H 
ATOM     21  H12 LEU d          35.480  -2.268  41.155  0.00  0.00     0.028 H 
ATOM     22  H13 LEU d          36.368  -0.990  40.260  0.00  0.00     0.028 H 
ENDBRANCH  13  19
ENDBRANCH   1  13
TORSDOF 6
ENDMDL
MODEL 5
REMARK VINA RESULT:      -3.5      2.500      3.892
REMARK  6 active torsions:
REMARK  status: ('A' for Active; 'I' for Inactive)
REMARK    1  A    between atoms: N_1  and  CA_2 
REMARK    2  A    between atoms: CA_2  and  C_3 
REMARK    3  A    between atoms: CA_2  and  CB_5 
REMARK    4  A    between atoms: CB_5  and  CG_6 
REMARK    5  A    between atoms: CG_6  and  CD1_7 
REMARK    6  A    between atoms: CG_6  and  CD2_8 
ROOT
ATOM      1  CB  LEU d          33.982  -2.436  39.216  0.00  0.00    -0.026 C 
ATOM      2  H5  LEU d          33.901  -3.532  39.169  0.00  0.00     0.037 H 
ATOM      3  H6  LEU d          33.321  -2.054  40.008  0.00  0.00     0.037 H 
ENDROOT
BRANCH   1   4
ATOM      4  CA  LEU d          33.571  -1.826  37.857  0.00  0.00     0.182 C 
ATOM      5  H4  LEU d          34.460  -1.791  37.209  0.00  0.00     0.101 H 
BRANCH   4   6
ATOM      6  N   LEU d          33.051  -0.436  38.022  0.00  0.00    -0.065 N 
ATOM      7  H1  LEU d          32.043  -0.455  38.050  0.00  0.00     0.275 HD
ATOM      8  H2  LEU d          33.354   0.131  37.246  0.00  0.00     0.275 HD
ATOM      9  H3  LEU d          33.404  -0.046  38.881  0.00  0.00     0.275 HD
ENDBRANCH   4   6
BRANCH   4  10
ATOM     10  C   LEU d          32.511  -2.697  37.186  0.00  0.00     0.204 C 
ATOM     11  O   LEU d          31.625  -3.193  37.885  0.00  0.00    -0.646 OA
ATOM     12  OXT LEU d          32.674  -2.741  35.923  0.00  0.00    -0.646 OA
ENDBRANCH   4  10
ENDBRANCH   1   4
BRANCH   1  13
ATOM     13  CG  LEU d          35.420  -2.041  39.517  0.00  0.00    -0.059 C 
ATOM     14  H7  LEU d          35.431  -0.950  39.657  0.00  0.00     0.038 H 
BRANCH  13  15
ATOM     15  CD1 LEU d          35.979  -2.639  40.784  0.00  0.00    -0.073 C 
ATOM     16  H8  LEU d          36.778  -3.352  40.531  0.00  0.00     0.028 H 
ATOM     17  H9  LEU d          35.179  -3.163  41.327  0.00  0.00     0.028 H 
ATOM     18  H10 LEU d          36.389  -1.838  41.417  0.00  0.00     0.028 H 
ENDBRANCH  13  15
BRANCH  13  19
ATOM     19  CD2 LEU d          36.287  -2.353  38.304  0.00  0.00    -0.073 C 
ATOM     20  H11 LEU d          36.690  -1.417  37.890  0.00  0.00     0.028 H 
ATOM     21  H12 LEU d          35.679  -2.860  37.539  0.00  0.00     0.028 H 
ATOM     22  H13 LEU d          37.117  -3.008  38.605  0.00  0.00     0.028 H 
ENDBRANCH  13  19
ENDBRANCH   1  13
TORSDOF 6
ENDMDL
MODEL 6
REMARK VINA RESULT:      -3.4      2.435      3.727
REMARK  6 active torsions:
REMARK  status: ('A' for Active; 'I' for Inactive)
REMARK    1  A    between atoms: N_1  and  CA_2 
REMARK    2  A    between atoms: CA_2  and  C_3 
REMARK    3  A    between atoms: CA_2  and  CB_5 
REMARK    4  A    between atoms: CB_5  and  CG_6 
REMARK    5  A    between atoms: CG_6  and  CD1_7 
REMARK    6  A    between atoms: CG_6  and  CD2_8 
ROOT
ATOM      1  CB  LEU d          33.515  -2.982  38.778  0.00  0.00    -0.026 C 
ATOM      2  H5  LEU d          33.945  -3.943  39.099  0.00  0.00     0.037 H 
ATOM      3  H6  LEU d          32.718  -2.686  39.475  0.00  0.00     0.037 H 
ENDROOT
BRANCH   1   4
ATOM      4  CA  LEU d          32.932  -3.125  37.353  0.00  0.00     0.182 C 
ATOM      5  H4  LEU d          32.869  -4.196  37.110  0.00  0.00     0.101 H 
BRANCH   4   6
ATOM      6  N   LEU d          33.807  -2.461  36.342  0.00  0.00    -0.065 N 
ATOM      7  H1  LEU d          33.497  -1.512  36.200  0.00  0.00     0.275 HD
ATOM      8  H2  LEU d          33.756  -2.965  35.471  0.00  0.00     0.275 HD
ATOM      9  H3  LEU d          34.759  -2.457  36.672  0.00  0.00     0.275 HD
ENDBRANCH   4   6
BRANCH   4  10
ATOM     10  C   LEU d          31.529  -2.526  37.294  0.00  0.00     0.204 C 
ATOM     11  O   LEU d          30.784  -2.858  36.369  0.00  0.00    -0.646 OA
ATOM     12  OXT LEU d          31.300  -1.772  38.294  0.00  0.00    -0.646 OA
ENDBRANCH   4  10
ENDBRANCH   1   4
BRANCH   1  13
ATOM     13  CG  LEU d          34.600  -1.916  38.760  0.00  0.00    -0.059 C 
ATOM     14  H7  LEU d          34.985  -1.867  37.731  0.00  0.00     0.038 H 
BRANCH  13  15
ATOM     15  CD1 LEU d          34.118  -0.529  39.101  0.00  0.00    -0.073 C 
ATOM     16  H8  LEU d          33.098  -0.390  38.714  0.00  0.00     0.028 H 
ATOM     17  H9  LEU d          34.787   0.215  38.644  0.00  0.00     0.028 H 
ATOM     18  H10 LEU d          34.117  -0.399  40.193  0.00  0.00     0.028 H 
ENDBRANCH  13  15
BRANCH  13  19
ATOM     19  CD2 LEU d          35.749  -2.361  39.656  0.00  0.00    -0.073 C 
ATOM     20  H11 LEU d          35.701  -1.818  40.612  0.00  0.00     0.028 H 
ATOM     21  H12 LEU d          36.707  -2.143  39.160  0.00  0.00     0.028 H 
ATOM     22  H13 LEU d          35.672  -3.441  39.844  0.00  0.00     0.028 H 
ENDBRANCH  13  19
ENDBRANCH   1  13
TORSDOF 6
ENDMDL
MODEL 7
REMARK VINA RESULT:      -2.1      2.029      2.198
REMARK  6 active torsions:
REMARK  status: ('A' for Active; 'I' for Inactive)
REMARK    1  A    between atoms: N_1  and  CA_2 
REMARK    2  A    between atoms: CA_2  and  C_3 
REMARK    3  A    between atoms: CA_2  and  CB_5 
REMARK    4  A    between atoms: CB_5  and  CG_6 
REMARK    5  A    between atoms: CG_6  and  CD1_7 
REMARK    6  A    between atoms: CG_6  and  CD2_8 
ROOT
ATOM      1  CB  LEU d          33.833  -3.000  37.818  0.00  0.00    -0.026 C 
ATOM      2  H5  LEU d          34.183  -4.039  37.914  0.00  0.00     0.037 H 
ATOM      3  H6  LEU d          34.518  -2.441  37.164  0.00  0.00     0.037 H 
ENDROOT
BRANCH   1   4
ATOM      4  CA  LEU d          33.787  -2.335  39.212  0.00  0.00     0.182 C 
ATOM      5  H4  LEU d          34.681  -2.646  39.773  0.00  0.00     0.101 H 
BRANCH   4   6
ATOM      6  N   LEU d          32.577  -2.762  39.976  0.00  0.00    -0.065 N 
ATOM      7  H1  LEU d          31.975  -3.305  39.376  0.00  0.00     0.275 HD
ATOM      8  H2  LEU d          32.082  -1.948  40.303  0.00  0.00     0.275 HD
ATOM      9  H3  LEU d          32.859  -3.322  40.765  0.00  0.00     0.275 HD
ENDBRANCH   4   6
BRANCH   4  10
ATOM     10  C   LEU d          33.800  -0.815  39.074  0.00  0.00     0.204 C 
ATOM     11  O   LEU d          33.159  -0.143  39.885  0.00  0.00    -0.646 OA
ATOM     12  OXT LEU d          34.557  -0.439  38.121  0.00  0.00    -0.646 OA
ENDBRANCH   4  10
ENDBRANCH   1   4
BRANCH   1  13
ATOM     13  CG  LEU d          32.433  -2.986  37.221  0.00  0.00    -0.059 C 
ATOM     14  H7  LEU d          32.037  -4.009  37.307  0.00  0.00     0.038 H 
BRANCH  13  15
ATOM     15  CD1 LEU d          31.457  -2.090  37.941  0.00  0.00    -0.073 C 
ATOM     16  H8  LEU d          31.966  -1.163  38.245  0.00  0.00     0.028 H 
ATOM     17  H9  LEU d          31.073  -2.607  38.833  0.00  0.00     0.028 H 
ATOM     18  H10 LEU d          30.620  -1.846  37.270  0.00  0.00     0.028 H 
ENDBRANCH  13  15
BRANCH  13  19
ATOM     19  CD2 LEU d          32.527  -2.657  35.737  0.00  0.00    -0.073 C 
ATOM     20  H11 LEU d          33.508  -2.974  35.352  0.00  0.00     0.028 H 
ATOM     21  H12 LEU d          32.409  -1.573  35.593  0.00  0.00     0.028 H 
ATOM     22  H13 LEU d          31.732  -3.187  35.193  0.00  0.00     0.028 H 
ENDBRANCH  13  19
ENDBRANCH   1  13
TORSDOF 6
ENDMDL
