MODEL 1
REMARK VINA RESULT:     -10.3      0.000      0.000
REMARK  11 active torsions:
REMARK  status: ('A' for Active; 'I' for Inactive)
REMARK    1  A    between atoms: CAZ_1  and  CAN_2 
REMARK    2  A    between atoms: CAN_2  and  CBA_3 
REMARK    3  A    between atoms: CAN_2  and  CAL_4 
REMARK       I    between atoms: CAL_4  and  NAK_6 
REMARK    4  A    between atoms: NAK_6  and  CAC_7 
REMARK    5  A    between atoms: CAB_8  and  OAG_9 
REMARK    6  A    between atoms: CAA_10  and  OAH_11 
REMARK    7  A    between atoms: CAF_12  and  CAI_13 
REMARK    8  A    between atoms: CAI_13  and  OAJ_14 
REMARK    9  A    between atoms: CAP_19  and  CAR_20 
REMARK   10  A    between atoms: CAR_20  and  CAS_21 
REMARK   11  A    between atoms: CAS_21  and  CAT_22 
ROOT
ATOM      1  CAC GSZ d          33.027  42.851  21.127  0.00  0.00     0.097 C 
ATOM      2  CAB GSZ d          32.453  43.166  22.508  0.00  0.00     0.088 C 
ATOM      3  CAA GSZ d          30.983  42.736  22.697  0.00  0.00     0.084 C 
ATOM      4  CAF GSZ d          30.908  41.220  22.485  0.00  0.00     0.065 C 
ATOM      5  NAE GSZ d          31.250  40.954  21.059  0.00  0.00    -0.332 N 
ATOM      6  CAQ GSZ d          30.806  40.077  20.158  0.00  0.00     0.005 A 
ATOM      7  CAD GSZ d          32.261  41.710  20.411  0.00  0.00     0.132 A 
ATOM      8  NAO GSZ d          32.344  41.256  19.162  0.00  0.00    -0.236 NA
ATOM      9  CAP GSZ d          31.452  40.268  18.997  0.00  0.00     0.052 A 
ATOM     10  H9  GSZ d          32.894  43.755  20.514  0.00  0.00     0.089 H 
ATOM     11  H10 GSZ d          33.060  42.660  23.274  0.00  0.00     0.090 H 
ATOM     12  H12 GSZ d          30.351  43.240  21.951  0.00  0.00     0.090 H 
ATOM     13  H14 GSZ d          31.696  40.767  23.106  0.00  0.00     0.080 H 
ATOM     14  H18 GSZ d          30.040  39.324  20.337  0.00  0.00     0.114 H 
ENDROOT
BRANCH   9  15
ATOM     15  CAR GSZ d          31.253  39.429  17.713  0.00  0.00    -0.020 C 
ATOM     16  H19 GSZ d          30.290  38.901  17.774  0.00  0.00     0.042 H 
ATOM     17  H20 GSZ d          32.069  38.697  17.632  0.00  0.00     0.042 H 
BRANCH  15  18
ATOM     18  CAS GSZ d          31.256  40.319  16.476  0.00  0.00    -0.036 C 
ATOM     19  H21 GSZ d          31.402  39.688  15.588  0.00  0.00     0.040 H 
ATOM     20  H22 GSZ d          32.089  41.034  16.558  0.00  0.00     0.040 H 
BRANCH  18  21
ATOM     21  CAT GSZ d          29.940  41.110  16.310  0.00  0.00    -0.058 A 
ATOM     22  CAU GSZ d          29.899  42.493  16.573  0.00  0.00    -0.077 A 
ATOM     23  CAV GSZ d          28.703  43.213  16.447  0.00  0.00    -0.082 A 
ATOM     24  H23 GSZ d          30.803  43.007  16.877  0.00  0.00     0.084 H 
ATOM     25  CAW GSZ d          27.554  42.531  16.045  0.00  0.00    -0.083 A 
ATOM     26  H24 GSZ d          28.672  44.276  16.657  0.00  0.00     0.083 H 
ATOM     27  CAX GSZ d          27.590  41.148  15.782  0.00  0.00    -0.082 A 
ATOM     28  H25 GSZ d          26.621  43.072  15.934  0.00  0.00     0.083 H 
ATOM     29  CAY GSZ d          28.780  40.435  15.907  0.00  0.00    -0.077 A 
ATOM     30  H26 GSZ d          26.685  40.635  15.479  0.00  0.00     0.083 H 
ATOM     31  H27 GSZ d          28.809  39.372  15.696  0.00  0.00     0.084 H 
ENDBRANCH  18  21
ENDBRANCH  15  18
ENDBRANCH   9  15
BRANCH   4  32
ATOM     32  CAI GSZ d          29.578  40.549  22.922  0.00  0.00     0.038 C 
ATOM     33  H15 GSZ d          29.506  39.549  22.472  0.00  0.00     0.077 H 
ATOM     34  H16 GSZ d          28.729  41.164  22.587  0.00  0.00     0.077 H 
BRANCH  32  35
ATOM     35  OAJ GSZ d          29.551  40.436  24.318  0.00  0.00    -0.399 OA
ATOM     36  H17 GSZ d          30.308  39.942  24.610  0.00  0.00     0.209 HD
ENDBRANCH  32  35
ENDBRANCH   4  32
BRANCH   1  37
ATOM     37  NAK GSZ d          34.499  42.581  21.187  0.00  0.00    -0.347 N 
ATOM     38  CAL GSZ d          35.041  41.710  22.059  0.00  0.00     0.221 C 
ATOM     39  OAM GSZ d          34.388  41.059  22.892  0.00  0.00    -0.273 OA
ATOM     40  H8  GSZ d          35.103  43.066  20.556  0.00  0.00     0.163 HD
BRANCH  38  41
ATOM     41  CAN GSZ d          36.576  41.557  21.946  0.00  0.00     0.017 C 
ATOM     42  H4  GSZ d          36.831  41.475  20.878  0.00  0.00     0.053 H 
BRANCH  41  43
ATOM     43  CAZ GSZ d          37.101  40.298  22.659  0.00  0.00    -0.065 C 
ATOM     44  H1  GSZ d          37.653  39.674  21.941  0.00  0.00     0.028 H 
ATOM     45  H2  GSZ d          36.254  39.726  23.065  0.00  0.00     0.028 H 
ATOM     46  H3  GSZ d          37.772  40.593  23.479  0.00  0.00     0.028 H 
ENDBRANCH  41  43
BRANCH  41  47
ATOM     47  CBA GSZ d          37.257  42.795  22.512  0.00  0.00    -0.065 C 
ATOM     48  H5  GSZ d          37.535  42.613  23.561  0.00  0.00     0.028 H 
ATOM     49  H6  GSZ d          36.567  43.649  22.459  0.00  0.00     0.028 H 
ATOM     50  H7  GSZ d          38.161  43.017  21.926  0.00  0.00     0.028 H 
ENDBRANCH  41  47
ENDBRANCH  38  41
ENDBRANCH   1  37
BRANCH   3  51
ATOM     51  OAH GSZ d          30.530  43.096  24.011  0.00  0.00    -0.391 OA
ATOM     52  H13 GSZ d          31.276  43.153  24.597  0.00  0.00     0.210 HD
ENDBRANCH   3  51
BRANCH   2  53
ATOM     53  OAG GSZ d          32.564  44.551  22.651  0.00  0.00    -0.390 OA
ATOM     54  H11 GSZ d          31.697  44.938  22.652  0.00  0.00     0.210 HD
ENDBRANCH   2  53
TORSDOF 11
ENDMDL
