MODEL 1
REMARK VINA RESULT:     -12.9      0.000      0.000
REMARK  20 active torsions:
REMARK  status: ('A' for Active; 'I' for Inactive)
REMARK    1  A    between atoms: C1_1  and  C23_23 
REMARK    2  A    between atoms: C1_1  and  C2_2 
REMARK    3  A    between atoms: C2_2  and  C18_18 
REMARK    4  A    between atoms: C2_2  and  C3_3 
REMARK    5  A    between atoms: C21_21  and  C4_4 
REMARK    6  A    between atoms: C13_13  and  C5_5 
REMARK    7  A    between atoms: C18_18  and  C7_7 
REMARK    8  A    between atoms: C7_7  and  C16_16 
REMARK    9  A    between atoms: C7_7  and  C8_8 
REMARK   10  A    between atoms: C8_8  and  C9_9 
REMARK   11  A    between atoms: C9_9  and  C10_10 
REMARK       I    between atoms: C16_16  and  N18_45 
REMARK   12  A    between atoms: N18_45  and  C19_19 
REMARK   13  A    between atoms: C19_19  and  C27_27 
REMARK   14  A    between atoms: C19_19  and  C20_20 
REMARK   15  A    between atoms: C20_20  and  C21_21 
REMARK   16  A    between atoms: C21_21  and  C22_22 
REMARK   17  A    between atoms: C23_23  and  C24_24 
REMARK   18  A    between atoms: C24_24  and  C25_25 
REMARK   19  A    between atoms: C25_25  and  N1_44 
REMARK       I    between atoms: C27_27  and  N29_46 
REMARK   20  A    between atoms: N29_46  and  C30_30 
ROOT
ATOM      1  C7  L04 d          35.487  35.827  24.079  0.00  0.00     0.025 C 
ATOM      2  H8  L04 d          35.300  36.656  24.777  0.00  0.00     0.054 H 
ENDROOT
BRANCH   1   3
ATOM      3  C18 L04 d          34.155  35.391  23.470  0.00  0.00    -0.041 C 
ATOM      4  H18 L04 d          34.322  35.204  22.400  0.00  0.00     0.035 H 
ATOM      5  H19 L04 d          33.852  34.456  23.963  0.00  0.00     0.035 H 
BRANCH   3   6
ATOM      6  C2  L04 d          32.994  36.380  23.594  0.00  0.00     0.031 C 
ATOM      7  H3  L04 d          32.092  35.870  23.227  0.00  0.00     0.056 H 
BRANCH   6   8
ATOM      8  C1  L04 d          33.173  37.638  22.732  0.00  0.00    -0.052 C 
ATOM      9  H1  L04 d          34.014  38.217  23.139  0.00  0.00     0.034 H 
ATOM     10  H2  L04 d          33.408  37.322  21.705  0.00  0.00     0.034 H 
BRANCH   8  11
ATOM     11  C23 L04 d          31.952  38.542  22.684  0.00  0.00    -0.063 C 
ATOM     12  H27 L04 d          31.712  38.876  23.704  0.00  0.00     0.033 H 
ATOM     13  H28 L04 d          31.103  37.976  22.274  0.00  0.00     0.033 H 
BRANCH  11  14
ATOM     14  C24 L04 d          32.204  39.763  21.809  0.00  0.00    -0.050 C 
ATOM     15  H29 L04 d          32.189  39.453  20.753  0.00  0.00     0.035 H 
ATOM     16  H30 L04 d          33.191  40.180  22.056  0.00  0.00     0.035 H 
BRANCH  14  17
ATOM     17  C25 L04 d          31.146  40.836  22.022  0.00  0.00    -0.002 C 
ATOM     18  H31 L04 d          31.378  41.690  21.368  0.00  0.00     0.064 H 
ATOM     19  H32 L04 d          31.183  41.159  23.073  0.00  0.00     0.064 H 
BRANCH  17  20
ATOM     20  N1  L04 d          29.791  40.378  21.724  0.00  0.00    -0.344 N 
ATOM     21  C28 L04 d          29.160  40.203  20.409  0.00  0.00     0.023 A 
ATOM     22  C36 L04 d          27.792  39.636  20.782  0.00  0.00    -0.025 A 
ATOM     23  H33 L04 d          29.728  39.497  19.785  0.00  0.00     0.071 H 
ATOM     24  H34 L04 d          29.063  41.163  19.882  0.00  0.00     0.071 H 
ATOM     25  C29 L04 d          27.690  39.572  22.196  0.00  0.00     0.040 A 
ATOM     26  C38 L04 d          26.731  39.181  19.990  0.00  0.00    -0.074 A 
ATOM     27  C26 L04 d          28.955  40.073  22.747  0.00  0.00     0.254 A 
ATOM     28  C37 L04 d          26.528  39.056  22.788  0.00  0.00    -0.067 A 
ATOM     29  O1  L04 d          29.231  40.161  23.946  0.00  0.00    -0.267 OA
ATOM     30  C40 L04 d          25.491  38.610  21.982  0.00  0.00    -0.082 A 
ATOM     31  H40 L04 d          26.441  39.006  23.867  0.00  0.00     0.085 H 
ATOM     32  C39 L04 d          25.589  38.673  20.602  0.00  0.00    -0.082 A 
ATOM     33  H43 L04 d          24.594  38.208  22.438  0.00  0.00     0.083 H 
ATOM     34  H42 L04 d          24.766  38.320  19.991  0.00  0.00     0.083 H 
ATOM     35  H41 L04 d          26.797  39.226  18.909  0.00  0.00     0.084 H 
ENDBRANCH  17  20
ENDBRANCH  14  17
ENDBRANCH  11  14
ENDBRANCH   8  11
ENDBRANCH   6   8
BRANCH   6  36
ATOM     36  C3  L04 d          32.758  36.725  25.069  0.00  0.00     0.177 C 
ATOM     37  O5  L04 d          33.473  37.531  25.719  0.00  0.00    -0.648 OA
ATOM     38  O4  L04 d          31.836  36.139  25.643  0.00  0.00    -0.648 OA
ENDBRANCH   6  36
ENDBRANCH   3   6
ENDBRANCH   1   3
BRANCH   1  39
ATOM     39  C16 L04 d          36.443  36.297  22.992  0.00  0.00     0.222 C 
ATOM     40  O17 L04 d          36.288  35.950  21.818  0.00  0.00    -0.273 OA
ATOM     41  N18 L04 d          37.434  37.087  23.392  0.00  0.00    -0.347 N 
ATOM     42  H46 L04 d          37.492  37.351  24.355  0.00  0.00     0.163 HD
BRANCH  41  43
ATOM     43  C19 L04 d          38.435  37.574  22.455  0.00  0.00     0.090 C 
ATOM     44  H20 L04 d          38.069  37.452  21.425  0.00  0.00     0.087 H 
BRANCH  43  45
ATOM     45  C27 L04 d          39.695  36.739  22.659  0.00  0.00     0.245 C 
ATOM     46  O28 L04 d          40.303  36.784  23.731  0.00  0.00    -0.271 OA
ATOM     47  N29 L04 d          40.029  35.934  21.650  0.00  0.00    -0.325 N 
ATOM     48  H47 L04 d          39.415  35.949  20.860  0.00  0.00     0.169 HD
BRANCH  47  49
ATOM     49  C30 L04 d          41.111  35.081  21.553  0.00  0.00     0.034 A 
ATOM     50  C35 L04 d          41.958  34.780  22.619  0.00  0.00    -0.057 A 
ATOM     51  C34 L04 d          43.039  33.919  22.452  0.00  0.00    -0.081 A 
ATOM     52  H39 L04 d          41.772  35.223  23.591  0.00  0.00     0.086 H 
ATOM     53  C33 L04 d          43.283  33.344  21.205  0.00  0.00    -0.083 A 
ATOM     54  H38 L04 d          43.690  33.695  23.290  0.00  0.00     0.083 H 
ATOM     55  C32 L04 d          42.446  33.637  20.134  0.00  0.00    -0.081 A 
ATOM     56  H37 L04 d          44.122  32.672  21.070  0.00  0.00     0.083 H 
ATOM     57  C31 L04 d          41.368  34.499  20.312  0.00  0.00    -0.057 A 
ATOM     58  H36 L04 d          42.632  33.196  19.162  0.00  0.00     0.083 H 
ATOM     59  H35 L04 d          40.718  34.722  19.474  0.00  0.00     0.086 H 
ENDBRANCH  47  49
ENDBRANCH  43  45
BRANCH  43  60
ATOM     60  C20 L04 d          38.747  39.051  22.706  0.00  0.00    -0.035 C 
ATOM     61  H21 L04 d          39.469  39.366  21.939  0.00  0.00     0.037 H 
ATOM     62  H22 L04 d          39.212  39.121  23.700  0.00  0.00     0.037 H 
BRANCH  60  63
ATOM     63  C21 L04 d          37.590  40.053  22.677  0.00  0.00    -0.059 C 
ATOM     64  H23 L04 d          37.017  39.969  23.612  0.00  0.00     0.038 H 
BRANCH  63  65
ATOM     65  C4  L04 d          38.173  41.452  22.574  0.00  0.00    -0.073 C 
ATOM     66  H4  L04 d          37.357  42.189  22.552  0.00  0.00     0.028 H 
ATOM     67  H5  L04 d          38.767  41.535  21.652  0.00  0.00     0.028 H 
ATOM     68  H6  L04 d          38.819  41.645  23.444  0.00  0.00     0.028 H 
ENDBRANCH  63  65
BRANCH  63  69
ATOM     69  C22 L04 d          36.653  39.771  21.504  0.00  0.00    -0.073 C 
ATOM     70  H24 L04 d          36.242  38.754  21.598  0.00  0.00     0.028 H 
ATOM     71  H25 L04 d          37.212  39.854  20.560  0.00  0.00     0.028 H 
ATOM     72  H26 L04 d          35.829  40.500  21.508  0.00  0.00     0.028 H 
ENDBRANCH  63  69
ENDBRANCH  60  63
ENDBRANCH  43  60
ENDBRANCH  41  43
ENDBRANCH   1  39
BRANCH   1  73
ATOM     73  C8  L04 d          36.149  34.674  24.839  0.00  0.00    -0.050 C 
ATOM     74  H9  L04 d          37.125  35.020  25.212  0.00  0.00     0.034 H 
ATOM     75  H10 L04 d          36.298  33.839  24.140  0.00  0.00     0.034 H 
BRANCH  73  76
ATOM     76  C9  L04 d          35.347  34.173  26.010  0.00  0.00    -0.040 C 
ATOM     77  H11 L04 d          34.598  33.462  25.632  0.00  0.00     0.040 H 
ATOM     78  H12 L04 d          34.837  35.032  26.469  0.00  0.00     0.040 H 
BRANCH  76  79
ATOM     79  C10 L04 d          36.147  33.485  27.073  0.00  0.00    -0.058 A 
ATOM     80  C15 L04 d          36.906  34.223  27.974  0.00  0.00    -0.076 A 
ATOM     81  C14 L04 d          37.623  33.593  28.982  0.00  0.00    -0.072 A 
ATOM     82  H16 L04 d          36.938  35.302  27.889  0.00  0.00     0.084 H 
ATOM     83  C13 L04 d          37.595  32.209  29.103  0.00  0.00    -0.026 A 
ATOM     84  H15 L04 d          38.207  34.183  29.678  0.00  0.00     0.084 H 
ATOM     85  C12 L04 d          36.838  31.473  28.196  0.00  0.00    -0.072 A 
ATOM     86  C11 L04 d          36.124  32.103  27.194  0.00  0.00    -0.076 A 
ATOM     87  H14 L04 d          36.808  30.392  28.277  0.00  0.00     0.084 H 
ATOM     88  H13 L04 d          35.541  31.511  26.497  0.00  0.00     0.084 H 
BRANCH  83  89
ATOM     89  C5  L04 d          38.348  31.525  30.166  0.00  0.00    -0.026 A 
ATOM     90  C43 L04 d          39.175  30.450  29.864  0.00  0.00    -0.069 A 
ATOM     91  C42 L04 d          39.880  29.797  30.866  0.00  0.00    -0.045 A 
ATOM     92  H45 L04 d          39.271  30.118  28.836  0.00  0.00     0.085 H 
ATOM     93  C41 L04 d          39.771  30.204  32.188  0.00  0.00     0.116 A 
ATOM     94  H44 L04 d          40.521  28.961  30.613  0.00  0.00     0.088 H 
ATOM     95  C17 L04 d          38.959  31.287  32.494  0.00  0.00    -0.045 A 
ATOM     96  F1  L04 d          40.447  29.551  33.155  0.00  0.00    -0.206 F 
ATOM     97  C6  L04 d          38.247  31.937  31.491  0.00  0.00    -0.069 A 
ATOM     98  H17 L04 d          38.878  31.628  33.520  0.00  0.00     0.088 H 
ATOM     99  H7  L04 d          37.607  32.774  31.745  0.00  0.00     0.085 H 
ENDBRANCH  83  89
ENDBRANCH  76  79
ENDBRANCH  73  76
ENDBRANCH   1  73
TORSDOF 20
ENDMDL
